# Generated by REPEAT Assigner based on pymatgen
data_DB0-m2_o11_o26_f0_pcu.sym.68
_audit_creation_date              2022-05-24
_audit_creation_method            REPEAT_Assigner
_cell_length_a                    9.540603
_cell_length_b                    10.989755
_cell_length_c                    17.326007
_cell_angle_alpha                 90.006740
_cell_angle_beta                  86.238555
_cell_angle_gamma                 90.019946
_cell_volume                      1812.699332
_symmetry_space_group_name_H-M    P1
_symmetry_Int_Tables_number       1
loop_
    _symmetry_equiv_pos_site_id
    _symmetry_equiv_pos_as_xyz
    1  x,y,z
loop_
    _atom_site_type_symbol
    _atom_site_label
    _atom_site_fract_x
    _atom_site_fract_y
    _atom_site_fract_z
    _atom_type_partial_charge
    O   O1   0.371235  0.673441  0.479273  -0.604803
    O   O2   0.611492  0.672038  0.486933  -0.618440
    C   C1   0.492156  0.729351  0.480520  0.725317
    O   O3   0.354264  0.519581  0.604395  -0.495482
    O   O4   0.595161  0.505619  0.605414  -0.598482
    C   C2   0.470599  0.518816  0.641152  0.622510
    Cu  Cu1  0.348078  0.499637  0.493637  0.819902
    Cu  Cu2  0.628467  0.494501  0.492797  1.017795
    O   O5   0.365139  0.321649  0.501456  -0.494236
    O   O6   0.605173  0.319450  0.504975  -0.625558
    O   O7   0.382014  0.484922  0.380698  -0.526051
    O   O8   0.621592  0.476979  0.381326  -0.647625
    C   C3   0.483949  0.263819  0.506908  0.636826
    C   C4   0.505896  0.474596  0.344561  0.677121
    C   C5   0.462997  0.522832  0.726302  -0.151161
    C   C6   0.569858  0.466175  0.763039  -0.031258
    C   C7   0.568036  0.461480  0.842349  -0.214102
    C   C8   0.457143  0.511401  0.886533  0.220381
    C   C9   0.349541  0.567313  0.850616  -0.266736
    C   C10  0.352826  0.577519  0.770606  0.095851
    C   C11  0.425965  0.424726  0.136280  -0.255531
    C   C12  0.412349  0.418534  0.216244  0.056098
    C   C13  0.636667  0.515215  0.220769  -0.057539
    C   C14  0.649017  0.520694  0.141160  -0.261207
    C   C15  0.542082  0.478968  0.098523  0.263618
    C   C16  0.445175  0.500147  0.971340  -0.181942
    C   C17  0.556966  0.488855  0.013615  -0.232652
    C   C18  0.517018  0.468303  0.259346  -0.094977
    H   H1   0.654742  0.421124  0.730038  0.106425
    H   H2   0.720558  0.552225  0.252634  0.110835
    H   H3   0.662105  0.495543  0.986383  0.144834
    H   H4   0.262140  0.601298  0.887055  0.137231
    H   H5   0.346014  0.384057  0.103386  0.131132
    H   H6   0.341258  0.507990  0.999986  0.125140
    H   H7   0.651088  0.413248  0.868568  0.118622
    H   H8   0.741658  0.561271  0.112317  0.130171
    C   C19  0.591563  0.064600  0.491968  -0.212588
    C   C20  0.480536  0.131654  0.518263  0.033314
    H   H9   0.683016  0.110548  0.465354  0.136598
    C   C21  0.597916  0.930571  0.495176  0.047756
    C   C22  0.490242  0.862298  0.475468  -0.317786
    H   H10  0.695667  0.887681  0.508480  0.096802
    H   H11  0.395098  0.904949  0.458133  0.150870
    C   C23  0.058467  0.566118  0.538059  0.117636
    N   N1   0.138605  0.499576  0.491910  -0.337817
    H   H12  0.103146  0.618544  0.583067  0.077393
    H   H13  0.095658  0.469522  0.443242  0.273541
    C   C24  0.905678  0.576219  0.528384  0.060739
    N   N2   0.838068  0.493590  0.493547  -0.331245
    H   H14  0.849207  0.652834  0.554447  0.112582
    H   H15  0.889050  0.412261  0.483315  0.241140
    C   C25  0.357508  0.080537  0.565898  -0.093659
    C   C26  0.329454  0.158625  0.635617  -0.036322
    C   C27  0.204335  0.210241  0.650102  -0.454138
    H   H16  0.377045  0.987584  0.587083  0.078683
    H   H17  0.264338  0.079943  0.530975  0.089344
    H   H18  0.411874  0.173721  0.674838  0.094105
    H   H19  0.120376  0.195692  0.611848  0.164049
    H   H20  0.185467  0.266998  0.700883  0.160334
    C   C28  0.286695  0.353721  0.252786  -0.039867
    C   C29  0.331167  0.247043  0.298627  0.044558
    C   C30  0.234856  0.180311  0.338120  -0.523055
    H   H21  0.220270  0.319571  0.207423  0.051644
    H   H22  0.220552  0.416597  0.289358  0.054306
    H   H23  0.441092  0.222040  0.298887  0.067260
    H   H24  0.124879  0.204812  0.337814  0.183500
    H   H25  0.265962  0.101467  0.370627  0.175023
    C   C31  0.238032  0.645245  0.733165  0.033762
    C   C32  0.163251  0.734305  0.786629  -0.076016
    C   C33  0.025860  0.725141  0.804866  -0.419096
    H   H26  0.162197  0.578630  0.711917  0.076362
    H   H27  0.284408  0.699779  0.684058  0.045125
    H   H28  0.221146  0.809736  0.809277  0.093338
    H   H29  0.964513  0.651496  0.782689  0.145515
    H   H30  0.974226  0.792466  0.842609  0.154285
