# generated using pymatgen
data_ZnH9C23N3O4
_symmetry_space_group_name_H-M   'P 1'
_cell_length_a   17.46441400
_cell_length_b   8.54743500
_cell_length_c   14.99539200
_cell_angle_alpha   90.00000000
_cell_angle_beta   90.98450000
_cell_angle_gamma   90.00000000
_symmetry_Int_Tables_number   1
_chemical_formula_structural   ZnH9C23N3O4
_chemical_formula_sum   'Zn2 H18 C46 N6 O8'
_cell_volume   2238.12084822
_cell_formula_units_Z   2
loop_
 _symmetry_equiv_pos_site_id
 _symmetry_equiv_pos_as_xyz
  1  'x, y, z'
loop_
 _atom_site_type_symbol
 _atom_site_label
 _atom_site_symmetry_multiplicity
 _atom_site_fract_x
 _atom_site_fract_y
 _atom_site_fract_z
 _atom_site_occupancy
  Zn  Zn1  1  0.91488900  0.50000000  0.50563600  1
  Zn  Zn2  1  0.08511100  0.50000000  0.49436300  1
  H  H1  1  0.03076100  0.00000000  0.56222800  1
  H  H2  1  0.96923900  0.00000000  0.43777200  1
  H  H3  1  0.99427900  0.25106000  0.80105300  1
  H  H4  1  0.00572100  0.74894000  0.19894700  1
  H  H5  1  0.00572100  0.25106000  0.19894700  1
  H  H6  1  0.99427900  0.74894000  0.80105300  1
  H  H7  1  0.80851500  0.50000000  0.36946600  1
  H  H8  1  0.19148500  0.50000000  0.63053400  1
  H  H9  1  0.69100100  0.50000000  0.28476100  1
  H  H10  1  0.30899900  0.50000000  0.71523900  1
  H  H11  1  0.68751400  0.50000000  0.72752400  1
  H  H12  1  0.31248600  0.50000000  0.27247500  1
  H  H13  1  0.57263100  0.50000000  0.20073400  1
  H  H14  1  0.42736900  0.50000000  0.79926500  1
  H  H15  1  0.43242100  0.50000000  0.19618600  1
  H  H16  1  0.56757900  0.50000000  0.80381400  1
  H  H17  1  0.80753800  0.50000000  0.64969300  1
  H  H18  1  0.19246200  0.50000000  0.35030600  1
  C  C1  1  0.00974900  0.13953800  0.67579300  1
  C  C2  1  0.99025100  0.86046200  0.32420700  1
  C  C3  1  0.99025100  0.13953800  0.32420700  1
  C  C4  1  0.00974900  0.86046200  0.67579300  1
  C  C5  1  0.99949800  0.14049000  0.76675300  1
  C  C6  1  0.00050200  0.85951000  0.23324700  1
  C  C7  1  0.00050200  0.14049000  0.23324700  1
  C  C8  1  0.99949800  0.85951000  0.76675300  1
  C  C9  1  0.99833700  0.00000000  0.81314800  1
  C  C10  1  0.00166300  0.00000000  0.18685200  1
  C  C11  1  0.01964800  0.00000000  0.63239100  1
  C  C12  1  0.98035200  0.00000000  0.36760800  1
  C  C13  1  0.00262800  0.00000000  0.08917100  1
  C  C14  1  0.99737200  0.00000000  0.91082800  1
  C  C15  1  0.00632800  0.71834400  0.62181000  1
  C  C16  1  0.99367200  0.28165600  0.37819000  1
  C  C17  1  0.99367200  0.71834400  0.37819000  1
  C  C18  1  0.00632800  0.28165600  0.62181000  1
  C  C19  1  0.77674500  0.50000000  0.43067200  1
  C  C20  1  0.22325500  0.50000000  0.56932700  1
  C  C21  1  0.77621100  0.50000000  0.58689000  1
  C  C22  1  0.22378900  0.50000000  0.41311000  1
  C  C23  1  0.65934100  0.50000000  0.34607800  1
  C  C24  1  0.34065900  0.50000000  0.65392200  1
  C  C25  1  0.69789400  0.50000000  0.42720000  1
  C  C26  1  0.30210600  0.50000000  0.57279900  1
  C  C27  1  0.65775900  0.50000000  0.50518200  1
  C  C28  1  0.34224100  0.50000000  0.49481700  1
  C  C29  1  0.69700100  0.50000000  0.58563400  1
  C  C30  1  0.30299900  0.50000000  0.41436600  1
  C  C31  1  0.65696600  0.50000000  0.66421100  1
  C  C32  1  0.34303400  0.50000000  0.33578900  1
  C  C33  1  0.54144400  0.50000000  0.26238300  1
  C  C34  1  0.45855600  0.50000000  0.73761600  1
  C  C35  1  0.58032200  0.50000000  0.34330300  1
  C  C36  1  0.41967800  0.50000000  0.65669700  1
  C  C37  1  0.54010600  0.50000000  0.42163100  1
  C  C38  1  0.45989400  0.50000000  0.57836900  1
  C  C39  1  0.46247100  0.50000000  0.25981500  1
  C  C40  1  0.53752900  0.50000000  0.74018500  1
  C  C41  1  0.42216900  0.50000000  0.33817200  1
  C  C42  1  0.57783100  0.50000000  0.66182700  1
  C  C43  1  0.57888000  0.50000000  0.50259900  1
  C  C44  1  0.42112000  0.50000000  0.49740100  1
  C  C45  1  0.53886000  0.50000000  0.58096700  1
  C  C46  1  0.46114000  0.50000000  0.41903200  1
  N  N1  1  0.99887100  0.86393300  0.95591700  1
  N  N2  1  0.00112900  0.13606700  0.04408300  1
  N  N3  1  0.00112900  0.86393300  0.04408300  1
  N  N4  1  0.99887100  0.13606700  0.95591700  1
  N  N5  1  0.81461600  0.50000000  0.50971500  1
  N  N6  1  0.18538400  0.50000000  0.49028500  1
  O  O1  1  0.06991300  0.66924400  0.58592600  1
  O  O2  1  0.93008700  0.33075600  0.41407400  1
  O  O3  1  0.93008700  0.66924400  0.41407400  1
  O  O4  1  0.06991300  0.33075600  0.58592600  1
  O  O5  1  0.93850100  0.66336900  0.59915900  1
  O  O6  1  0.06150000  0.33663100  0.40084000  1
  O  O7  1  0.06150000  0.66336900  0.40084000  1
  O  O8  1  0.93850100  0.33663100  0.59915900  1
