# generated using pymatgen
data_Zn3H26C42(ClO6)2
_symmetry_space_group_name_H-M   'P 1'
_cell_length_a   37.85484500
_cell_length_b   21.81210700
_cell_length_c   21.80412500
_cell_angle_alpha   90.00000000
_cell_angle_beta   122.57438500
_cell_angle_gamma   90.00000000
_symmetry_Int_Tables_number   1
_chemical_formula_structural   Zn3H26C42(ClO6)2
_chemical_formula_sum   'Zn12 H104 C168 Cl8 O48'
_cell_volume   15171.45500643
_cell_formula_units_Z   4
loop_
 _symmetry_equiv_pos_site_id
 _symmetry_equiv_pos_as_xyz
  1  'x, y, z'
loop_
 _atom_site_type_symbol
 _atom_site_label
 _atom_site_symmetry_multiplicity
 _atom_site_fract_x
 _atom_site_fract_y
 _atom_site_fract_z
 _atom_site_occupancy
  Zn  Zn1  1  0.00012900  0.93012900  0.00007700  1
  Zn  Zn2  1  0.50012900  0.43012900  0.00007700  1
  Zn  Zn3  1  0.00002800  0.06909200  0.00002100  1
  Zn  Zn4  1  0.50002800  0.56909200  0.00002100  1
  Zn  Zn5  1  0.49874300  0.00001000  0.56840900  1
  Zn  Zn6  1  0.50140900  0.99992300  0.43186100  1
  Zn  Zn7  1  0.99874300  0.50001000  0.56840900  1
  Zn  Zn8  1  0.00140900  0.49992300  0.43186100  1
  Zn  Zn9  1  0.95246400  0.99979500  0.45744300  1
  Zn  Zn10  1  0.04748400  0.99984200  0.54237200  1
  Zn  Zn11  1  0.45246400  0.49979500  0.45744300  1
  Zn  Zn12  1  0.54748400  0.49984200  0.54237200  1
  H  H1  1  0.27790900  0.94500000  0.36066700  1
  H  H2  1  0.72193800  0.94470200  0.63923900  1
  H  H3  1  0.77790900  0.44500000  0.36066700  1
  H  H4  1  0.22193800  0.44470200  0.63923900  1
  H  H5  1  0.21054900  0.93001700  0.28444600  1
  H  H6  1  0.78924200  0.92918600  0.71521500  1
  H  H7  1  0.71054900  0.43001700  0.28444600  1
  H  H8  1  0.28924200  0.42918600  0.71521500  1
  H  H9  1  0.21268800  0.09523000  0.24071200  1
  H  H10  1  0.78783100  0.09416200  0.76055900  1
  H  H11  1  0.71268800  0.59523000  0.24071200  1
  H  H12  1  0.28783100  0.59416200  0.76055900  1
  H  H13  1  0.21353700  0.04297400  0.30570800  1
  H  H14  1  0.78685200  0.04229100  0.69513400  1
  H  H15  1  0.71353700  0.54297400  0.30570800  1
  H  H16  1  0.28685200  0.54229100  0.69513400  1
  H  H17  1  0.28422000  0.05100900  0.37304800  1
  H  H18  1  0.71619900  0.05075500  0.62771100  1
  H  H19  1  0.78422000  0.55100900  0.37304800  1
  H  H20  1  0.21619900  0.55075500  0.62771100  1
  H  H21  1  0.28336400  0.09731100  0.30389600  1
  H  H22  1  0.71716300  0.09688000  0.69707800  1
  H  H23  1  0.78336400  0.59731100  0.30389600  1
  H  H24  1  0.21716300  0.59688000  0.69707800  1
  H  H25  1  0.21761700  0.97078100  0.12639200  1
  H  H26  1  0.78232400  0.96905100  0.87359100  1
  H  H27  1  0.71761700  0.47078100  0.12639200  1
  H  H28  1  0.28232400  0.46905100  0.87359100  1
  H  H29  1  0.21717900  0.05274600  0.13766700  1
  H  H30  1  0.78329400  0.05107100  0.86336300  1
  H  H31  1  0.71717900  0.55274600  0.13766700  1
  H  H32  1  0.28329400  0.55107100  0.86336300  1
  H  H33  1  0.28911600  0.97380700  0.19622300  1
  H  H34  1  0.71083700  0.97317700  0.80391100  1
  H  H35  1  0.78911600  0.47380700  0.19622300  1
  H  H36  1  0.21083700  0.47317700  0.80391100  1
  H  H37  1  0.21559000  0.90088700  0.21272100  1
  H  H38  1  0.78413200  0.89967500  0.78672400  1
  H  H39  1  0.71559000  0.40088700  0.21272100  1
  H  H40  1  0.28413200  0.39967500  0.78672400  1
  H  H41  1  0.28691200  0.05415200  0.20817300  1
  H  H42  1  0.71355100  0.05351700  0.79261100  1
  H  H43  1  0.78691200  0.55415200  0.20817300  1
  H  H44  1  0.21355100  0.55351700  0.79261100  1
  H  H45  1  0.94805000  0.06651700  0.26100200  1
  H  H46  1  0.05163200  0.06603900  0.73890100  1
  H  H47  1  0.44805000  0.56651700  0.26100200  1
  H  H48  1  0.55163200  0.56603900  0.73890100  1
  H  H49  1  0.04543900  0.93326700  0.34613200  1
  H  H50  1  0.95480200  0.93185500  0.65366000  1
  H  H51  1  0.54543900  0.43326700  0.34613200  1
  H  H52  1  0.45480200  0.43185500  0.65366000  1
  H  H53  1  0.04183400  0.93225400  0.23080200  1
  H  H54  1  0.95845600  0.93024500  0.76890100  1
  H  H55  1  0.54183400  0.43225400  0.23080200  1
  H  H56  1  0.45845600  0.43024500  0.76890100  1
  H  H57  1  0.54922200  0.80664900  0.48051400  1
  H  H58  1  0.45126300  0.80566900  0.52198900  1
  H  H59  1  0.04922200  0.30664900  0.48051400  1
  H  H60  1  0.95126300  0.30566900  0.52198900  1
  H  H61  1  0.05060200  0.19444000  0.48297500  1
  H  H62  1  0.95039900  0.19344500  0.51914100  1
  H  H63  1  0.55060200  0.69444000  0.48297500  1
  H  H64  1  0.45039900  0.69344500  0.51914100  1
  H  H65  1  0.45265100  0.19363900  0.38550000  1
  H  H66  1  0.54702600  0.19381200  0.61229600  1
  H  H67  1  0.95265100  0.69363900  0.38550000  1
  H  H68  1  0.04702600  0.69381200  0.61229600  1
  H  H69  1  0.95118400  0.80595000  0.38616600  1
  H  H70  1  0.04779400  0.80616100  0.61168700  1
  H  H71  1  0.45118400  0.30595000  0.38616600  1
  H  H72  1  0.54779400  0.30616100  0.61168700  1
  H  H73  1  0.26637400  0.87697400  0.18978600  1
  H  H74  1  0.35709700  0.74057900  0.31450400  1
  H  H75  1  0.36830200  0.78540800  0.42701800  1
  H  H76  1  0.32954900  0.87638100  0.42230400  1
  H  H77  1  0.73324700  0.87622900  0.80975800  1
  H  H78  1  0.64216500  0.74045800  0.68431900  1
  H  H79  1  0.63119000  0.78551800  0.57207100  1
  H  H80  1  0.67017200  0.87636400  0.57725900  1
  H  H81  1  0.76637400  0.37697400  0.18978600  1
  H  H82  1  0.85709700  0.24057900  0.31450400  1
  H  H83  1  0.86830200  0.28540800  0.42701800  1
  H  H84  1  0.82954900  0.37638100  0.42230400  1
  H  H85  1  0.23324700  0.37622900  0.80975800  1
  H  H86  1  0.14216500  0.24045800  0.68431900  1
  H  H87  1  0.13119000  0.28551800  0.57207100  1
  H  H88  1  0.17017200  0.37636400  0.57725900  1
  H  H89  1  0.96068900  0.15947300  0.19999100  1
  H  H90  1  0.85662400  0.18909700  0.98433700  1
  H  H91  1  0.85512000  0.07936900  0.95816900  1
  H  H92  1  0.90606800  0.00920000  0.05227500  1
  H  H93  1  0.03846600  0.15846300  0.80054900  1
  H  H94  1  0.14344700  0.18775600  0.01540800  1
  H  H95  1  0.14566600  0.07776700  0.04089800  1
  H  H96  1  0.09453600  0.00765800  0.94694000  1
  H  H97  1  0.46068900  0.65947300  0.19999100  1
  H  H98  1  0.35662400  0.68909700  0.98433700  1
  H  H99  1  0.35512000  0.57936900  0.95816900  1
  H  H100  1  0.40606800  0.50920000  0.05227500  1
  H  H101  1  0.53846600  0.65846300  0.80054900  1
  H  H102  1  0.64344700  0.68775600  0.01540800  1
  H  H103  1  0.64566600  0.57776700  0.04089800  1
  H  H104  1  0.59453600  0.50765800  0.94694000  1
  C  C1  1  0.99484400  0.00077100  0.11494600  1
  C  C2  1  0.00534100  0.99847800  0.88516600  1
  C  C3  1  0.49484400  0.50077100  0.11494600  1
  C  C4  1  0.50534100  0.49847800  0.88516600  1
  C  C5  1  0.08190100  0.00077600  0.08392900  1
  C  C6  1  0.91824200  0.99829900  0.91617900  1
  C  C7  1  0.58190100  0.50077600  0.08392900  1
  C  C8  1  0.41824200  0.49829900  0.91617900  1
  C  C9  1  0.22535900  0.93824300  0.25302900  1
  C  C10  1  0.77450200  0.93729500  0.74676700  1
  C  C11  1  0.72535900  0.43824300  0.25302900  1
  C  C12  1  0.27450200  0.43729500  0.74676700  1
  C  C13  1  0.22519400  0.05093000  0.26935800  1
  C  C14  1  0.77517400  0.05006400  0.73148500  1
  C  C15  1  0.72519400  0.55093000  0.26935800  1
  C  C16  1  0.27517400  0.55006400  0.73148500  1
  C  C17  1  0.27272400  0.05343500  0.31437000  1
  C  C18  1  0.72765400  0.05296700  0.68638200  1
  C  C19  1  0.77272400  0.55343500  0.31437000  1
  C  C20  1  0.22765400  0.55296700  0.68638200  1
  C  C21  1  0.37320900  0.00010600  0.37551400  1
  C  C22  1  0.62692500  0.00032900  0.62478800  1
  C  C23  1  0.87320900  0.50010600  0.37551400  1
  C  C24  1  0.12692500  0.50032900  0.62478800  1
  C  C25  1  0.21043400  0.99931800  0.21399600  1
  C  C26  1  0.78970100  0.99809300  0.78636100  1
  C  C27  1  0.71043400  0.49931800  0.21399600  1
  C  C28  1  0.28970100  0.49809300  0.78636100  1
  C  C29  1  0.27258900  0.94113300  0.30565500  1
  C  C30  1  0.72728300  0.94064300  0.69425300  1
  C  C31  1  0.77258900  0.44113300  0.30565500  1
  C  C32  1  0.22728300  0.44064300  0.69425300  1
  C  C33  1  0.28964100  0.00009100  0.29320800  1
  C  C34  1  0.71049600  0.99967200  0.70714900  1
  C  C35  1  0.78964100  0.50009100  0.29320800  1
  C  C36  1  0.21049600  0.49967200  0.70714900  1
  C  C37  1  0.27559300  0.00903500  0.21414500  1
  C  C38  1  0.72459100  0.00828700  0.78628500  1
  C  C39  1  0.77559300  0.50903500  0.21414500  1
  C  C40  1  0.22459100  0.50828700  0.78628500  1
  C  C41  1  0.22820300  0.00839500  0.16677400  1
  C  C42  1  0.77198000  0.00700400  0.83368000  1
  C  C43  1  0.72820300  0.50839500  0.16677400  1
  C  C44  1  0.27198000  0.50700400  0.83368000  1
  C  C45  1  0.33545900  0.00022800  0.33857900  1
  C  C46  1  0.66467600  0.00022300  0.66175600  1
  C  C47  1  0.83545900  0.50022800  0.33857900  1
  C  C48  1  0.16467600  0.50022300  0.66175600  1
  C  C49  1  0.16458700  0.99974300  0.16810200  1
  C  C50  1  0.83554800  0.99804400  0.83222400  1
  C  C51  1  0.66458700  0.49974300  0.16810200  1
  C  C52  1  0.33554800  0.49804400  0.83222400  1
  C  C53  1  0.12684300  0.00030100  0.12991000  1
  C  C54  1  0.87329500  0.99822000  0.87033500  1
  C  C55  1  0.62684300  0.50030100  0.12991000  1
  C  C56  1  0.37329500  0.49822000  0.87033500  1
  C  C57  1  0.96741000  0.03863000  0.18961600  1
  C  C58  1  0.03249400  0.03738500  0.81030900  1
  C  C59  1  0.46741000  0.53863000  0.18961600  1
  C  C60  1  0.53249400  0.53738500  0.81030900  1
  C  C61  1  0.96882100  0.03743900  0.25418800  1
  C  C62  1  0.03098900  0.03660400  0.74565300  1
  C  C63  1  0.46882100  0.53743900  0.25418800  1
  C  C64  1  0.53098900  0.53660400  0.74565300  1
  C  C65  1  0.99697800  0.00018100  0.31054200  1
  C  C66  1  0.00297500  0.99927800  0.68923800  1
  C  C67  1  0.49697800  0.50018100  0.31054200  1
  C  C68  1  0.50297500  0.49927800  0.68923800  1
  C  C69  1  0.02341900  0.96283100  0.30220900  1
  C  C70  1  0.97671800  0.96150800  0.69758200  1
  C  C71  1  0.52341900  0.46283100  0.30220900  1
  C  C72  1  0.47671800  0.46150800  0.69758200  1
  C  C73  1  0.02096900  0.96173700  0.23690600  1
  C  C74  1  0.97921500  0.96007300  0.76291800  1
  C  C75  1  0.52096900  0.46173700  0.23690600  1
  C  C76  1  0.47921500  0.46007300  0.76291800  1
  C  C77  1  0.99355700  0.00003200  0.18075500  1
  C  C78  1  0.00653000  0.99836600  0.81920700  1
  C  C79  1  0.49355700  0.50003200  0.18075500  1
  C  C80  1  0.50653000  0.49836600  0.81920700  1
  C  C81  1  0.49987000  0.18664300  0.49889300  1
  C  C82  1  0.99987000  0.68664300  0.49889300  1
  C  C83  1  0.50011900  0.88006000  0.50142000  1
  C  C84  1  0.00011900  0.38006000  0.50142000  1
  C  C85  1  0.41816000  0.99984000  0.41915200  1
  C  C86  1  0.58197000  0.00015800  0.58112600  1
  C  C87  1  0.91816000  0.49984000  0.41915200  1
  C  C88  1  0.08197000  0.50015800  0.58112600  1
  C  C89  1  0.50003900  0.11978400  0.49884500  1
  C  C90  1  0.00003900  0.61978400  0.49884500  1
  C  C91  1  0.99927300  0.87996900  0.49893600  1
  C  C92  1  0.49927300  0.37996900  0.49893600  1
  C  C93  1  0.99849000  0.00008500  0.37871800  1
  C  C94  1  0.00145800  0.99950900  0.62104300  1
  C  C95  1  0.49849000  0.50008500  0.37871800  1
  C  C96  1  0.50145800  0.49950900  0.62104300  1
  C  C97  1  0.00068500  0.11967000  0.50094100  1
  C  C98  1  0.50068500  0.61967000  0.50094100  1
  C  C99  1  0.52762700  0.78181500  0.48934900  1
  C  C100  1  0.47297600  0.78126700  0.51308500  1
  C  C101  1  0.02762700  0.28181500  0.48934900  1
  C  C102  1  0.97297600  0.28126700  0.51308500  1
  C  C103  1  0.02858300  0.21863800  0.49126900  1
  C  C104  1  0.97230700  0.21808500  0.51093800  1
  C  C105  1  0.52858300  0.71863800  0.49126900  1
  C  C106  1  0.47230700  0.71808500  0.51093800  1
  C  C107  1  0.00051900  0.18662600  0.50105000  1
  C  C108  1  0.50051900  0.68662600  0.50105000  1
  C  C109  1  0.50023800  0.81319400  0.50128600  1
  C  C110  1  0.00023800  0.31319400  0.50128600  1
  C  C111  1  0.47346000  0.21825200  0.43535300  1
  C  C112  1  0.52607300  0.21834600  0.56245600  1
  C  C113  1  0.97346000  0.71825200  0.43535300  1
  C  C114  1  0.02607300  0.71834600  0.56245600  1
  C  C115  1  0.97240700  0.78140900  0.43584700  1
  C  C116  1  0.02672400  0.78152600  0.56199400  1
  C  C117  1  0.47240700  0.28140900  0.43584700  1
  C  C118  1  0.52672400  0.28152600  0.56199400  1
  C  C119  1  0.99946400  0.81311700  0.49892800  1
  C  C120  1  0.49946400  0.31311700  0.49892800  1
  C  C121  1  0.29530200  0.88435000  0.30584600  1
  C  C122  1  0.28887300  0.85820600  0.24260100  1
  C  C123  1  0.31105000  0.80683300  0.24589200  1
  C  C124  1  0.33967000  0.78077100  0.31204100  1
  C  C125  1  0.34590700  0.80587600  0.37503200  1
  C  C126  1  0.32376000  0.85717700  0.37199500  1
  C  C127  1  0.70437100  0.88398400  0.69374800  1
  C  C128  1  0.71069700  0.85768000  0.75684700  1
  C  C129  1  0.68836300  0.80640900  0.75328200  1
  C  C130  1  0.65970600  0.78058400  0.68700000  1
  C  C131  1  0.65358800  0.80582700  0.62415500  1
  C  C132  1  0.67587000  0.85705100  0.62746200  1
  C  C133  1  0.79530200  0.38435000  0.30584600  1
  C  C134  1  0.78887300  0.35820600  0.24260100  1
  C  C135  1  0.81105000  0.30683300  0.24589200  1
  C  C136  1  0.83967000  0.28077100  0.31204100  1
  C  C137  1  0.84590700  0.30587600  0.37503200  1
  C  C138  1  0.82376000  0.35717700  0.37199500  1
  C  C139  1  0.20437100  0.38398400  0.69374800  1
  C  C140  1  0.21069700  0.35768000  0.75684700  1
  C  C141  1  0.18836300  0.30640900  0.75328200  1
  C  C142  1  0.15970600  0.28058400  0.68700000  1
  C  C143  1  0.15358800  0.30582700  0.62415500  1
  C  C144  1  0.17587000  0.35705100  0.62746200  1
  C  C145  1  0.93737900  0.07996200  0.13193300  1
  C  C146  1  0.93760800  0.14155500  0.14685800  1
  C  C147  1  0.90879200  0.18074000  0.09383700  1
  C  C148  1  0.87931400  0.15842600  0.02589000  1
  C  C149  1  0.87854300  0.09686500  0.01114700  1
  C  C150  1  0.90739900  0.05759000  0.06401900  1
  C  C151  1  0.06252200  0.07868800  0.86799900  1
  C  C152  1  0.06188900  0.14043500  0.85339600  1
  C  C153  1  0.09075400  0.17960400  0.90636700  1
  C  C154  1  0.12069900  0.15710800  0.97390400  1
  C  C155  1  0.12186700  0.09539900  0.98828500  1
  C  C156  1  0.09293500  0.05614700  0.93549500  1
  C  C157  1  0.43737900  0.57996200  0.13193300  1
  C  C158  1  0.43760800  0.64155500  0.14685800  1
  C  C159  1  0.40879200  0.68074000  0.09383700  1
  C  C160  1  0.37931400  0.65842600  0.02589000  1
  C  C161  1  0.37854300  0.59686500  0.01114700  1
  C  C162  1  0.40739900  0.55759000  0.06401900  1
  C  C163  1  0.56252200  0.57868800  0.86799900  1
  C  C164  1  0.56188900  0.64043500  0.85339600  1
  C  C165  1  0.59075400  0.67960400  0.90636700  1
  C  C166  1  0.62069900  0.65710800  0.97390400  1
  C  C167  1  0.62186700  0.59539900  0.98828500  1
  C  C168  1  0.59293500  0.55614700  0.93549500  1
  Cl  Cl1  1  0.30279100  0.77466300  0.16561100  1
  Cl  Cl2  1  0.69649100  0.77404500  0.83338600  1
  Cl  Cl3  1  0.80279100  0.27466300  0.16561100  1
  Cl  Cl4  1  0.19649100  0.27404500  0.83338600  1
  Cl  Cl5  1  0.90952500  0.25884400  0.11298600  1
  Cl  Cl6  1  0.08951600  0.25790300  0.88765100  1
  Cl  Cl7  1  0.40952500  0.75884400  0.11298600  1
  Cl  Cl8  1  0.58951600  0.75790300  0.88765100  1
  O  O1  1  0.99571700  0.94794900  0.08696400  1
  O  O2  1  0.00266900  0.94549700  0.91086700  1
  O  O3  1  0.49571700  0.44794900  0.08696400  1
  O  O4  1  0.50266900  0.44549700  0.91086700  1
  O  O5  1  0.99686000  0.05382100  0.08865900  1
  O  O6  1  0.00509400  0.05128400  0.91377300  1
  O  O7  1  0.49686000  0.55382100  0.08865900  1
  O  O8  1  0.50509400  0.55128400  0.91377300  1
  O  O9  1  0.06240900  0.94796100  0.06198700  1
  O  O10  1  0.93764800  0.94532400  0.93509600  1
  O  O11  1  0.56240900  0.44796100  0.06198700  1
  O  O12  1  0.43764800  0.44532400  0.93509600  1
  O  O13  1  0.06248000  0.05383300  0.06584100  1
  O  O14  1  0.93775400  0.05123300  0.93725600  1
  O  O15  1  0.56248000  0.55383300  0.06584100  1
  O  O16  1  0.43775400  0.55123300  0.93725600  1
  O  O17  1  0.49946000  0.90835200  0.55388300  1
  O  O18  1  0.50074800  0.90872200  0.44909700  1
  O  O19  1  0.99946000  0.40835200  0.55388300  1
  O  O20  1  0.00074800  0.40872200  0.44909700  1
  O  O21  1  0.43675500  0.99921300  0.49020100  1
  O  O22  1  0.56337400  0.00216300  0.51010400  1
  O  O23  1  0.93675500  0.49921300  0.49020100  1
  O  O24  1  0.06337400  0.50216300  0.51010400  1
  O  O25  1  0.43848500  0.00037400  0.38587100  1
  O  O26  1  0.56164900  0.99784400  0.61437000  1
  O  O27  1  0.93848500  0.50037400  0.38587100  1
  O  O28  1  0.06164900  0.49784400  0.61437000  1
  O  O29  1  0.50058400  0.09113200  0.55227200  1
  O  O30  1  0.49947600  0.09149200  0.44524800  1
  O  O31  1  0.00058400  0.59113200  0.55227200  1
  O  O32  1  0.99947600  0.59149200  0.44524800  1
  O  O33  1  0.96298200  0.90822000  0.46610600  1
  O  O34  1  0.03542500  0.90864800  0.53176700  1
  O  O35  1  0.46298200  0.40822000  0.46610600  1
  O  O36  1  0.53542500  0.40864800  0.53176700  1
  O  O37  1  0.96289100  0.00045100  0.37554800  1
  O  O38  1  0.03700500  0.00247300  0.62417000  1
  O  O39  1  0.46289100  0.50045100  0.37554800  1
  O  O40  1  0.53700500  0.50247300  0.62417000  1
  O  O41  1  0.03530500  0.99967000  0.43986900  1
  O  O42  1  0.96469900  0.99666600  0.55992800  1
  O  O43  1  0.53530500  0.49967000  0.43986900  1
  O  O44  1  0.46469900  0.49666600  0.55992800  1
  O  O45  1  0.96465800  0.09092300  0.47151400  1
  O  O46  1  0.03683600  0.09137000  0.53016700  1
  O  O47  1  0.46465800  0.59092300  0.47151400  1
  O  O48  1  0.53683600  0.59137000  0.53016700  1
