# generated using pymatgen
data_CuH9C21NO6
_symmetry_space_group_name_H-M   'P 1'
_cell_length_a   14.61600400
_cell_length_b   15.87898800
_cell_length_c   16.03887600
_cell_angle_alpha   89.99241200
_cell_angle_beta   90.00913500
_cell_angle_gamma   72.58404300
_symmetry_Int_Tables_number   1
_chemical_formula_structural   CuH9C21NO6
_chemical_formula_sum   'Cu2 H18 C42 N2 O12'
_cell_volume   3551.77327113
_cell_formula_units_Z   2
loop_
 _symmetry_equiv_pos_site_id
 _symmetry_equiv_pos_as_xyz
  1  'x, y, z'
loop_
 _atom_site_type_symbol
 _atom_site_label
 _atom_site_symmetry_multiplicity
 _atom_site_fract_x
 _atom_site_fract_y
 _atom_site_fract_z
 _atom_site_occupancy
  Cu  Cu1  1  0.59145800  0.50017600  0.50375900  1
  Cu  Cu2  1  0.40854000  0.49982700  0.50375900  1
  H  H1  1  0.75216400  0.92336300  0.47504500  1
  H  H2  1  0.24783600  0.07664800  0.47495100  1
  H  H3  1  0.55166600  0.77525200  0.50952800  1
  H  H4  1  0.44833200  0.22474700  0.50952000  1
  H  H5  1  0.26337300  0.77605100  0.49973400  1
  H  H6  1  0.73662400  0.22395600  0.49979700  1
  H  H7  1  0.64477600  0.84299900  0.47579300  1
  H  H8  1  0.35522600  0.15701100  0.47572100  1
  H  H9  1  0.64574300  0.49993700  0.08051900  1
  H  H10  1  0.35425500  0.50006700  0.92703400  1
  H  H11  1  0.64578100  0.49992600  0.92712900  1
  H  H12  1  0.35421700  0.50007800  0.08042400  1
  H  H13  1  0.05014700  0.60557000  0.59118700  1
  H  H14  1  0.94985400  0.39442400  0.41629800  1
  H  H15  1  0.88167200  0.60605300  0.59116000  1
  H  H16  1  0.11833100  0.39393800  0.41632900  1
  H  H17  1  0.92877500  0.96435300  0.55458000  1
  H  H18  1  0.07124000  0.03564700  0.55446800  1
  C  C1  1  0.49996500  0.50001400  0.34376500  1
  C  C2  1  0.50003400  0.49998900  0.66378500  1
  C  C3  1  0.55598000  0.33016000  0.50318200  1
  C  C4  1  0.44401800  0.66984300  0.50315800  1
  C  C5  1  0.58796100  0.23317400  0.50067700  1
  C  C6  1  0.41203600  0.76683000  0.50064600  1
  C  C7  1  0.71504400  0.09755200  0.49747100  1
  C  C8  1  0.28495500  0.90245500  0.49741000  1
  C  C9  1  0.68423000  0.18833900  0.49796400  1
  C  C10  1  0.31576700  0.81166800  0.49791200  1
  C  C11  1  0.52191900  0.18661500  0.50202100  1
  C  C12  1  0.47807900  0.81338700  0.50201000  1
  C  C13  1  0.55061200  0.09466200  0.49593500  1
  C  C14  1  0.44938700  0.90534300  0.49591900  1
  C  C15  1  0.64826200  0.05055400  0.49405900  1
  C  C16  1  0.35173800  0.94945300  0.49401200  1
  C  C17  1  0.48410000  0.04602200  0.49248100  1
  C  C18  1  0.51590000  0.95398400  0.49248900  1
  C  C19  1  0.61378600  0.91268800  0.48518200  1
  C  C20  1  0.38621500  0.08732000  0.48513300  1
  C  C21  1  0.67805100  0.96010100  0.48475400  1
  C  C22  1  0.32194900  0.03990800  0.48468900  1
  C  C23  1  0.58172500  0.49996000  0.96081800  1
  C  C24  1  0.41827300  0.50004500  0.04673400  1
  C  C25  1  0.50002000  0.49999600  0.91781500  1
  C  C26  1  0.49997800  0.50000900  0.08973700  1
  C  C27  1  0.41829400  0.50003800  0.96076500  1
  C  C28  1  0.58170300  0.49996600  0.04678700  1
  C  C29  1  0.50003900  0.49999100  0.82836300  1
  C  C30  1  0.49995900  0.50001300  0.17918900  1
  C  C31  1  0.49995400  0.50001500  0.25431100  1
  C  C32  1  0.50004400  0.49998900  0.75324000  1
  C  C33  1  0.93367300  0.55945600  0.55274500  1
  C  C34  1  0.06632800  0.44053800  0.45474000  1
  C  C35  1  0.90557700  0.50028000  0.50371300  1
  C  C36  1  0.09442300  0.49971600  0.50377100  1
  C  C37  1  0.97189900  0.44081900  0.45471500  1
  C  C38  1  0.02810200  0.55917600  0.55276900  1
  C  C39  1  0.80734400  0.50049300  0.50374000  1
  C  C40  1  0.19265600  0.49950600  0.50374700  1
  C  C41  1  0.81917200  0.05445700  0.50288600  1
  C  C42  1  0.18082800  0.94555200  0.50280200  1
  N  N1  1  0.27183600  0.49942800  0.50373500  1
  N  N2  1  0.72816300  0.50057500  0.50375900  1
  O  O1  1  0.57969700  0.49708700  0.38258600  1
  O  O2  1  0.42044600  0.50300600  0.62491000  1
  O  O3  1  0.42024600  0.50293600  0.38258500  1
  O  O4  1  0.57960700  0.49697700  0.62491100  1
  O  O5  1  0.62089700  0.37186400  0.50105500  1
  O  O6  1  0.37910000  0.62814000  0.50103500  1
  O  O7  1  0.46383700  0.37162500  0.50114100  1
  O  O8  1  0.53616000  0.62837900  0.50112300  1
  O  O9  1  0.87400500  0.08655600  0.46653400  1
  O  O10  1  0.85626600  0.98329400  0.55635900  1
  O  O11  1  0.12598500  0.91346100  0.46644700  1
  O  O12  1  0.14374900  0.01670600  0.55626000  1
