# generated using pymatgen
data_ZnH12C20N2O5
_symmetry_space_group_name_H-M   'P 1'
_cell_length_a   8.54263500
_cell_length_b   12.75787800
_cell_length_c   14.27453400
_cell_angle_alpha   90.57150500
_cell_angle_beta   90.54561400
_cell_angle_gamma   93.60327700
_symmetry_Int_Tables_number   1
_chemical_formula_structural   ZnH12C20N2O5
_chemical_formula_sum   'Zn2 H24 C40 N4 O10'
_cell_volume   1552.48987978
_cell_formula_units_Z   2
loop_
 _symmetry_equiv_pos_site_id
 _symmetry_equiv_pos_as_xyz
  1  'x, y, z'
loop_
 _atom_site_type_symbol
 _atom_site_label
 _atom_site_symmetry_multiplicity
 _atom_site_fract_x
 _atom_site_fract_y
 _atom_site_fract_z
 _atom_site_occupancy
  Zn  Zn1  1  0.48334800  0.48624100  0.10359600  1
  Zn  Zn2  1  0.48227000  0.51238700  0.89598000  1
  H  H1  1  0.26912300  0.84795700  0.99802900  1
  H  H2  1  0.69649500  0.15067100  0.00155100  1
  H  H3  1  0.76788000  0.85596000  0.99908200  1
  H  H4  1  0.19773800  0.14266900  0.00049900  1
  H  H5  1  0.98229000  0.57027100  0.04508100  1
  H  H6  1  0.98332800  0.42835600  0.95449400  1
  H  H7  1  0.72598600  0.42378100  0.45217500  1
  H  H8  1  0.23963500  0.57484800  0.54740000  1
  H  H9  1  0.70211100  0.61981800  0.54959900  1
  H  H10  1  0.26351100  0.37881100  0.44997700  1
  H  H11  1  0.39359300  0.32239800  0.69972300  1
  H  H12  1  0.60643200  0.34254500  0.70371800  1
  H  H13  1  0.54703300  0.13043400  0.55065300  1
  H  H14  1  0.56684000  0.94740500  0.59313200  1
  H  H15  1  0.54984700  0.89395300  0.75779800  1
  H  H16  1  0.51333700  0.02592200  0.88109400  1
  H  H17  1  0.49349300  0.21101900  0.83969000  1
  H  H18  1  0.35918800  0.65607500  0.29585500  1
  H  H19  1  0.57202900  0.67622100  0.29985000  1
  H  H20  1  0.41860600  0.86820100  0.44890500  1
  H  H21  1  0.39880300  0.05122600  0.40641100  1
  H  H22  1  0.41578100  0.10465900  0.24173900  1
  H  H23  1  0.45227400  0.97267500  0.11845300  1
  H  H24  1  0.47211300  0.78758300  0.15987300  1
  C  C1  1  0.13921500  0.70279100  0.02169400  1
  C  C2  1  0.82640200  0.29583700  0.97788300  1
  C  C3  1  0.15412500  0.80912600  0.00676200  1
  C  C4  1  0.81149300  0.18950200  0.99281700  1
  C  C5  1  0.02273500  0.86664700  0.00416900  1
  C  C6  1  0.94288300  0.13198100  0.99541100  1
  C  C7  1  0.87397700  0.81503600  0.00791900  1
  C  C8  1  0.09164100  0.18359300  0.99166000  1
  C  C9  1  0.86048200  0.70767900  0.02213500  1
  C  C10  1  0.10513600  0.29094900  0.97744200  1
  C  C11  1  0.99332000  0.65370400  0.03372200  1
  C  C12  1  0.97229700  0.34492400  0.96585400  1
  C  C13  1  0.27332000  0.63840900  0.01457100  1
  C  C14  1  0.69229800  0.36021900  0.98500500  1
  C  C15  1  0.25487700  0.35318300  0.98463900  1
  C  C16  1  0.71074100  0.64544500  0.01493800  1
  C  C17  1  0.60418500  0.56369800  0.52718600  1
  C  C18  1  0.36143700  0.43493200  0.47239000  1
  C  C19  1  0.61683800  0.45974700  0.47359700  1
  C  C20  1  0.34878300  0.53888300  0.52597900  1
  C  C21  1  0.47148800  0.58886300  0.46217500  1
  C  C22  1  0.49413300  0.40976700  0.53740100  1
  C  C23  1  0.48379800  0.48765800  0.40913600  1
  C  C24  1  0.48182300  0.51097100  0.59044000  1
  C  C25  1  0.48430800  0.47728900  0.30696400  1
  C  C26  1  0.48131100  0.52133800  0.69261200  1
  C  C27  1  0.50527100  0.29702500  0.67077000  1
  C  C28  1  0.51793600  0.18370900  0.69288100  1
  C  C29  1  0.53863600  0.10925800  0.62357800  1
  C  C30  1  0.55016000  0.00541900  0.64720600  1
  C  C31  1  0.54084800  0.97540000  0.73955300  1
  C  C32  1  0.52045700  0.04933900  0.80861000  1
  C  C33  1  0.50932500  0.15321000  0.78528000  1
  C  C34  1  0.46035000  0.70159600  0.32880000  1
  C  C35  1  0.44768600  0.81491000  0.30668000  1
  C  C36  1  0.42699600  0.88936900  0.37597800  1
  C  C37  1  0.41547500  0.99320600  0.35234200  1
  C  C38  1  0.42477900  0.02321400  0.25999200  1
  C  C39  1  0.44515900  0.94926600  0.19094000  1
  C  C40  1  0.45628900  0.84539800  0.21427800  1
  N  N1  1  0.04468100  0.97680900  0.99508100  1
  N  N2  1  0.92093800  0.02181900  0.00450100  1
  N  N3  1  0.48432300  0.47281100  0.22597300  1
  N  N4  1  0.48129500  0.52581600  0.77360400  1
  O  O1  1  0.32035700  0.61392400  0.93040100  1
  O  O2  1  0.64526100  0.38470400  0.06917500  1
  O  O3  1  0.32626000  0.59677200  0.09123800  1
  O  O4  1  0.63935800  0.40185600  0.90833900  1
  O  O5  1  0.30741600  0.37978900  0.06893500  1
  O  O6  1  0.65820200  0.61883900  0.93064100  1
  O  O7  1  0.31140900  0.39711300  0.90825100  1
  O  O8  1  0.65420900  0.60151500  0.09132500  1
  O  O9  1  0.50623800  0.31220900  0.57580000  1
  O  O10  1  0.45938400  0.68641900  0.42377200  1
