# Generated by REPEAT Assigner based on pymatgen
data_DB0-m3_o10_o19_f0_pcu.sym.41_sqe
_audit_creation_date              2022-05-24
_audit_creation_method            REPEAT_Assigner
_cell_length_a                    7.880751
_cell_length_b                    8.908730
_cell_length_c                    11.914413
_cell_angle_alpha                 89.995488
_cell_angle_beta                  83.823650
_cell_angle_gamma                 91.468852
_cell_volume                      831.349026
_symmetry_space_group_name_H-M    P1
_symmetry_Int_Tables_number       1
loop_
    _symmetry_equiv_pos_site_id
    _symmetry_equiv_pos_as_xyz
    1  x,y,z
loop_
    _atom_site_type_symbol
    _atom_site_label
    _atom_site_fract_x
    _atom_site_fract_y
    _atom_site_fract_z
    _atom_type_partial_charge
    O   O1   0.375654  0.714491  0.511067  -0.622745
    O   O2   0.608225  0.241996  0.496334  -0.598404
    O   O3   0.667752  0.687558  0.494088  -0.634704
    O   O4   0.315106  0.269017  0.516298  -0.661097
    C   C1   0.532233  0.770455  0.501739  0.676903
    C   C2   0.451264  0.186277  0.506855  0.767408
    O   O5   0.337360  0.493436  0.680720  -0.649319
    O   O6   0.646167  0.463925  0.327496  -0.644677
    O   O7   0.628841  0.461440  0.662993  -0.725062
    O   O8   0.353250  0.491354  0.345340  -0.505696
    C   C3   0.482117  0.477330  0.724064  0.982483
    C   C4   0.500704  0.477940  0.284293  0.737677
    Zn  Zn1  0.298549  0.495586  0.515294  0.948229
    Zn  Zn2  0.684756  0.461017  0.492965  1.018510
    C   C5   0.481986  0.477393  0.844539  -0.363055
    C   C6   0.500747  0.477380  0.163824  -0.164145
    C   C7   0.487181  0.477316  0.945270  0.148655
    C   C8   0.495516  0.477249  0.063096  -0.010225
    C   C9   0.558379  0.933590  0.500151  -0.120178
    C   C10  0.425523  0.023176  0.508575  -0.305401
    H   H1   0.687021  0.981335  0.492062  0.111761
    H   H2   0.297140  0.975345  0.516822  0.196372
    N   N1   0.938734  0.440170  0.480159  -0.072695
    N   N2   0.044909  0.517452  0.528392  0.057331
    C   C11  0.009058  0.365165  0.379540  0.058903
    C   C12  0.064528  0.478690  0.290501  0.027753
    C   C13  0.130735  0.434612  0.188909  -0.505903
    H   H3   0.908664  0.291144  0.348869  0.074098
    H   H4   0.116901  0.295650  0.396144  0.091800
    H   H5   0.050910  0.597297  0.308533  0.079795
    H   H6   0.144359  0.316008  0.170869  0.188213
    H   H7   0.171117  0.517260  0.124078  0.193741
    C   C14  0.979010  0.629299  0.607281  0.005249
    C   C15  0.026860  0.781435  0.560759  0.019110
    C   C16  0.981513  0.902563  0.620697  -0.356755
    H   H8   0.034318  0.614442  0.688182  0.077422
    H   H9   0.841002  0.621594  0.623445  0.135605
    H   H10  0.094748  0.793306  0.477045  0.072807
    H   H11  0.911787  0.890222  0.703841  0.147111
    H   H12  0.013061  0.013679  0.586330  0.123124
