# generated using pymatgen
data_ZnH7C23NO4F5
_symmetry_space_group_name_H-M   'P 1'
_cell_length_a   17.83347500
_cell_length_b   16.59821000
_cell_length_c   15.03915400
_cell_angle_alpha   90.00000000
_cell_angle_beta   90.01055700
_cell_angle_gamma   90.00000000
_symmetry_Int_Tables_number   1
_chemical_formula_structural   ZnH7C23NO4F5
_chemical_formula_sum   'Zn2 H14 C46 N2 O8 F10'
_cell_volume   4451.64610197
_cell_formula_units_Z   2
loop_
 _symmetry_equiv_pos_site_id
 _symmetry_equiv_pos_as_xyz
  1  'x, y, z'
loop_
 _atom_site_type_symbol
 _atom_site_label
 _atom_site_symmetry_multiplicity
 _atom_site_fract_x
 _atom_site_fract_y
 _atom_site_fract_z
 _atom_site_occupancy
  Zn  Zn1  1  0.50000000  0.59156100  0.50000000  1
  Zn  Zn2  1  0.50000000  0.40843900  0.50000000  1
  H  H1  1  0.61903600  0.50000000  0.78001000  1
  H  H2  1  0.38096400  0.50000000  0.21999000  1
  H  H3  1  0.38099000  0.50000000  0.77933700  1
  H  H4  1  0.61901000  0.50000000  0.22066200  1
  H  H5  1  0.31356800  0.50000000  0.08183500  1
  H  H6  1  0.68643200  0.50000000  0.91816500  1
  H  H7  1  0.87755400  0.62798400  0.50005100  1
  H  H8  1  0.12244600  0.37201600  0.49994900  1
  H  H9  1  0.12244600  0.62798400  0.49994900  1
  H  H10  1  0.87755400  0.37201600  0.50005100  1
  H  H11  1  0.41595000  0.86747800  0.39959300  1
  H  H12  1  0.58405000  0.13252100  0.60040700  1
  H  H13  1  0.58405000  0.86747800  0.60040700  1
  H  H14  1  0.41595000  0.13252100  0.39959300  1
  C  C1  1  0.35279000  0.50000000  0.49990800  1
  C  C2  1  0.64721000  0.50000000  0.50009200  1
  C  C3  1  0.50010200  0.50000000  0.32621500  1
  C  C4  1  0.49989800  0.50000000  0.67378500  1
  C  C5  1  0.56677500  0.50000000  0.81640600  1
  C  C6  1  0.43322500  0.50000000  0.18359400  1
  C  C7  1  0.49987300  0.50000000  0.77067500  1
  C  C8  1  0.50012700  0.50000000  0.22932500  1
  C  C9  1  0.43292300  0.50000000  0.81635700  1
  C  C10  1  0.56707700  0.50000000  0.18364300  1
  C  C11  1  0.43276100  0.50000000  0.90824900  1
  C  C12  1  0.56724000  0.50000000  0.09175100  1
  C  C13  1  0.49988300  0.50000000  0.95409500  1
  C  C14  1  0.50011700  0.50000000  0.04590500  1
  C  C15  1  0.56682600  0.50000000  0.90811900  1
  C  C16  1  0.43317400  0.50000000  0.09188100  1
  C  C17  1  0.36583300  0.50000000  0.95453100  1
  C  C18  1  0.63416700  0.50000000  0.04546900  1
  C  C19  1  0.36616300  0.50000000  0.04613000  1
  C  C20  1  0.63383800  0.50000000  0.95387000  1
  C  C21  1  0.84713100  0.57166000  0.50007400  1
  C  C22  1  0.15286900  0.42834000  0.49992600  1
  C  C23  1  0.15286900  0.57166000  0.49992600  1
  C  C24  1  0.84713100  0.42834000  0.50007400  1
  C  C25  1  0.76981900  0.57212700  0.50008800  1
  C  C26  1  0.23018100  0.42787300  0.49991200  1
  C  C27  1  0.23018100  0.57212700  0.49991200  1
  C  C28  1  0.76981900  0.42787300  0.50008800  1
  C  C29  1  0.73005500  0.50000000  0.50010400  1
  C  C30  1  0.26994500  0.50000000  0.49989600  1
  C  C31  1  0.88577600  0.50000000  0.50006800  1
  C  C32  1  0.11422400  0.50000000  0.49993200  1
  C  C33  1  0.96622200  0.50000000  0.50002100  1
  C  C34  1  0.03377800  0.50000000  0.49997900  1
  C  C35  1  0.45311200  0.83540200  0.44399300  1
  C  C36  1  0.54688800  0.16459800  0.55600700  1
  C  C37  1  0.54688800  0.83540200  0.55600700  1
  C  C38  1  0.45311200  0.16459800  0.44399300  1
  C  C39  1  0.45374000  0.75233400  0.44473300  1
  C  C40  1  0.54626000  0.24766600  0.55526700  1
  C  C41  1  0.54626000  0.75233400  0.55526700  1
  C  C42  1  0.45374000  0.24766600  0.44473300  1
  C  C43  1  0.50000000  0.87727400  0.50000000  1
  C  C44  1  0.50000000  0.12272500  0.50000000  1
  C  C45  1  0.50000000  0.96370800  0.50000000  1
  C  C46  1  0.50000000  0.03629200  0.50000000  1
  N  N1  1  0.50000000  0.71204900  0.50000000  1
  N  N2  1  0.50000000  0.28795100  0.50000000  1
  O  O1  1  0.38828700  0.56932100  0.49993000  1
  O  O2  1  0.61171300  0.43067900  0.50007000  1
  O  O3  1  0.61171300  0.56932100  0.50007000  1
  O  O4  1  0.38828700  0.43067900  0.49993000  1
  O  O5  1  0.50008200  0.56950100  0.36751100  1
  O  O6  1  0.49991800  0.43049900  0.63248800  1
  O  O7  1  0.49991800  0.56950100  0.63248800  1
  O  O8  1  0.50008200  0.43049900  0.36751100  1
  F  F1  1  0.29945100  0.50000000  0.91063200  1
  F  F2  1  0.70054900  0.50000000  0.08936800  1
  F  F3  1  0.73439200  0.64436500  0.50003900  1
  F  F4  1  0.26560800  0.35563500  0.49996100  1
  F  F5  1  0.26560800  0.64436500  0.49996100  1
  F  F6  1  0.73439200  0.35563500  0.50003900  1
  F  F7  1  0.40748700  0.71134500  0.38941400  1
  F  F8  1  0.59251300  0.28865500  0.61058600  1
  F  F9  1  0.59251300  0.71134500  0.61058600  1
  F  F10  1  0.40748700  0.28865500  0.38941400  1
