# generated using pymatgen
data_ZnH11C17N3O4
_symmetry_space_group_name_H-M   'P 1'
_cell_length_a   12.08432500
_cell_length_b   8.55534100
_cell_length_c   14.97073700
_cell_angle_alpha   90.00000000
_cell_angle_beta   109.54668200
_cell_angle_gamma   90.00000000
_symmetry_Int_Tables_number   1
_chemical_formula_structural   ZnH11C17N3O4
_chemical_formula_sum   'Zn2 H22 C34 N6 O8'
_cell_volume   1458.55895832
_cell_formula_units_Z   2
loop_
 _symmetry_equiv_pos_site_id
 _symmetry_equiv_pos_as_xyz
  1  'x, y, z'
loop_
 _atom_site_type_symbol
 _atom_site_label
 _atom_site_symmetry_multiplicity
 _atom_site_fract_x
 _atom_site_fract_y
 _atom_site_fract_z
 _atom_site_occupancy
  Zn  Zn1  1  0.87620800  0.53617000  0.47994600  1
  Zn  Zn2  1  0.13816700  0.53455200  0.53660100  1
  H  H1  1  0.06281500  0.03642700  0.58605900  1
  H  H2  1  0.98533300  0.28536200  0.80230700  1
  H  H3  1  0.99132300  0.78421200  0.80384500  1
  H  H4  1  0.00660000  0.28636300  0.20614200  1
  H  H5  1  0.00986500  0.78447100  0.20685800  1
  H  H6  1  0.96806500  0.03460500  0.43732700  1
  H  H7  1  0.69996400  0.53570400  0.73900200  1
  H  H8  1  0.52817200  0.52992500  0.76950700  1
  H  H9  1  0.29274600  0.54063200  0.43432100  1
  H  H10  1  0.71666100  0.53791600  0.30378100  1
  H  H11  1  0.38590100  0.53859700  0.34022400  1
  H  H12  1  0.50286500  0.53912300  0.23852200  1
  H  H13  1  0.80704200  0.53799000  0.63663800  1
  H  H14  1  0.21763300  0.53627700  0.73266400  1
  H  H15  1  0.35635600  0.60286100  0.80181600  1
  H  H16  1  0.43575600  0.33457800  0.82149300  1
  H  H17  1  0.29877400  0.26101200  0.74185100  1
  H  H18  1  0.19698100  0.35911000  0.85115600  1
  H  H19  1  0.33541100  0.43261900  0.93022900  1
  H  H20  1  0.27923200  0.09003200  0.86994900  1
  H  H21  1  0.28724500  0.17441100  0.98269700  1
  H  H22  1  0.41776700  0.16371500  0.94942400  1
  C  C1  1  0.02044800  0.17471300  0.68733800  1
  C  C2  1  0.02290100  0.89640000  0.68782500  1
  C  C3  1  0.99777900  0.17522200  0.77164100  1
  C  C4  1  0.00101700  0.89487800  0.77246500  1
  C  C5  1  0.99550000  0.03496300  0.81742100  1
  C  C6  1  0.04097100  0.03593000  0.64991900  1
  C  C7  1  0.00071500  0.03530100  0.09497700  1
  C  C8  1  0.99134900  0.03495100  0.91402800  1
  C  C9  1  0.00178600  0.17581000  0.23955200  1
  C  C10  1  0.00385800  0.89486800  0.23999900  1
  C  C11  1  0.99169100  0.17480300  0.32859200  1
  C  C12  1  0.99391100  0.89548000  0.32904600  1
  C  C13  1  0.98125400  0.03491800  0.36992800  1
  C  C14  1  0.00257800  0.03536700  0.19328200  1
  C  C15  1  0.01806400  0.75525200  0.63201800  1
  C  C16  1  0.01588100  0.31624700  0.63197000  1
  C  C17  1  0.99894800  0.75256800  0.38377400  1
  C  C18  1  0.99690200  0.31752500  0.38362000  1
  C  C19  1  0.47714000  0.53061600  0.69490500  1
  C  C20  1  0.66652100  0.53820000  0.35150000  1
  C  C21  1  0.54592800  0.53887100  0.31450200  1
  C  C22  1  0.47969100  0.53874600  0.37337400  1
  C  C23  1  0.53484500  0.53825600  0.47080600  1
  C  C24  1  0.65823800  0.53803400  0.50580100  1
  C  C25  1  0.47089100  0.53690400  0.53450800  1
  C  C26  1  0.53322600  0.53530100  0.63007000  1
  C  C27  1  0.65280300  0.53674500  0.66360700  1
  C  C28  1  0.71466000  0.53790100  0.60290200  1
  C  C29  1  0.34745600  0.53722100  0.50752900  1
  C  C30  1  0.35771900  0.52588600  0.66741500  1
  C  C31  1  0.31090900  0.51351900  0.74846500  1
  C  C32  1  0.33952900  0.35325800  0.79453800  1
  C  C33  1  0.29338900  0.34162300  0.87690900  1
  C  C34  1  0.32134600  0.18184800  0.92265100  1
  N  N1  1  0.99512400  0.89910200  0.96018200  1
  N  N2  1  0.99248900  0.17097600  0.95939900  1
  N  N3  1  0.99919600  0.89927300  0.04951600  1
  N  N4  1  0.99657100  0.17114800  0.04873800  1
  N  N5  1  0.29240800  0.53286000  0.57332000  1
  N  N6  1  0.72210100  0.53771300  0.44586300  1
  O  O1  1  0.11512700  0.70545100  0.62146000  1
  O  O2  1  0.11310400  0.36508300  0.62141300  1
  O  O3  1  0.91465700  0.70078600  0.58221200  1
  O  O4  1  0.91278800  0.37152400  0.58214100  1
  O  O5  1  0.90030600  0.70364200  0.39355600  1
  O  O6  1  0.89847300  0.36762600  0.39338600  1
  O  O7  1  0.10347600  0.69728800  0.43343600  1
  O  O8  1  0.10164700  0.37176700  0.43340000  1
