# Generated by REPEAT Assigner based on pymatgen
data_DB0-m29_o90_o151_f0_pts.sym.30
_audit_creation_date              2022-05-24
_audit_creation_method            REPEAT_Assigner
_cell_length_a                    9.401595
_cell_length_b                    16.499133
_cell_length_c                    24.253698
_cell_angle_alpha                 101.027187
_cell_angle_beta                  84.672001
_cell_angle_gamma                 76.323485
_cell_volume                      3550.216763
_symmetry_space_group_name_H-M    P1
_symmetry_Int_Tables_number       1
loop_
    _symmetry_equiv_pos_site_id
    _symmetry_equiv_pos_as_xyz
    1  x,y,z
loop_
    _atom_site_type_symbol
    _atom_site_label
    _atom_site_fract_x
    _atom_site_fract_y
    _atom_site_fract_z
    _atom_type_partial_charge
    H   H1   0.993760  0.984370  0.534160  0.161303
    C   C1   0.134730  0.982098  0.598591  0.090094
    C   C2   0.143380  0.980827  0.655063  -0.174127
    H   H2   0.247184  0.979418  0.671062  0.154374
    C   C3   0.020352  0.979582  0.690809  0.106559
    C   C4   0.889961  0.977282  0.669147  -0.218704
    H   H3   0.792344  0.977226  0.696383  0.158222
    C   C5   0.880441  0.980172  0.613189  0.129597
    C   C6   0.001880  0.983826  0.578224  -0.212195
    C   C7   0.917263  0.045577  0.967117  -0.176425
    H   H4   0.830526  0.091223  0.954548  0.115360
    C   C8   0.918002  0.043410  0.023599  -0.078459
    H   H5   0.833156  0.089073  0.055035  0.111693
    C   C9   0.028764  0.985513  0.040176  0.057203
    C   C10  0.137932  0.927467  0.999074  -0.147796
    C   C11  0.138102  0.931948  0.942733  -0.142809
    H   H6   0.221173  0.887352  0.910116  0.131505
    C   C12  0.028896  0.990873  0.926847  0.103994
    C   C13  0.160739  0.997368  0.123309  -0.192892
    H   H7   0.256022  0.000941  0.096223  0.156854
    C   C14  0.168937  0.996516  0.179586  0.136462
    C   C15  0.047232  0.992916  0.214419  -0.240342
    H   H8   0.054273  0.994074  0.258747  0.162782
    C   C16  0.915299  0.992968  0.193621  0.112216
    C   C17  0.908639  0.991084  0.136645  -0.169315
    H   H9   0.807566  0.987932  0.119469  0.142511
    C   C18  0.032927  0.990585  0.101046  0.042002
    C   C19  0.104669  0.038734  0.839378  -0.198253
    C   C20  0.102927  0.033170  0.781681  -0.048550
    H   H10  0.157347  0.071632  0.760223  0.125004
    C   C21  0.026589  0.981914  0.751465  0.009656
    C   C22  0.952220  0.935138  0.779269  -0.096920
    H   H11  0.894678  0.892954  0.756551  0.119959
    C   C23  0.953311  0.940158  0.836465  -0.157576
    H   H12  0.895986  0.902623  0.857740  0.114171
    C   C24  0.027943  0.991728  0.866843  0.120193
    O   O1   0.654809  0.001354  0.215155  -0.425367
    C   C25  0.784712  0.994449  0.232287  0.445790
    O   O2   0.672358  0.833271  0.239664  -0.499424
    O   O3   0.797029  0.989230  0.285025  -0.405915
    O   O4   0.558825  0.911495  0.326183  -0.415756
    C   C26  0.644407  0.839701  0.294568  0.459917
    Fe  Fe1  0.511087  0.996625  0.278684  1.394716
    O   O5   0.339257  0.965056  0.245077  -0.570322
    O   O6   0.385703  0.048781  0.184566  -0.522788
    C   C27  0.304490  0.002271  0.203095  0.576335
    O   O7   0.482214  0.112345  0.329378  -0.586645
    O   O8   0.324135  0.058985  0.379556  -0.476773
    C   C28  0.385747  0.121211  0.374358  0.607735
    C   C29  0.334426  0.203153  0.415464  -0.018430
    C   C30  0.265200  0.273895  0.396056  0.079987
    H   H13  0.258425  0.266561  0.351225  0.044566
    C   C31  0.196403  0.350722  0.433634  -0.432580
    C   C32  0.204631  0.357477  0.490774  0.117250
    H   H14  0.153405  0.416615  0.521291  0.045787
    C   C33  0.275628  0.287806  0.510276  -0.167608
    H   H15  0.278555  0.295345  0.555358  0.149648
    C   C34  0.338905  0.209661  0.473360  0.080976
    N   N1   0.037297  0.496095  0.451188  -0.259689
    N   N2   0.954876  0.560422  0.433759  -0.235533
    C   C35  0.940973  0.553179  0.378445  0.785763
    N   N3   0.012348  0.480122  0.341029  -0.260412
    N   N4   0.094777  0.415795  0.358457  -0.238406
    C   C36  0.108692  0.423044  0.413772  0.788617
    C   C37  0.844635  0.618712  0.301479  0.119256
    H   H16  0.895493  0.559509  0.270975  0.044192
    C   C38  0.773580  0.688389  0.281990  -0.186311
    H   H17  0.770242  0.680790  0.236929  0.155526
    C   C39  0.710716  0.766604  0.318889  0.093202
    C   C40  0.715768  0.773193  0.376761  -0.019744
    C   C41  0.784972  0.702438  0.396160  0.085167
    H   H18  0.792075  0.709815  0.440969  0.043590
    C   C42  0.853304  0.625528  0.358594  -0.433486
    O   O9   0.710180  0.011692  0.547536  -0.555989
    O   O10  0.661915  0.929609  0.608904  -0.487977
    C   C43  0.743841  0.975527  0.590069  0.548867
    O   O11  0.568526  0.863937  0.462937  -0.588154
    O   O12  0.725923  0.917459  0.412543  -0.479671
    C   C44  0.664634  0.855150  0.417868  0.606231
    O   O13  0.376542  0.142861  0.552561  -0.489645
    O   O14  0.394863  0.974689  0.577075  -0.446024
    C   C45  0.265020  0.981118  0.559909  0.472413
    O   O15  0.491039  0.064846  0.466118  -0.417756
    C   C46  0.405017  0.136537  0.497688  0.469913
    O   O16  0.252378  0.986671  0.507245  -0.411967
    Fe  Fe2  0.538764  0.979794  0.513672  1.396667
    C   C47  0.187651  0.094991  0.869311  0.638565
    O   O17  0.268659  0.125297  0.841837  -0.537197
    O   O18  0.173154  0.115188  0.926458  -0.293781
    C   C48  0.248431  0.168757  0.953840  0.320850
    C   C49  0.210250  0.180212  0.017358  -0.305705
    H   H19  0.216091  0.232041  0.942602  -0.003614
    H   H20  0.369303  0.140677  0.941407  -0.010223
    H   H21  0.089497  0.208238  0.030066  0.072790
    H   H22  0.270864  0.223576  0.039599  0.079631
    H   H23  0.242444  0.117202  0.028921  0.092032
    C   C50  0.249819  0.857991  0.012814  0.694650
    O   O19  0.366208  0.826350  0.980883  -0.553536
    O   O20  0.220666  0.824758  0.057950  -0.376282
    C   C51  0.322497  0.758080  0.069732  0.422208
    C   C52  0.260534  0.734657  0.122629  -0.372198
    H   H24  0.425796  0.777248  0.077087  -0.030158
    H   H25  0.346538  0.701782  0.033708  -0.020635
    H   H26  0.236379  0.790632  0.158854  0.124176
    H   H27  0.342672  0.680720  0.132222  0.078526
    H   H28  0.157182  0.715443  0.115559  0.092813
