# Generated by REPEAT Assigner based on pymatgen
data_DB0-m2_o17_o78_f0_fsc
_audit_creation_date              2022-05-24
_audit_creation_method            REPEAT_Assigner
_cell_length_a                    6.769157
_cell_length_b                    13.290639
_cell_length_c                    13.294428
_cell_angle_alpha                 90.000000
_cell_angle_beta                  90.000000
_cell_angle_gamma                 90.000000
_cell_volume                      1196.052118
_symmetry_space_group_name_H-M    P1
_symmetry_Int_Tables_number       1
loop_
    _symmetry_equiv_pos_site_id
    _symmetry_equiv_pos_as_xyz
    1  x,y,z
loop_
    _atom_site_type_symbol
    _atom_site_label
    _atom_site_fract_x
    _atom_site_fract_y
    _atom_site_fract_z
    _atom_type_partial_charge
    O   O1   0.799170  0.090279  0.895529  -0.655737
    O   O2   0.778599  0.080587  0.103032  -0.688613
    O   O3   0.799170  0.909721  0.104471  -0.655762
    O   O4   0.778599  0.919413  0.896968  -0.688578
    C   C1   0.715686  0.007496  0.864063  0.800324
    C   C2   0.715686  0.992504  0.135937  0.800357
    O   O5   0.205885  0.084698  0.901395  -0.670909
    O   O6   0.188376  0.086170  0.108330  -0.673890
    O   O7   0.205885  0.915301  0.098605  -0.670814
    O   O8   0.188376  0.913830  0.891670  -0.673949
    C   C3   0.268709  0.998707  0.863285  0.840227
    C   C4   0.268709  0.001293  0.136715  0.840096
    Cu  Cu1  0.992203  0.099503  0.002422  0.948342
    Cu  Cu2  0.992203  0.900497  0.997578  0.948328
    C   C5   0.993041  0.293467  0.090879  -0.204138
    C   C6   0.993024  0.291495  0.914558  -0.242379
    C   C7   0.993040  0.706533  0.909121  -0.204153
    C   C8   0.993024  0.708505  0.085442  -0.242367
    N   N1   0.992927  0.242434  0.003279  0.140527
    N   N2   0.992927  0.757566  0.996721  0.140551
    C   C9   0.993188  0.395188  0.912028  0.197908
    C   C10  0.993201  0.397317  0.090739  0.169133
    C   C11  0.993188  0.604812  0.087972  0.197868
    C   C12  0.993201  0.602683  0.909261  0.169110
    C   C13  0.993265  0.448255  0.000698  -0.004821
    C   C14  0.993265  0.551745  0.999302  -0.004779
    C   C15  0.993175  0.445806  0.821386  -0.208764
    C   C16  0.993189  0.450292  0.180014  -0.195275
    C   C17  0.993175  0.554194  0.178614  -0.208740
    C   C18  0.993189  0.549708  0.819986  -0.195259
    H   H1   0.992929  0.253001  0.161413  0.148717
    H   H2   0.992898  0.249353  0.845012  0.170970
    H   H3   0.992928  0.747000  0.838587  0.148728
    H   H4   0.992898  0.750647  0.154988  0.170978
    H   H5   0.993071  0.404145  0.751547  0.136555
    H   H6   0.993101  0.410536  0.250950  0.137755
    H   H7   0.993071  0.595855  0.248453  0.136547
    H   H8   0.993101  0.589464  0.749050  0.137750
    C   C19  0.593884  0.013740  0.773460  -0.073188
    C   C20  0.593884  0.986260  0.226540  -0.073143
    C   C21  0.687332  0.042083  0.685898  -0.161758
    C   C22  0.687332  0.957917  0.314101  -0.161771
    C   C23  0.589068  0.039422  0.595143  -0.166573
    C   C24  0.589068  0.960578  0.404857  -0.166596
    C   C25  0.390998  0.998991  0.772100  -0.213425
    C   C26  0.390998  0.001009  0.227900  -0.213405
    C   C27  0.295123  0.993349  0.680371  0.172387
    C   C28  0.295123  0.006651  0.319629  0.172360
    C   C29  0.396998  0.006462  0.591273  0.139200
    C   C30  0.396998  0.993538  0.408727  0.139207
    C   C31  0.298802  0.000000  0.500000  -0.206240
    C   C32  0.094985  0.975836  0.677894  -0.271258
    C   C33  0.094985  0.024164  0.322106  -0.271216
    C   C34  0.995945  0.980874  0.587641  -0.284856
    C   C35  0.995945  0.019126  0.412359  -0.284873
    C   C36  0.096801  0.000000  0.500000  0.311344
    H   H9   0.839718  0.066392  0.688950  0.157297
    H   H10  0.839719  0.933608  0.311050  0.157300
    H   H11  0.661457  0.066742  0.528147  0.096999
    H   H12  0.661457  0.933258  0.471853  0.096997
    H   H13  0.015218  0.961337  0.746840  0.232409
    H   H14  0.015218  0.038663  0.253160  0.232388
    H   H15  0.841358  0.963884  0.584114  0.174288
    H   H16  0.841358  0.036116  0.415886  0.174284
