# Generated by REPEAT Assigner based on pymatgen
data_DB0-m29_o97_o42_f0_pts.sym.14
_audit_creation_date              2022-05-24
_audit_creation_method            REPEAT_Assigner
_cell_length_a                    17.752747
_cell_length_b                    9.391565
_cell_length_c                    15.102711
_cell_angle_alpha                 87.567565
_cell_angle_beta                  79.593274
_cell_angle_gamma                 106.317542
_cell_volume                      2365.223916
_symmetry_space_group_name_H-M    P1
_symmetry_Int_Tables_number       1
loop_
    _symmetry_equiv_pos_site_id
    _symmetry_equiv_pos_as_xyz
    1  x,y,z
loop_
    _atom_site_type_symbol
    _atom_site_label
    _atom_site_fract_x
    _atom_site_fract_y
    _atom_site_fract_z
    _atom_type_partial_charge
    C   C1   0.222585  0.020847  0.157926  -0.259894
    C   C2   0.093356  0.053381  0.195498  -0.181502
    C   C3   0.283597  0.996341  0.096177  0.017894
    C   C4   0.273235  0.972530  0.008362  -0.027054
    C   C5   0.151553  0.021538  0.133750  0.230089
    C   C6   0.138144  0.987995  0.049090  0.002383
    C   C7   0.197650  0.955611  0.988106  0.060169
    C   C8   0.179583  0.901948  0.908580  -0.103107
    C   C9   0.022858  0.058006  0.172205  -0.172744
    C   C10  0.008965  0.030561  0.085728  0.062483
    C   C11  0.065923  0.988775  0.025295  0.012665
    C   C12  0.051221  0.947905  0.941353  0.047832
    C   C13  0.107647  0.896948  0.885859  -0.136209
    C   C14  0.884285  0.097518  0.113403  -0.124552
    C   C15  0.938459  0.039264  0.059820  0.039723
    C   C16  0.922928  0.995680  0.976751  0.025361
    C   C17  0.979518  0.952395  0.916480  0.057352
    C   C18  0.963686  0.918601  0.831439  -0.172573
    C   C19  0.812442  0.094263  0.090841  -0.117996
    C   C20  0.791928  0.032954  0.013991  0.106194
    C   C21  0.850183  0.995111  0.953828  -0.029940
    C   C22  0.835093  0.954850  0.870859  0.260849
    C   C23  0.715448  0.013825  0.995199  -0.106428
    C   C24  0.703281  0.980255  0.908934  0.090696
    C   C25  0.892209  0.919435  0.809546  -0.190663
    C   C26  0.763311  0.951792  0.847820  -0.302153
    H   H1   0.232267  0.046327  0.224850  0.151372
    H   H2   0.102675  0.075677  0.262951  0.147982
    H   H3   0.219073  0.855275  0.864046  0.126684
    H   H4   0.979486  0.078831  0.225589  0.149010
    H   H5   0.098581  0.848877  0.824007  0.127992
    H   H6   0.896068  0.151764  0.172811  0.122465
    H   H7   0.005383  0.893156  0.778227  0.147471
    H   H8   0.774975  0.147557  0.133210  0.130762
    H   H9   0.881291  0.891393  0.743399  0.149270
    H   H10  0.752301  0.920650  0.782193  0.155795
    O   O1   0.577814  0.013806  0.052268  -0.534736
    C   C27  0.646408  0.005379  0.069260  0.623186
    O   O2   0.521951  0.705679  0.148564  -0.490931
    O   O3   0.649386  0.968772  0.153100  -0.524933
    O   O4   0.491433  0.833726  0.266959  -0.548131
    C   C28  0.508756  0.715569  0.236108  0.606328
    Fe  Fe1  0.498174  0.982625  0.166710  1.469651
    O   O5   0.389486  0.905789  0.136024  -0.647479
    O   O6   0.402081  0.153898  0.134086  -0.542075
    C   C29  0.361045  0.018680  0.122701  0.734440
    O   O7   0.530524  0.183968  0.212199  -0.628979
    O   O8   0.431613  0.064391  0.331839  -0.508829
    C   C30  0.484302  0.186981  0.289848  0.588620
    O   O9   0.455339  0.783360  0.796166  -0.615532
    O   O10  0.519762  0.898966  0.656462  -0.462942
    C   C31  0.481783  0.776689  0.710117  0.546932
    O   O11  0.596755  0.066869  0.868465  -0.638704
    O   O12  0.586736  0.820116  0.868364  -0.516961
    C   C32  0.625691  0.955192  0.882607  0.668034
    O   O13  0.343760  0.038480  0.852896  -0.487752
    O   O14  0.495361  0.132890  0.735127  -0.534003
    C   C33  0.498981  0.266173  0.761503  0.680434
    O   O15  0.408473  0.961533  0.951884  -0.522353
    C   C34  0.343141  0.986138  0.935063  0.536214
    O   O16  0.497981  0.285777  0.847180  -0.495169
    Fe  Fe2  0.488134  0.987926  0.837823  1.461164
    C   C35  0.506139  0.589077  0.298774  0.041855
    C   C36  0.505911  0.603104  0.389803  -0.188285
    H   H11  0.517589  0.714027  0.410665  0.151041
    C   C37  0.492593  0.477816  0.450827  0.151261
    C   C38  0.477078  0.339518  0.417347  -0.257235
    H   H12  0.457406  0.237128  0.461134  0.120703
    C   C39  0.488772  0.329577  0.325609  0.216273
    C   C40  0.503341  0.453648  0.266320  -0.296654
    C   C41  0.505989  0.381227  0.605598  0.361138
    C   C42  0.495846  0.389206  0.698713  -0.263993
    C   C43  0.483859  0.516630  0.733557  -0.139623
    C   C44  0.479786  0.632056  0.676916  0.109724
    C   C45  0.478950  0.615312  0.587259  -0.255046
    H   H13  0.467606  0.703155  0.548627  0.168939
    C   C46  0.491710  0.490088  0.549370  -0.028183
    H   H14  0.507259  0.441737  0.194942  0.230256
    H   H15  0.481312  0.529488  0.804662  0.217555
    O   O17  0.534678  0.270838  0.569799  -0.255210
    C   C47  0.617884  0.324932  0.559420  0.445778
    H   H16  0.636852  0.282371  0.618709  -0.070193
    H   H17  0.637200  0.448520  0.553373  -0.091144
    C   C48  0.657336  0.272641  0.474667  -0.268808
    H   H18  0.639993  0.317363  0.414817  0.053209
    H   H19  0.723360  0.313216  0.467343  0.049863
    H   H20  0.637726  0.149060  0.479753  0.083609
