# generated using pymatgen
data_Zn2H38C57(NO4)2
_symmetry_space_group_name_H-M   'P 1'
_cell_length_a   8.53067100
_cell_length_b   13.00529900
_cell_length_c   13.41528700
_cell_angle_alpha   90.93686600
_cell_angle_beta   90.07421100
_cell_angle_gamma   95.32713400
_symmetry_Int_Tables_number   1
_chemical_formula_structural   Zn2H38C57(NO4)2
_chemical_formula_sum   'Zn2 H38 C57 N2 O8'
_cell_volume   1481.71220597
_cell_formula_units_Z   1
loop_
 _symmetry_equiv_pos_site_id
 _symmetry_equiv_pos_as_xyz
  1  'x, y, z'
loop_
 _atom_site_type_symbol
 _atom_site_label
 _atom_site_symmetry_multiplicity
 _atom_site_fract_x
 _atom_site_fract_y
 _atom_site_fract_z
 _atom_site_occupancy
  Zn  Zn1  1  0.55958400  0.51061000  0.87707000  1
  Zn  Zn2  1  0.55895300  0.49243000  0.09845100  1
  H  H1  1  0.62484500  0.17262900  0.96780600  1
  H  H2  1  0.60258000  0.98529000  0.96933300  1
  H  H3  1  0.06899800  0.57558800  0.03443100  1
  H  H4  1  0.36009600  0.84923900  0.97544100  1
  H  H5  1  0.24790300  0.00466600  0.96846800  1
  H  H6  1  0.71578400  0.82792500  0.98365600  1
  H  H7  1  0.26902000  0.16090100  0.98791100  1
  H  H8  1  0.04463700  0.43092900  0.95411600  1
  H  H9  1  0.57789300  0.64715900  0.23272800  1
  H  H10  1  0.49248300  0.73681700  0.38763100  1
  H  H11  1  0.42807100  0.72308900  0.54645400  1
  H  H12  1  0.53238500  0.35540300  0.74284200  1
  H  H13  1  0.37130700  0.29340400  0.55729200  1
  H  H14  1  0.63309100  0.75900000  0.56863700  1
  H  H15  1  0.56014500  0.25646600  0.59409500  1
  H  H16  1  0.45204500  0.25149600  0.41024400  1
  H  H17  1  0.56955300  0.67896200  0.73251200  1
  H  H18  1  0.81908000  0.44678600  0.51745600  1
  H  H19  1  0.84050900  0.45492000  0.38133800  1
  H  H20  1  0.00524200  0.44137600  0.45971600  1
  H  H21  1  0.09494700  0.28606200  0.45540800  1
  H  H22  1  0.06148300  0.09815300  0.44921000  1
  H  H23  1  0.79710800  0.00744800  0.43889400  1
  H  H24  1  0.56611200  0.10373000  0.43119500  1
  H  H25  1  0.58234700  0.82666000  0.24434800  1
  H  H26  1  0.70503700  0.94609500  0.25587000  1
  H  H27  1  0.57394200  0.90697800  0.35578800  1
  H  H28  1  0.96281200  0.92637100  0.28196100  1
  H  H29  1  0.17539400  0.84220900  0.35888500  1
  H  H30  1  0.11507200  0.69226100  0.46593100  1
  H  H31  1  0.84089400  0.62641900  0.49504600  1
  H  H32  1  0.26148100  0.36403900  0.26280400  1
  H  H33  1  0.18683300  0.23474700  0.29599200  1
  H  H34  1  0.17166100  0.27606400  0.16992000  1
  H  H35  1  0.28549300  0.09566700  0.16554800  1
  H  H36  1  0.53055700  0.01629500  0.13636100  1
  H  H37  1  0.78614900  0.11526200  0.17076200  1
  H  H38  1  0.79398500  0.29292100  0.23633500  1
  C  C1  1  0.01295800  0.13586100  0.97453100  1
  C  C2  1  0.87728200  0.18831100  0.97234500  1
  C  C3  1  0.73089700  0.13337300  0.97082800  1
  C  C4  1  0.71802700  0.02715600  0.97178200  1
  C  C5  1  0.85053200  0.97418100  0.97563600  1
  C  C6  1  0.99898700  0.02740200  0.97528100  1
  C  C7  1  0.83279400  0.86744900  0.98101600  1
  C  C8  1  0.96307200  0.81238200  0.98833800  1
  C  C9  1  0.11152200  0.86418200  0.98311200  1
  C  C10  1  0.12923500  0.97016700  0.97458800  1
  C  C11  1  0.94820700  0.70663100  0.00333400  1
  C  C12  1  0.08093800  0.65655900  0.01844500  1
  C  C13  1  0.22824300  0.70588400  0.00435000  1
  C  C14  1  0.24398300  0.81006400  0.98554900  1
  C  C15  1  0.15913800  0.19371300  0.97897600  1
  C  C16  1  0.16894200  0.29924600  0.97149200  1
  C  C17  1  0.03534200  0.34862500  0.96210500  1
  C  C18  1  0.88973000  0.29567900  0.96926200  1
  C  C19  1  0.79818600  0.64241000  0.99771500  1
  C  C20  1  0.75596300  0.35884600  0.97600700  1
  C  C21  1  0.31929200  0.36203700  0.97777900  1
  C  C22  1  0.36139300  0.64292000  0.99900100  1
  C  C23  1  0.55261000  0.39794700  0.28281800  1
  C  C24  1  0.56702900  0.57775600  0.27600400  1
  C  C25  1  0.56147200  0.58623800  0.37845500  1
  C  C26  1  0.54835900  0.49819200  0.43421100  1
  C  C27  1  0.54983400  0.40320300  0.38627400  1
  C  C28  1  0.58015200  0.69227900  0.42383400  1
  C  C29  1  0.54787900  0.69832900  0.53548200  1
  C  C30  1  0.55810400  0.60060300  0.59059900  1
  C  C31  1  0.54698600  0.50586200  0.54219100  1
  C  C32  1  0.53708200  0.41771300  0.59761700  1
  C  C33  1  0.50005900  0.31387300  0.55156600  1
  C  C34  1  0.54734500  0.30504500  0.44321100  1
  C  C35  1  0.56391700  0.60507800  0.69392800  1
  C  C36  1  0.54344000  0.42513600  0.69976500  1
  C  C37  1  0.69719200  0.25266600  0.43620300  1
  C  C38  1  0.84819900  0.30405400  0.44358800  1
  C  C39  1  0.87755500  0.41865800  0.45055600  1
  C  C40  1  0.97765700  0.24755800  0.44773000  1
  C  C41  1  0.95957400  0.14146400  0.44473100  1
  C  C42  1  0.81152300  0.09067200  0.43809400  1
  C  C43  1  0.68154000  0.14572300  0.43354900  1
  C  C44  1  0.74452400  0.73814800  0.40436200  1
  C  C45  1  0.77856300  0.82360700  0.34430500  1
  C  C46  1  0.65203500  0.87871700  0.29738900  1
  C  C47  1  0.93394600  0.86015900  0.32836800  1
  C  C48  1  0.05441000  0.81301300  0.37166400  1
  C  C49  1  0.02066900  0.72910000  0.43156500  1
  C  C50  1  0.86647900  0.69203100  0.44768200  1
  C  C51  1  0.54434700  0.29662500  0.23334100  1
  C  C52  1  0.40054100  0.24038100  0.21460700  1
  C  C53  1  0.24721400  0.28232800  0.23732400  1
  C  C54  1  0.39717700  0.14021300  0.17879200  1
  C  C55  1  0.53509700  0.09547900  0.16246600  1
  C  C56  1  0.67774600  0.15076500  0.18201000  1
  C  C57  1  0.68210200  0.25070500  0.21831300  1
  N  N1  1  0.55932300  0.48513900  0.22903800  1
  N  N2  1  0.55915500  0.51759300  0.74663900  1
  O  O1  1  0.74360500  0.59870600  0.07971000  1
  O  O2  1  0.73951500  0.61779200  0.90893800  1
  O  O3  1  0.71289900  0.40326600  0.89458700  1
  O  O4  1  0.70628000  0.38428800  0.06507200  1
  O  O5  1  0.37444800  0.40489300  0.89580700  1
  O  O6  1  0.37906600  0.38532300  0.06646600  1
  O  O7  1  0.40496100  0.59938600  0.08096500  1
  O  O8  1  0.41267000  0.61894700  0.91009400  1
