# generated using pymatgen
data_ZnH5C15N(O2F)2
_symmetry_space_group_name_H-M   'P 1'
_cell_length_a   8.58098900
_cell_length_b   9.40216500
_cell_length_c   13.44270400
_cell_angle_alpha   90.00000000
_cell_angle_beta   90.00000000
_cell_angle_gamma   90.00000000
_symmetry_Int_Tables_number   1
_chemical_formula_structural   ZnH5C15N(O2F)2
_chemical_formula_sum   'Zn2 H10 C30 N2 O8 F4'
_cell_volume   1084.55567087
_cell_formula_units_Z   2
loop_
 _symmetry_equiv_pos_site_id
 _symmetry_equiv_pos_as_xyz
  1  'x, y, z'
loop_
 _atom_site_type_symbol
 _atom_site_label
 _atom_site_symmetry_multiplicity
 _atom_site_fract_x
 _atom_site_fract_y
 _atom_site_fract_z
 _atom_site_occupancy
  Zn  Zn1  1  0.50000000  0.83818000  0.49826500  1
  Zn  Zn2  1  0.50000000  0.16182000  0.50173500  1
  H  H1  1  0.50000000  0.62511300  0.16170300  1
  H  H2  1  0.50000000  0.37488700  0.83829700  1
  H  H3  1  0.50000000  0.36579900  0.16353000  1
  H  H4  1  0.50000000  0.63420100  0.83646900  1
  H  H5  1  0.50000000  0.75751200  0.68930500  1
  H  H6  1  0.50000000  0.24248800  0.31069500  1
  H  H7  1  0.50000000  0.24751100  0.69194900  1
  H  H8  1  0.50000000  0.75248900  0.30805100  1
  H  H9  1  0.00000000  0.04593500  0.43067300  1
  H  H10  1  0.00000000  0.95406500  0.56932700  1
  C  C1  1  0.86079100  0.00413200  0.30489900  1
  C  C2  1  0.13920900  0.99586800  0.69510100  1
  C  C3  1  0.13920900  0.00413200  0.30489900  1
  C  C4  1  0.86079100  0.99586800  0.69510100  1
  C  C5  1  0.85992400  0.99061800  0.20276900  1
  C  C6  1  0.14007600  0.00938200  0.79723100  1
  C  C7  1  0.14007600  0.99061800  0.20276900  1
  C  C8  1  0.85992400  0.00938200  0.79723100  1
  C  C9  1  0.00000000  0.99122600  0.15145900  1
  C  C10  1  0.00000000  0.00877400  0.84854100  1
  C  C11  1  0.00000000  0.02157100  0.35319400  1
  C  C12  1  0.00000000  0.97842900  0.64680600  1
  C  C13  1  0.00000000  0.99662000  0.04476300  1
  C  C14  1  0.00000000  0.00338000  0.95523700  1
  C  C15  1  0.50000000  0.42662300  0.58790500  1
  C  C16  1  0.50000000  0.57337700  0.41209500  1
  C  C17  1  0.50000000  0.57605300  0.58655200  1
  C  C18  1  0.50000000  0.42394700  0.41344800  1
  C  C19  1  0.50000000  0.64650000  0.67859400  1
  C  C20  1  0.50000000  0.35350000  0.32140600  1
  C  C21  1  0.50000000  0.35847500  0.68060900  1
  C  C22  1  0.50000000  0.64152500  0.31939100  1
  C  C23  1  0.71925500  0.00144600  0.36545500  1
  C  C24  1  0.28074500  0.99855400  0.63454500  1
  C  C25  1  0.28074500  0.00144600  0.36545500  1
  C  C26  1  0.71925500  0.99855400  0.63454500  1
  C  C27  1  0.50000000  0.57552900  0.76731300  1
  C  C28  1  0.50000000  0.42447100  0.23268700  1
  C  C29  1  0.50000000  0.43163800  0.76836000  1
  C  C30  1  0.50000000  0.56836200  0.23164000  1
  N  N1  1  0.50000000  0.35007000  0.50146300  1
  N  N2  1  0.50000000  0.64993000  0.49853700  1
  O  O1  1  0.66766200  0.12290000  0.40013500  1
  O  O2  1  0.33233800  0.87710000  0.59986500  1
  O  O3  1  0.33329200  0.87750200  0.39594300  1
  O  O4  1  0.66666667  0.12249800  0.60405700  1
  O  O5  1  0.66766200  0.87710000  0.59986500  1
  O  O6  1  0.33233800  0.12290000  0.40013500  1
  O  O7  1  0.33329200  0.12249800  0.60405700  1
  O  O8  1  0.66666667  0.87750200  0.39594300  1
  F  F1  1  0.72311200  0.98311500  0.15271100  1
  F  F2  1  0.27688800  0.01688500  0.84728900  1
  F  F3  1  0.27688800  0.98311500  0.15271100  1
  F  F4  1  0.72311200  0.01688500  0.84728900  1
