# generated using pymatgen
data_V2H18C23O11
_symmetry_space_group_name_H-M   'P 1'
_cell_length_a   21.45480000
_cell_length_b   6.81800000
_cell_length_c   18.28179400
_cell_angle_alpha   90.00000000
_cell_angle_beta   107.25209300
_cell_angle_gamma   90.00000000
_symmetry_Int_Tables_number   1
_chemical_formula_structural   V2H18C23O11
_chemical_formula_sum   'V4 H36 C46 O22'
_cell_volume   2553.92296474
_cell_formula_units_Z   2
loop_
 _symmetry_equiv_pos_site_id
 _symmetry_equiv_pos_as_xyz
  1  'x, y, z'
loop_
 _atom_site_type_symbol
 _atom_site_label
 _atom_site_symmetry_multiplicity
 _atom_site_fract_x
 _atom_site_fract_y
 _atom_site_fract_z
 _atom_site_occupancy
  V  V1  1  0.49791700  0.93749400  0.48786000  1
  V  V2  1  0.50208300  0.43749300  0.51214000  1
  V  V3  1  0.00186700  0.31734700  0.01239700  1
  V  V4  1  0.99813300  0.81734700  0.98760300  1
  H  H1  1  0.35468800  0.31158500  0.80010900  1
  H  H2  1  0.64531200  0.81158500  0.19989200  1
  H  H3  1  0.29095300  0.25413000  0.87738000  1
  H  H4  1  0.70904700  0.75413000  0.12262000  1
  H  H5  1  0.21080700  0.81674000  0.77037400  1
  H  H6  1  0.78919300  0.31674000  0.22962600  1
  H  H7  1  0.26829400  0.89666600  0.85921400  1
  H  H8  1  0.73170600  0.39666600  0.14078600  1
  H  H9  1  0.34781100  0.94846100  0.80232000  1
  H  H10  1  0.65218900  0.44846100  0.19768000  1
  H  H11  1  0.29625600  0.81721400  0.72079900  1
  H  H12  1  0.70374400  0.31721400  0.27920200  1
  H  H13  1  0.13526000  0.05108900  0.68759800  1
  H  H14  1  0.86473900  0.55108900  0.31240200  1
  H  H15  1  0.21571600  0.26999300  0.62039500  1
  H  H16  1  0.78428400  0.76999300  0.37960500  1
  H  H17  1  0.23461100  0.43061900  0.81959500  1
  H  H18  1  0.76538900  0.93061900  0.18040500  1
  H  H19  1  0.29027800  0.44376600  0.73149000  1
  H  H20  1  0.70972200  0.94376600  0.26851100  1
  H  H21  1  0.21032300  0.00589600  0.62486000  1
  H  H22  1  0.78967700  0.50589600  0.37514000  1
  H  H23  1  0.05547700  0.46602000  0.67031500  1
  H  H24  1  0.06245200  0.21371900  0.70008300  1
  H  H25  1  0.07918600  0.38346400  0.55071200  1
  H  H26  1  0.09135100  0.12866700  0.57864000  1
  H  H27  1  0.97737600  0.10920400  0.58440200  1
  H  H28  1  0.98027800  0.18484800  0.49052000  1
  H  H29  1  0.96502200  0.36428900  0.55626000  1
  H  H30  1  0.94452300  0.96602000  0.32968500  1
  H  H31  1  0.93754800  0.71371900  0.29991800  1
  H  H32  1  0.92081400  0.88346400  0.44928800  1
  H  H33  1  0.90864900  0.62866700  0.42136000  1
  H  H34  1  0.02262400  0.60920400  0.41559800  1
  H  H35  1  0.01972200  0.68484800  0.50948100  1
  H  H36  1  0.03497800  0.86428900  0.44374100  1
  C  C1  1  0.57693400  0.65553600  0.42034800  1
  C  C2  1  0.42306600  0.15553600  0.57965300  1
  C  C3  1  0.39495300  0.65510900  0.39424600  1
  C  C4  1  0.60504700  0.15510900  0.60575500  1
  C  C5  1  0.66730800  0.14031400  0.66787900  1
  C  C6  1  0.33269200  0.64031400  0.33212100  1
  C  C7  1  0.71932500  0.13164800  0.71947300  1
  C  C8  1  0.28067500  0.63164800  0.28052700  1
  C  C9  1  0.78080000  0.12284600  0.78035800  1
  C  C10  1  0.21920000  0.62284600  0.21964200  1
  C  C11  1  0.83279300  0.11427500  0.83198800  1
  C  C12  1  0.16720700  0.61427500  0.16801200  1
  C  C13  1  0.25983800  0.28909700  0.81865700  1
  C  C14  1  0.74016200  0.78909700  0.18134300  1
  C  C15  1  0.24587600  0.93359600  0.79794200  1
  C  C16  1  0.75412400  0.43359600  0.20205800  1
  C  C17  1  0.29938600  0.94679100  0.75838000  1
  C  C18  1  0.70061400  0.44679100  0.24162000  1
  C  C19  1  0.37734100  0.14233900  0.62593300  1
  C  C20  1  0.62265900  0.64233900  0.37406700  1
  C  C21  1  0.20957100  0.12734500  0.79143200  1
  C  C22  1  0.79042900  0.62734500  0.20856900  1
  C  C23  1  0.30267900  0.30662400  0.76530900  1
  C  C24  1  0.69732100  0.80662400  0.23469100  1
  C  C25  1  0.29166300  0.13292500  0.71084700  1
  C  C26  1  0.70833700  0.63292500  0.28915300  1
  C  C27  1  0.22160800  0.14218400  0.65937800  1
  C  C28  1  0.77839200  0.64218400  0.34062200  1
  C  C29  1  0.17430700  0.16228700  0.70724400  1
  C  C30  1  0.82569200  0.66228700  0.29275700  1
  C  C31  1  0.33894600  0.13659800  0.66420300  1
  C  C32  1  0.66105400  0.63659800  0.33579800  1
  C  C33  1  0.16215100  0.12353800  0.83787700  1
  C  C34  1  0.83784900  0.62353800  0.16212300  1
  C  C35  1  0.12350200  0.11748500  0.87580400  1
  C  C36  1  0.87649800  0.61748500  0.12419700  1
  C  C37  1  0.10499000  0.59961000  0.10580800  1
  C  C38  1  0.89501000  0.09961000  0.89419300  1
  C  C39  1  0.92259000  0.60357300  0.07842300  1
  C  C40  1  0.07741000  0.10357300  0.92157700  1
  C  C41  1  0.08038300  0.32524200  0.66696200  1
  C  C42  1  0.06459000  0.26460500  0.58368200  1
  C  C43  1  0.99195300  0.22835800  0.55155200  1
  C  C44  1  0.91961700  0.82524200  0.33303800  1
  C  C45  1  0.93541000  0.76460500  0.41631900  1
  C  C46  1  0.00804700  0.72835800  0.44844900  1
  O  O1  1  0.42096200  0.48705900  0.42849500  1
  O  O2  1  0.57903700  0.98705900  0.57150600  1
  O  O3  1  0.55258000  0.83417900  0.42555000  1
  O  O4  1  0.44742000  0.33417900  0.57445000  1
  O  O5  1  0.42168900  0.83435200  0.40703700  1
  O  O6  1  0.57831100  0.33435200  0.59296300  1
  O  O7  1  0.43930700  0.98706000  0.55167200  1
  O  O8  1  0.56069300  0.48706000  0.44832800  1
  O  O9  1  0.50781300  0.66974100  0.54465800  1
  O  O10  1  0.49218700  0.16974100  0.45534200  1
  O  O11  1  0.93930700  0.77174300  0.05067800  1
  O  O12  1  0.06069200  0.27174300  0.94932200  1
  O  O13  1  0.07800600  0.42063200  0.09330800  1
  O  O14  1  0.92199400  0.92063200  0.90669200  1
  O  O15  1  0.94687700  0.42458200  0.07361600  1
  O  O16  1  0.05312200  0.92458200  0.92638500  1
  O  O17  1  0.92092100  0.26774000  0.92849500  1
  O  O18  1  0.07907900  0.76774000  0.07150600  1
  O  O19  1  0.99313300  0.58615600  0.95425000  1
  O  O20  1  0.00686700  0.08615600  0.04575000  1
  O  O21  1  0.14765400  0.35087200  0.69806900  1
  O  O22  1  0.85234600  0.85087200  0.30193100  1
