# generated using pymatgen
data_ZnH10C17NO5
_symmetry_space_group_name_H-M   'P 1'
_cell_length_a   15.12032100
_cell_length_b   8.54402400
_cell_length_c   11.30127200
_cell_angle_alpha   90.00000000
_cell_angle_beta   95.05805400
_cell_angle_gamma   90.00000000
_symmetry_Int_Tables_number   1
_chemical_formula_structural   ZnH10C17NO5
_chemical_formula_sum   'Zn2 H20 C34 N2 O10'
_cell_volume   1454.30769217
_cell_formula_units_Z   2
loop_
 _symmetry_equiv_pos_site_id
 _symmetry_equiv_pos_as_xyz
  1  'x, y, z'
loop_
 _atom_site_type_symbol
 _atom_site_label
 _atom_site_symmetry_multiplicity
 _atom_site_fract_x
 _atom_site_fract_y
 _atom_site_fract_z
 _atom_site_occupancy
  Zn  Zn1  1  0.48637900  0.49321300  0.86790100  1
  Zn  Zn2  1  0.51352300  0.49262100  0.13237800  1
  H  H1  1  0.44098100  0.99347000  0.04314400  1
  H  H2  1  0.55902500  0.99203600  0.95668000  1
  H  H3  1  0.19996800  0.24424500  0.99013700  1
  H  H4  1  0.80012900  0.74166300  0.01012500  1
  H  H5  1  0.79984500  0.24403500  0.01333600  1
  H  H6  1  0.20001200  0.74187800  0.98700700  1
  H  H7  1  0.06999000  0.19442200  0.88404300  1
  H  H8  1  0.93004400  0.79176300  0.11610300  1
  H  H9  1  0.91035100  0.19574100  0.89228200  1
  H  H10  1  0.08963100  0.79042200  0.10784900  1
  H  H11  1  0.39006100  0.48705300  0.29459500  1
  H  H12  1  0.60972500  0.48553200  0.70571200  1
  H  H13  1  0.66666667  0.49928300  0.29897400  1
  H  H14  1  0.33326200  0.50273500  0.70129500  1
  H  H15  1  0.33201700  0.72307500  0.37174200  1
  H  H16  1  0.22072300  0.72987900  0.41699500  1
  H  H17  1  0.24522400  0.60219600  0.29692800  1
  H  H18  1  0.66915900  0.71981100  0.62832000  1
  H  H19  1  0.78062800  0.72423500  0.58352900  1
  H  H20  1  0.75499500  0.59720900  0.70349600  1
  C  C1  1  0.32596900  0.13260800  0.00955000  1
  C  C2  1  0.67406000  0.85310200  0.99066600  1
  C  C3  1  0.67368900  0.13220700  0.98973200  1
  C  C4  1  0.32618600  0.85352400  0.01052800  1
  C  C5  1  0.23445500  0.13345500  0.99463400  1
  C  C6  1  0.76558400  0.85241100  0.00561700  1
  C  C7  1  0.76516900  0.13353500  0.00425100  1
  C  C8  1  0.23471900  0.85234600  0.99604200  1
  C  C9  1  0.18835000  0.99272000  0.99395400  1
  C  C10  1  0.81161900  0.99324200  0.00621500  1
  C  C11  1  0.37023400  0.99321500  0.02505200  1
  C  C12  1  0.62974200  0.99243300  0.97501600  1
  C  C13  1  0.04011500  0.10681200  0.93673800  1
  C  C14  1  0.95988100  0.87935600  0.06338700  1
  C  C15  1  0.94932900  0.10793500  0.94192200  1
  C  C16  1  0.05065000  0.87821900  0.05820000  1
  C  C17  1  0.90863100  0.99439100  0.00537900  1
  C  C18  1  0.09134800  0.99173500  0.99474800  1
  C  C19  1  0.37956200  0.71143500  0.00656300  1
  C  C20  1  0.62021100  0.27420800  0.99371300  1
  C  C21  1  0.62079600  0.71076500  0.99417300  1
  C  C22  1  0.37926500  0.27486800  0.00609500  1
  C  C23  1  0.38305700  0.50795600  0.53036000  1
  C  C24  1  0.61688900  0.50545200  0.46991600  1
  C  C25  1  0.39172200  0.49989600  0.65275400  1
  C  C26  1  0.60818600  0.49746700  0.34752800  1
  C  C27  1  0.54657700  0.49548100  0.65430800  1
  C  C28  1  0.45329600  0.49598500  0.34595700  1
  C  C29  1  0.54123800  0.50379700  0.53154500  1
  C  C30  1  0.45868800  0.50458200  0.46871200  1
  C  C31  1  0.29323000  0.52433500  0.47084900  1
  C  C32  1  0.27180400  0.65258000  0.38328000  1
  C  C33  1  0.70679300  0.52017300  0.52943700  1
  C  C34  1  0.72895100  0.64806100  0.61704800  1
  N  N1  1  0.52732600  0.49264500  0.28796500  1
  N  N2  1  0.47255300  0.49376000  0.71231500  1
  O  O1  1  0.42114400  0.66201000  0.10622800  1
  O  O2  1  0.57860800  0.32353000  0.89392800  1
  O  O3  1  0.57910600  0.66197900  0.89436700  1
  O  O4  1  0.42096000  0.32355200  0.10601400  1
  O  O5  1  0.39594400  0.65689700  0.90205100  1
  O  O6  1  0.60396500  0.32887600  0.09834300  1
  O  O7  1  0.60430000  0.65586000  0.09855000  1
  O  O8  1  0.39561500  0.32991200  0.90163400  1
  O  O9  1  0.23294100  0.44608400  0.50475200  1
  O  O10  1  0.76660500  0.44073600  0.49554800  1
