# generated using pymatgen
data_CuH25C36N3O4
_symmetry_space_group_name_H-M   'P 1'
_cell_length_a   15.85158600
_cell_length_b   15.53407600
_cell_length_c   16.98434400
_cell_angle_alpha   83.66293500
_cell_angle_beta   91.14422600
_cell_angle_gamma   111.27206900
_symmetry_Int_Tables_number   1
_chemical_formula_structural   CuH25C36N3O4
_chemical_formula_sum   'Cu2 H50 C72 N6 O8'
_cell_volume   3872.55490842
_cell_formula_units_Z   2
loop_
 _symmetry_equiv_pos_site_id
 _symmetry_equiv_pos_as_xyz
  1  'x, y, z'
loop_
 _atom_site_type_symbol
 _atom_site_label
 _atom_site_symmetry_multiplicity
 _atom_site_fract_x
 _atom_site_fract_y
 _atom_site_fract_z
 _atom_site_occupancy
  Cu  Cu1  1  0.50522300  0.59214800  0.50316600  1
  Cu  Cu2  1  0.49623900  0.41649800  0.50704500  1
  H  H1  1  0.09790400  0.74949600  0.48791800  1
  H  H2  1  0.90452700  0.26359600  0.48514200  1
  H  H3  1  0.22801000  0.54934100  0.51651300  1
  H  H4  1  0.77248400  0.45583100  0.51542300  1
  H  H5  1  0.20907200  0.27663300  0.49114600  1
  H  H6  1  0.79326500  0.73513000  0.49687400  1
  H  H7  1  0.16919400  0.64524500  0.48827400  1
  H  H8  1  0.83298600  0.36743700  0.48756200  1
  H  H9  1  0.50524400  0.62354000  0.74690300  1
  H  H10  1  0.49316900  0.38434600  0.26321400  1
  H  H11  1  0.50713500  0.61810800  0.88768200  1
  H  H12  1  0.49042500  0.38966000  0.12242700  1
  H  H13  1  0.51454900  0.67512700  0.10344100  1
  H  H14  1  0.48865100  0.33434900  0.90675900  1
  H  H15  1  0.51594500  0.66879400  0.24784100  1
  H  H16  1  0.48763100  0.34065100  0.76232700  1
  H  H17  1  0.39098400  0.67977500  0.56897700  1
  H  H18  1  0.60959800  0.32805800  0.44008600  1
  H  H19  1  0.35154100  0.06616600  0.55913100  1
  H  H20  1  0.64997400  0.94273100  0.45289300  1
  H  H21  1  0.36410000  0.22617600  0.57026800  1
  H  H22  1  0.63796500  0.78309200  0.44109200  1
  H  H23  1  0.31329100  0.81049500  0.56936700  1
  H  H24  1  0.39186300  0.91063200  0.60931300  1
  H  H25  1  0.23638800  0.69038100  0.66494200  1
  H  H26  1  0.22450000  0.60785800  0.79822100  1
  H  H27  1  0.35156100  0.65603500  0.88911600  1
  H  H28  1  0.49132400  0.78713200  0.84633400  1
  H  H29  1  0.50419800  0.87011100  0.71287700  1
  H  H30  1  0.60760300  0.09617300  0.40140000  1
  H  H31  1  0.68689300  0.19847000  0.43775500  1
  H  H32  1  0.48915200  0.13334400  0.30158200  1
  H  H33  1  0.49549400  0.21185800  0.16704700  1
  H  H34  1  0.63399100  0.34068800  0.11744900  1
  H  H35  1  0.76608100  0.39144200  0.20280000  1
  H  H36  1  0.76051100  0.31365600  0.33718300  1
  H  H37  1  0.92360300  0.85493000  0.47793900  1
  H  H38  1  0.02210700  0.84082700  0.44363900  1
  H  H39  1  0.14756700  0.91030000  0.52226900  1
  H  H40  1  0.21379600  0.95704900  0.64934100  1
  H  H41  1  0.11669200  0.92151500  0.76868000  1
  H  H42  1  0.95245700  0.83895800  0.76047100  1
  H  H43  1  0.88535800  0.79085600  0.63396900  1
  H  H44  1  0.08029900  0.16309700  0.46868700  1
  H  H45  1  0.98308500  0.18655800  0.43648700  1
  H  H46  1  0.85464000  0.09120700  0.51348900  1
  H  H47  1  0.78267000  0.00459700  0.63871700  1
  H  H48  1  0.87375800  0.00610500  0.75784100  1
  H  H49  1  0.03763700  0.09482400  0.75123100  1
  H  H50  1  0.11060700  0.18194900  0.62637600  1
  C  C1  1  0.50505700  0.52006700  0.35281500  1
  C  C2  1  0.49632600  0.48858500  0.65739200  1
  C  C3  1  0.67477500  0.56043000  0.50607900  1
  C  C4  1  0.32669200  0.44819600  0.50402100  1
  C  C5  1  0.77422900  0.59172700  0.50434300  1
  C  C6  1  0.22736000  0.41738000  0.50171700  1
  C  C7  1  0.91917200  0.71451300  0.49700700  1
  C  C8  1  0.08303500  0.29679000  0.49235300  1
  C  C9  1  0.82591200  0.68485000  0.49870800  1
  C  C10  1  0.17619600  0.32614100  0.49418600  1
  C  C11  1  0.81604700  0.52743600  0.50703900  1
  C  C12  1  0.18517900  0.48045500  0.50614200  1
  C  C13  1  0.91010100  0.55487400  0.50123900  1
  C  C14  1  0.09146600  0.45454900  0.49992000  1
  C  C15  1  0.96142100  0.64932200  0.49777100  1
  C  C16  1  0.04048200  0.36131600  0.49487000  1
  C  C17  1  0.95365400  0.49011600  0.49891300  1
  C  C18  1  0.04793400  0.51967200  0.49890500  1
  C  C19  1  0.09678200  0.61465400  0.49451100  1
  C  C20  1  0.90509700  0.39645400  0.49344900  1
  C  C21  1  0.05448700  0.67750300  0.49324100  1
  C  C22  1  0.94758000  0.33418400  0.49081700  1
  C  C23  1  0.50508100  0.52625600  0.26603200  1
  C  C24  1  0.49599600  0.48238900  0.74415000  1
  C  C25  1  0.49824000  0.44905100  0.22911400  1
  C  C26  1  0.50125400  0.55917300  0.78101500  1
  C  C27  1  0.49681400  0.45248000  0.14775800  1
  C  C28  1  0.50227900  0.55571300  0.86236800  1
  C  C29  1  0.50304400  0.53418300  0.10195200  1
  C  C30  1  0.49745900  0.47445800  0.90818800  1
  C  C31  1  0.50984700  0.61124000  0.13885200  1
  C  C32  1  0.49221000  0.39783800  0.87132100  1
  C  C33  1  0.51065300  0.60752400  0.22044400  1
  C  C34  1  0.49162100  0.40152900  0.78973800  1
  C  C35  1  0.55408300  0.26980800  0.46819200  1
  C  C36  1  0.44673500  0.73831000  0.54162500  1
  C  C37  1  0.54911000  0.18058400  0.45966000  1
  C  C38  1  0.45131900  0.82729100  0.55062100  1
  C  C39  1  0.47651800  0.10592800  0.49488800  1
  C  C40  1  0.52431800  0.90229800  0.51634400  1
  C  C41  1  0.40971900  0.12346500  0.53343100  1
  C  C42  1  0.59166600  0.88522500  0.47816700  1
  C  C43  1  0.41714200  0.21357600  0.54008600  1
  C  C44  1  0.58454300  0.79531000  0.47103300  1
  C  C45  1  0.37860000  0.83768500  0.59991700  1
  C  C46  1  0.37155500  0.78521000  0.67998900  1
  C  C47  1  0.29288800  0.71185600  0.70429000  1
  C  C48  1  0.28597500  0.66535700  0.77927400  1
  C  C49  1  0.35718300  0.69243400  0.83028800  1
  C  C50  1  0.43554100  0.76585500  0.80627000  1
  C  C51  1  0.44280800  0.81214200  0.73118400  1
  C  C52  1  0.62050700  0.16944000  0.40925300  1
  C  C53  1  0.62393500  0.21899300  0.32842500  1
  C  C54  1  0.54991700  0.19048600  0.28032600  1
  C  C55  1  0.55354400  0.23419600  0.20461700  1
  C  C56  1  0.63117200  0.30636900  0.17679800  1
  C  C57  1  0.70518600  0.33491300  0.22468800  1
  C  C58  1  0.70180100  0.29114200  0.30035900  1
  C  C59  1  0.97064500  0.81759900  0.49236500  1
  C  C60  1  0.01215000  0.84507700  0.56992800  1
  C  C61  1  0.10423300  0.89322700  0.57445900  1
  C  C62  1  0.14170500  0.92002200  0.64588700  1
  C  C63  1  0.08730600  0.90010500  0.71278400  1
  C  C64  1  0.99530100  0.85361500  0.70821100  1
  C  C65  1  0.95773700  0.82627800  0.63696000  1
  C  C66  1  0.03223900  0.19544500  0.48506000  1
  C  C67  1  0.98724200  0.14457100  0.56189100  1
  C  C68  1  0.89530700  0.09343800  0.56561200  1
  C  C69  1  0.85461400  0.04425600  0.63601200  1
  C  C70  1  0.90561600  0.04510500  0.70277400  1
  C  C71  1  0.99746500  0.09495100  0.69907300  1
  C  C72  1  0.03830100  0.14433600  0.62877400  1
  N  N1  1  0.50252900  0.54095800  0.01818400  1
  N  N2  1  0.49791400  0.46770700  0.99196100  1
  N  N3  1  0.49006100  0.28530900  0.50939100  1
  N  N4  1  0.51134700  0.72331000  0.50086100  1
  N  N5  1  0.46745300  0.01258700  0.49104300  1
  N  N6  1  0.53310200  0.99552700  0.52041100  1
  O  O1  1  0.50490400  0.59097300  0.38821800  1
  O  O2  1  0.49647700  0.41767300  0.62200500  1
  O  O3  1  0.50369200  0.44213100  0.39179300  1
  O  O4  1  0.49783900  0.56653300  0.61842000  1
  O  O5  1  0.63597300  0.62195300  0.50697500  1
  O  O6  1  0.36551600  0.38671800  0.50310000  1
  O  O7  1  0.62826700  0.47173700  0.50482100  1
  O  O8  1  0.37319500  0.53686600  0.50543300  1
