# Generated by REPEAT Assigner based on pymatgen
data_DB0-m3_o148_o21_f0_fsc.sym.48
_audit_creation_date              2022-05-24
_audit_creation_method            REPEAT_Assigner
_cell_length_a                    8.532322
_cell_length_b                    10.790746
_cell_length_c                    12.479730
_cell_angle_alpha                 95.721465
_cell_angle_beta                  90.083435
_cell_angle_gamma                 89.998266
_cell_volume                      1143.285034
_symmetry_space_group_name_H-M    P1
_symmetry_Int_Tables_number       1
loop_
    _symmetry_equiv_pos_site_id
    _symmetry_equiv_pos_as_xyz
    1  x,y,z
loop_
    _atom_site_type_symbol
    _atom_site_label
    _atom_site_fract_x
    _atom_site_fract_y
    _atom_site_fract_z
    _atom_type_partial_charge
    C   C1   0.999230  0.689660  0.026533  -0.137443
    C   C2   0.858755  0.746869  0.011766  -0.022764
    C   C3   0.855137  0.869863  0.992981  -0.342802
    C   C4   0.137711  0.750552  0.012570  -0.111480
    C   C5   0.135829  0.877093  0.999868  -0.173873
    C   C6   0.993447  0.938623  0.994348  0.408852
    C   C7   0.993422  0.066522  0.985887  -0.310861
    C   C8   0.855111  0.135213  0.987488  -0.089267
    C   C9   0.858635  0.258338  0.969110  -0.107365
    C   C10  0.274187  0.943025  0.994703  0.272297
    N   N1   0.271602  0.066289  0.985385  -0.649334
    C   C11  0.135533  0.128582  0.980362  0.665431
    C   C12  0.137203  0.254820  0.967752  -0.343143
    C   C13  0.998781  0.315807  0.954191  -0.032752
    H   H1   0.385912  0.896720  0.999284  0.051562
    H   H2   0.001135  0.592773  0.040199  0.141274
    H   H3   0.000458  0.412737  0.940668  0.127012
    H   H4   0.741843  0.907206  0.976666  0.161397
    H   H5   0.741914  0.097798  0.003759  0.111698
    O   O1   0.667040  0.378016  0.888220  -0.677246
    O   O2   0.661019  0.368710  0.072337  -0.629023
    C   C14  0.716937  0.333694  0.976154  0.732651
    O   O3   0.667198  0.626914  0.092709  -0.749147
    O   O4   0.660655  0.636178  0.908568  -0.703187
    C   C15  0.716930  0.671286  0.004778  0.882645
    O   O5   0.328342  0.627492  0.092192  -0.742866
    O   O6   0.333653  0.636294  0.908427  -0.691191
    C   C16  0.279474  0.673674  0.004805  0.870500
    O   O7   0.328248  0.377077  0.888019  -0.677213
    O   O8   0.334074  0.368314  0.071749  -0.681990
    C   C17  0.279754  0.330716  0.975352  0.846080
    Zn  Zn1  0.497409  0.500580  0.109534  1.101348
    Zn  Zn2  0.497151  0.504178  0.871019  1.080005
    N   N2   0.497058  0.502780  0.730203  -0.105226
    C   C18  0.511632  0.453021  0.522647  0.063459
    C   C19  0.505673  0.544420  0.458658  -0.105154
    C   C20  0.500318  0.519046  0.343327  0.170939
    C   C21  0.502609  0.482818  0.637450  0.149721
    N   N3   0.497217  0.501807  0.250338  -0.102571
    H   H6   0.496809  0.639974  0.494264  0.172234
    C   C22  0.521909  0.321904  0.478852  0.117505
    C   C23  0.435910  0.233720  0.526239  -0.095632
    C   C24  0.444686  0.109852  0.487075  0.032201
    Cl  Cl1  0.333056  0.998927  0.546359  -0.065453
    C   C25  0.541438  0.073281  0.401432  -0.046252
    C   C26  0.630725  0.160461  0.355741  -0.069656
    C   C27  0.621720  0.284505  0.394485  -0.159872
    H   H7   0.359358  0.261665  0.593260  0.116002
    H   H8   0.548826  0.976094  0.371018  0.102231
    H   H9   0.709348  0.131372  0.290169  0.121191
    H   H10  0.698757  0.350093  0.361107  0.124526
