# Generated by REPEAT Assigner based on pymatgen
data_DB0-m3_o8_o8_f0_pcu.sym.23
_audit_creation_date              2022-05-24
_audit_creation_method            REPEAT_Assigner
_cell_length_a                    24.453773
_cell_length_b                    23.994289
_cell_length_c                    16.100543
_cell_angle_alpha                 90.000000
_cell_angle_beta                  91.272530
_cell_angle_gamma                 90.000000
_cell_volume                      9444.678237
_symmetry_space_group_name_H-M    P1
_symmetry_Int_Tables_number       1
loop_
    _symmetry_equiv_pos_site_id
    _symmetry_equiv_pos_as_xyz
    1  x,y,z
loop_
    _atom_site_type_symbol
    _atom_site_label
    _atom_site_fract_x
    _atom_site_fract_y
    _atom_site_fract_z
    _atom_type_partial_charge
    O   O1    0.553956  0.059099  0.574873  -0.597512
    O   O2    0.446044  0.940901  0.425127  -0.597557
    O   O3    0.446046  0.059102  0.425125  -0.597489
    O   O4    0.553954  0.940898  0.574874  -0.597537
    O   O5    0.053955  0.559101  0.574874  -0.597494
    O   O6    0.946045  0.440899  0.425126  -0.597703
    O   O7    0.946045  0.559101  0.425126  -0.597630
    O   O8    0.053955  0.440899  0.574874  -0.597608
    O   O9    0.560730  0.058848  0.432581  -0.676141
    O   O10   0.439270  0.941152  0.567418  -0.676290
    O   O11   0.439271  0.058847  0.567417  -0.676152
    O   O12   0.560729  0.941153  0.432583  -0.676111
    O   O13   0.060730  0.558847  0.432582  -0.676081
    O   O14   0.939270  0.441153  0.567417  -0.676210
    O   O15   0.939270  0.558848  0.567417  -0.676240
    O   O16   0.060730  0.441152  0.432582  -0.676045
    C   C1    0.574733  0.078282  0.506339  0.715398
    C   C2    0.425267  0.921718  0.493660  0.715549
    C   C3    0.425269  0.078283  0.493659  0.715250
    C   C4    0.574731  0.921717  0.506340  0.715298
    C   C5    0.074732  0.578282  0.506340  0.715194
    C   C6    0.925268  0.421718  0.493660  0.715559
    C   C7    0.925268  0.578283  0.493660  0.715479
    C   C8    0.074732  0.421717  0.506340  0.715286
    Zn  Zn1   0.496503  0.999999  0.594046  1.018379
    Zn  Zn2   0.503497  0.000001  0.405954  1.018322
    Zn  Zn3   0.996503  0.500000  0.594046  1.018416
    Zn  Zn4   0.003497  0.500000  0.405954  1.018359
    C   C9    0.615261  0.876520  0.512389  -0.069377
    C   C10   0.384739  0.123480  0.487611  -0.069398
    C   C11   0.384737  0.876522  0.487610  -0.069887
    C   C12   0.615263  0.123478  0.512390  -0.069788
    C   C13   0.115262  0.376521  0.512389  -0.069451
    C   C14   0.884738  0.623479  0.487610  -0.069540
    C   C15   0.884738  0.376521  0.487611  -0.069597
    C   C16   0.115262  0.623479  0.512389  -0.069399
    C   C17   0.654270  0.872097  0.451875  -0.106068
    C   C18   0.345730  0.127903  0.548125  -0.105952
    C   C19   0.345728  0.872099  0.548124  -0.105574
    C   C20   0.654272  0.127901  0.451876  -0.105702
    C   C21   0.154271  0.372098  0.451875  -0.106032
    C   C22   0.845729  0.627902  0.548124  -0.105956
    C   C23   0.845729  0.372098  0.548124  -0.105923
    C   C24   0.154271  0.627902  0.451875  -0.106091
    C   C25   0.693661  0.830911  0.455929  -0.237344
    C   C26   0.306339  0.169089  0.544070  -0.237464
    C   C27   0.306337  0.830912  0.544069  -0.237630
    C   C28   0.693663  0.169088  0.455931  -0.237550
    C   C29   0.193662  0.330911  0.455931  -0.237388
    C   C30   0.806338  0.669089  0.544069  -0.237473
    C   C31   0.806338  0.330911  0.544070  -0.237444
    C   C32   0.193662  0.669089  0.455930  -0.237320
    C   C33   0.694057  0.793023  0.521017  0.577735
    C   C34   0.305943  0.206977  0.478982  0.577817
    C   C35   0.305942  0.793024  0.478981  0.577932
    C   C36   0.694058  0.206976  0.521019  0.577808
    C   C37   0.194057  0.293024  0.521018  0.577769
    C   C38   0.805943  0.706976  0.478981  0.577830
    C   C39   0.805943  0.293024  0.478982  0.577829
    C   C40   0.194057  0.706976  0.521018  0.577725
    C   C41   0.654686  0.796787  0.580408  -0.254770
    C   C42   0.345314  0.203213  0.419591  -0.254847
    C   C43   0.345313  0.796789  0.419590  -0.255009
    C   C44   0.654687  0.203211  0.580410  -0.254903
    C   C45   0.154687  0.296788  0.580409  -0.254839
    C   C46   0.845313  0.703212  0.419590  -0.254854
    C   C47   0.845313  0.296788  0.419591  -0.254927
    C   C48   0.154687  0.703212  0.580409  -0.254814
    C   C49   0.615285  0.837770  0.576814  0.100054
    C   C50   0.384715  0.162230  0.423186  0.100089
    C   C51   0.384714  0.837772  0.423185  0.100317
    C   C52   0.615286  0.162228  0.576815  0.100398
    C   C53   0.115285  0.337771  0.576814  0.100190
    C   C54   0.884715  0.662229  0.423185  0.100099
    C   C55   0.884715  0.337771  0.423185  0.100146
    C   C56   0.115286  0.662229  0.576814  0.100171
    N   N1    0.733270  0.749862  0.528481  -0.258732
    N   N2    0.266730  0.250138  0.471518  -0.258797
    N   N3    0.266730  0.749863  0.471517  -0.258826
    N   N4    0.733270  0.250137  0.528483  -0.258726
    N   N5    0.233270  0.249863  0.528483  -0.258716
    N   N6    0.766730  0.750137  0.471517  -0.258792
    N   N7    0.766730  0.249862  0.471518  -0.258794
    N   N8    0.233270  0.750138  0.528481  -0.258704
    H   H1    0.345058  0.098358  0.598760  0.138158
    H   H2    0.654942  0.901643  0.401239  0.138198
    H   H3    0.654944  0.098356  0.401240  0.138154
    H   H4    0.345056  0.901644  0.598760  0.138129
    H   H5    0.845057  0.598357  0.598760  0.138202
    H   H6    0.154943  0.401643  0.401240  0.138221
    H   H7    0.154943  0.598357  0.401239  0.138252
    H   H8    0.845057  0.401643  0.598760  0.138175
    H   H9    0.276613  0.170154  0.592738  0.101078
    H   H10   0.723388  0.829846  0.407261  0.101089
    H   H11   0.723389  0.170153  0.407263  0.101116
    H   H12   0.276611  0.829847  0.592737  0.101121
    H   H13   0.776612  0.670153  0.592737  0.101103
    H   H14   0.223388  0.329847  0.407263  0.101107
    H   H15   0.223388  0.670154  0.407262  0.101067
    H   H16   0.776612  0.329846  0.592738  0.101092
    N   N9    0.505098  0.000000  0.281740  -0.084523
    N   N10   0.494902  0.000000  0.718260  -0.084576
    N   N11   0.005098  0.500000  0.281740  -0.084607
    N   N12   0.994902  0.500000  0.718260  -0.084646
    C   C57   0.459402  0.999996  0.233096  0.112321
    C   C58   0.540598  0.000004  0.766904  0.112390
    C   C59   0.959402  0.500000  0.233096  0.112695
    C   C60   0.040598  0.500000  0.766904  0.112788
    C   C61   0.461873  0.999963  0.147567  -0.349895
    C   C62   0.538127  0.000037  0.852432  -0.349894
    C   C63   0.961873  0.499999  0.147567  -0.350548
    C   C64   0.038127  0.500001  0.852432  -0.350680
    C   C65   0.512943  0.999940  0.109597  0.950488
    C   C66   0.487057  0.000060  0.890402  0.950389
    C   C67   0.012943  0.499999  0.109597  0.951608
    C   C68   0.987057  0.500001  0.890402  0.951733
    C   C69   0.558925  0.999946  0.161585  -0.593738
    C   C70   0.441075  0.000054  0.838415  -0.593639
    C   C71   0.058925  0.499999  0.161585  -0.594400
    C   C72   0.941075  0.500001  0.838414  -0.594312
    C   C73   0.554353  0.999978  0.246683  0.297191
    C   C74   0.445647  0.000022  0.753317  0.297179
    C   C75   0.054353  0.500000  0.246683  0.297234
    C   C76   0.945647  0.500000  0.753317  0.297183
    N   N13   0.521236  0.999878  0.022002  -0.330879
    N   N14   0.478764  0.000122  0.977998  -0.330874
    N   N15   0.021237  0.499998  0.022002  -0.331152
    N   N16   0.978763  0.500002  0.977997  -0.331394
    H   H17   0.590968  0.999978  0.285533  0.067114
    H   H18   0.409032  0.000022  0.714467  0.067150
    H   H19   0.090968  0.500000  0.285533  0.067134
    H   H20   0.909032  0.500000  0.714467  0.067206
    Br  Br1   0.654073  0.743647  0.668344  -0.026111
    Br  Br2   0.345927  0.256353  0.331655  -0.026026
    Br  Br3   0.345927  0.743649  0.331654  -0.025974
    Br  Br4   0.654073  0.256351  0.668345  -0.026059
    Br  Br5   0.154073  0.243648  0.668345  -0.026100
    Br  Br6   0.845927  0.756352  0.331654  -0.026007
    Br  Br7   0.845927  0.243648  0.331655  -0.025985
    Br  Br8   0.154073  0.756352  0.668344  -0.026070
    Br  Br9   0.560167  0.834456  0.659318  -0.054240
    Br  Br10  0.439833  0.165544  0.340682  -0.054229
    Br  Br11  0.439832  0.834459  0.340681  -0.054288
    Br  Br12  0.560168  0.165541  0.659318  -0.054389
    Br  Br13  0.060168  0.334458  0.659318  -0.054309
    Br  Br14  0.939832  0.665542  0.340681  -0.054216
    Br  Br15  0.939832  0.334458  0.340681  -0.054211
    Br  Br16  0.060168  0.665542  0.659318  -0.054338
    Br  Br17  0.611926  0.999995  0.721130  0.055915
    Br  Br18  0.388074  0.000005  0.278869  0.055961
    Br  Br19  0.111926  0.500000  0.721130  0.055880
    Br  Br20  0.888074  0.500000  0.278869  0.055991
    Br  Br21  0.609011  0.000127  0.905322  0.042573
    Br  Br22  0.390989  0.999873  0.094677  0.042582
    Br  Br23  0.109011  0.500002  0.905322  0.042666
    Br  Br24  0.890989  0.499998  0.094678  0.042644
    Br  Br25  0.630638  0.999912  0.118124  0.110899
    Br  Br26  0.369362  0.000088  0.881875  0.110895
    Br  Br27  0.130638  0.499999  0.118124  0.111033
    Br  Br28  0.869362  0.500001  0.881875  0.111008
