data_DB0-m3_o11_o23_f0_pcu.sym.134_repeat
_audit_creation_date              2024-02-23
_audit_creation_method            'Materials Studio'
_symmetry_space_group_name_H-M    'P1'
_symmetry_Int_Tables_number       1
_symmetry_cell_setting            triclinic
loop_
_symmetry_equiv_pos_as_xyz
  x,y,z
_cell_length_a                    15.9551
_cell_length_b                    11.1374
_cell_length_c                    9.9108
_cell_angle_alpha                 89.9974
_cell_angle_beta                  89.9750
_cell_angle_gamma                 89.9982
loop_
_atom_site_label
_atom_site_type_symbol
_atom_site_fract_x
_atom_site_fract_y
_atom_site_fract_z
_atom_site_U_iso_or_equiv
_atom_site_adp_type
_atom_site_occupancy
O1     O     0.51595   0.32893   0.62047   0.00000  Uiso   1.00
O2     O     0.51281   0.32953   0.38789   0.00000  Uiso   1.00
C1     C     0.51432   0.27322   0.50437   0.00000  Uiso   1.00
O3     O     0.39013   0.50656   0.63048   0.00000  Uiso   1.00
O4     O     0.38709   0.50793   0.39774   0.00000  Uiso   1.00
C2     C     0.34967   0.50690   0.51535   0.00000  Uiso   1.00
Zn1    Zn    0.51568   0.50697   0.66137   0.00000  Uiso   1.00
Zn2    Zn    0.51111   0.50910   0.35414   0.00000  Uiso   1.00
O5     O     0.51477   0.68640   0.62794   0.00000  Uiso   1.00
O6     O     0.51182   0.68749   0.39445   0.00000  Uiso   1.00
O7     O     0.63978   0.50840   0.61819   0.00000  Uiso   1.00
O8     O     0.63670   0.50952   0.38464   0.00000  Uiso   1.00
C3     C     0.51290   0.74284   0.51155   0.00000  Uiso   1.00
C4     C     0.67709   0.50912   0.50015   0.00000  Uiso   1.00
C5     C     0.05766   0.43953   0.63319   0.00000  Uiso   1.00
C6     C     0.06236   0.44252   0.37973   0.00000  Uiso   1.00
C7     C     0.96745   0.45451   0.37154   0.00000  Uiso   1.00
H1     H     0.94535   0.33480   0.60262   0.00000  Uiso   1.00
H2     H     0.08563   0.34903   0.64493   0.00000  Uiso   1.00
H3     H     0.09005   0.49183   0.29347   0.00000  Uiso   1.00
H4     H     0.93741   0.36638   0.35258   0.00000  Uiso   1.00
H5     H     0.95114   0.51564   0.28720   0.00000  Uiso   1.00
C8     C     0.76702   0.50875   0.49812   0.00000  Uiso   1.00
C9     C     0.09248   0.50298   0.50968   0.00000  Uiso   1.00
C10    C     0.96334   0.42970   0.62003   0.00000  Uiso   1.00
C11    C     0.93420   0.50631   0.50251   0.00000  Uiso   1.00
C12    C     0.96683   0.63309   0.51985   0.00000  Uiso   1.00
C13    C     0.06154   0.63187   0.51066   0.00000  Uiso   1.00
C14    C     0.84254   0.50792   0.49911   0.00000  Uiso   1.00
C15    C     0.18422   0.50460   0.51513   0.00000  Uiso   1.00
C16    C     0.25974   0.50581   0.51712   0.00000  Uiso   1.00
H6     H     0.08821   0.68032   0.59847   0.00000  Uiso   1.00
H7     H     0.08163   0.67795   0.41686   0.00000  Uiso   1.00
H8     H     0.94744   0.66833   0.61976   0.00000  Uiso   1.00
H9     H     0.07292   0.49273   0.72452   0.00000  Uiso   1.00
H10    H     0.93346   0.46131   0.71464   0.00000  Uiso   1.00
H11    H     0.94099   0.69189   0.43971   0.00000  Uiso   1.00
C17    C     0.51224   0.94026   0.40145   0.00000  Uiso   1.00
C18    C     0.51267   0.87442   0.51482   0.00000  Uiso   1.00
H12    H     0.51172   0.89506   0.30466   0.00000  Uiso   1.00
H13    H     0.51265   0.91470   0.61378   0.00000  Uiso   1.00
C19    C     0.51197   0.07337   0.39866   0.00000  Uiso   1.00
C20    C     0.51507   0.14179   0.50947   0.00000  Uiso   1.00
H14    H     0.50927   0.11621   0.30059   0.00000  Uiso   1.00
H15    H     0.51826   0.10336   0.60919   0.00000  Uiso   1.00
C21    C     0.55071   0.58971   0.93483   0.00000  Uiso   1.00
N1     N     0.52035   0.50411   0.86303   0.00000  Uiso   1.00
H16    H     0.57519   0.66919   0.88560   0.00000  Uiso   1.00
H17    H     0.50799   0.42467   0.91173   0.00000  Uiso   1.00
C22    C     0.55754   0.57973   0.08338   0.00000  Uiso   1.00
N2     N     0.50762   0.51314   0.15246   0.00000  Uiso   1.00
H18    H     0.60382   0.63391   0.13534   0.00000  Uiso   1.00
H19    H     0.45766   0.47594   0.10227   0.00000  Uiso   1.00
C23    C     0.08850   0.31015   0.37024   0.00000  Uiso   1.00
C24    C     0.08535   0.26591   0.22459   0.00000  Uiso   1.00
C25    C     0.16923   0.28654   0.15549   0.00000  Uiso   1.00
C26    C     0.06542   0.13265   0.22277   0.00000  Uiso   1.00
H20    H     0.04627   0.25412   0.43283   0.00000  Uiso   1.00
H21    H     0.15303   0.29654   0.40825   0.00000  Uiso   1.00
H22    H     0.03587   0.31395   0.16764   0.00000  Uiso   1.00
H23    H     0.21851   0.23105   0.20388   0.00000  Uiso   1.00
H24    H     0.18716   0.38250   0.16165   0.00000  Uiso   1.00
H25    H     0.16430   0.26093   0.04765   0.00000  Uiso   1.00
H26    H     0.11138   0.08316   0.28566   0.00000  Uiso   1.00
H27    H     0.06834   0.09870   0.11768   0.00000  Uiso   1.00
H28    H     0.00131   0.11736   0.26259   0.00000  Uiso   1.00
