# Generated by REPEAT Assigner based on pymatgen
data_DB0-m2_o16_o23_f0_pcu.sym.132_sqe
_audit_creation_date              2022-05-24
_audit_creation_method            REPEAT_Assigner
_cell_length_a                    12.205002
_cell_length_b                    13.372747
_cell_length_c                    15.847136
_cell_angle_alpha                 78.498178
_cell_angle_beta                  102.567951
_cell_angle_gamma                 116.494079
_cell_volume                      2243.827392
_symmetry_space_group_name_H-M    P1
_symmetry_Int_Tables_number       1
loop_
    _symmetry_equiv_pos_site_id
    _symmetry_equiv_pos_as_xyz
    1  x,y,z
loop_
    _atom_site_type_symbol
    _atom_site_label
    _atom_site_fract_x
    _atom_site_fract_y
    _atom_site_fract_z
    _atom_type_partial_charge
    O   O1   0.974943  0.317917  0.526404  -0.603903
    O   O2   0.809820  0.363353  0.501274  -0.570247
    C   C1   0.856043  0.289064  0.521717  0.725948
    O   O3   0.098815  0.482789  0.635551  -0.599140
    O   O4   0.940979  0.539522  0.606565  -0.646662
    C   C2   0.024895  0.514461  0.660664  0.861992
    Cu  Cu1  0.099518  0.473511  0.514161  0.834619
    Cu  Cu2  0.905599  0.525952  0.482078  0.869259
    O   O5   0.195587  0.635655  0.492184  -0.572979
    O   O6   0.028621  0.680951  0.461574  -0.620298
    O   O7   0.067620  0.463862  0.389214  -0.615092
    O   O8   0.903739  0.513411  0.360932  -0.598502
    C   C3   0.148396  0.709491  0.472795  0.688243
    C   C4   0.981234  0.486046  0.335511  0.883899
    C   C5   0.035142  0.406293  0.972312  -0.148282
    C   C6   0.884771  0.490889  0.925448  -0.308733
    C   C7   0.866745  0.466473  0.020318  0.108700
    H   H1   0.957657  0.326617  0.952802  0.054849
    H   H2   0.873799  0.568978  0.895880  0.072785
    H   H3   0.814226  0.419946  0.890009  0.099674
    H   H4   0.804905  0.376287  0.034364  0.073321
    C   C8   0.977752  0.486961  0.244113  -0.246248
    C   C9   0.013674  0.505450  0.919329  0.658381
    C   C10  0.042474  0.411912  0.068131  -0.005701
    C   C11  0.992782  0.495325  0.076795  0.115707
    C   C12  0.081999  0.613801  0.044787  0.145745
    C   C13  0.108600  0.613074  0.955827  -0.261903
    C   C14  0.981928  0.489914  0.168193  -0.143461
    C   C15  0.024296  0.510835  0.827960  -0.281804
    C   C16  0.028273  0.513687  0.752048  -0.208304
    H   H5   0.202794  0.617389  0.961608  0.074442
    H   H6   0.103231  0.687029  0.911924  0.079873
    H   H7   0.122966  0.409197  0.960709  0.055845
    H   H8   0.140207  0.439195  0.099366  0.079467
    H   H9   0.040840  0.674176  0.039462  0.062682
    C   C17  0.288843  0.002256  0.364436  -0.225311
    H   H10  0.106736  0.870262  0.355865  0.130490
    H   H11  0.471409  0.189204  0.318090  0.144188
    H   H12  0.262801  0.055781  0.311312  0.138786
    C   C18  0.234616  0.827166  0.453964  -0.042822
    C   C19  0.801177  0.108063  0.615017  0.014194
    C   C20  0.720413  0.999941  0.638153  -0.131682
    C   C21  0.604862  0.952900  0.591351  -0.161421
    C   C22  0.566840  0.013607  0.518435  0.058554
    C   C23  0.652158  0.121329  0.491158  0.178596
    C   C24  0.444814  0.970853  0.473792  0.025579
    C   C25  0.410198  0.037694  0.405012  0.226955
    C   C26  0.497123  0.139635  0.374689  -0.224378
    C   C27  0.617481  0.179480  0.415312  -0.196252
    C   C28  0.355341  0.863290  0.495705  -0.144872
    C   C29  0.200376  0.898100  0.389934  -0.095037
    C   C30  0.770367  0.169487  0.540048  -0.178842
    H   H13  0.375452  0.803441  0.544782  0.095440
    H   H14  0.546709  0.869735  0.617445  0.145196
    H   H15  0.745264  0.953400  0.697235  0.135011
    H   H16  0.682101  0.257500  0.385826  0.148969
    C   C31  0.349157  0.335093  0.634217  -0.119649
    H   H17  0.170771  0.316061  0.642154  0.207345
    N   N1   0.244927  0.434184  0.538403  0.032506
    C   C32  0.758111  0.638004  0.387685  -0.045228
    C   C33  0.657813  0.663050  0.359470  0.023509
    C   C34  0.555842  0.610247  0.401658  -0.113258
    C   C35  0.553812  0.531255  0.474124  0.013152
    C   C36  0.658728  0.509774  0.501269  0.222431
    C   C37  0.450239  0.472578  0.519556  -0.017136
    C   C38  0.453243  0.392777  0.591194  0.242533
    C   C39  0.560514  0.375259  0.617861  -0.178204
    C   C40  0.659178  0.433482  0.573751  -0.149668
    C   C41  0.343198  0.492195  0.495597  -0.088597
    C   C42  0.248273  0.358764  0.606956  -0.089286
    N   N2   0.759538  0.563387  0.458271  -0.106843
    H   H18  0.334767  0.554262  0.443391  0.159180
    H   H19  0.835749  0.678455  0.351914  0.180972
    H   H20  0.480778  0.633526  0.374267  0.142028
    H   H21  0.737444  0.415942  0.600177  0.170473
    C   C43  0.971106  0.299771  0.110558  0.308591
    N   N3   0.914887  0.211156  0.144055  -0.422270
    C   C44  0.908796  0.158578  0.677009  0.339627
    N   N4   0.993758  0.197801  0.728695  -0.429680
    C   C45  0.579396  0.299568  0.691822  0.394157
    N   N5   0.596446  0.239172  0.751079  -0.402762
    C   C46  0.337439  0.250101  0.707746  0.337358
    N   N6   0.326108  0.181490  0.766899  -0.389722
    C   C47  0.658319  0.743243  0.284224  0.303409
    N   N7   0.658715  0.807907  0.223563  -0.378418
    C   C48  0.806554  0.532524  0.037028  0.267057
    N   N8   0.758874  0.584595  0.050172  -0.413993
    C   C49  0.197999  0.652403  0.105389  0.218883
    N   N9   0.289644  0.683052  0.153196  -0.374010
