# Generated by REPEAT Assigner based on pymatgen
data_DB0-m9_o1_o17_f0_sra.sym.64_sqe
_audit_creation_date              2022-05-24
_audit_creation_method            REPEAT_Assigner
_cell_length_a                    6.328397
_cell_length_b                    16.349851
_cell_length_c                    18.874844
_cell_angle_alpha                 109.093337
_cell_angle_beta                  89.317256
_cell_angle_gamma                 90.806114
_cell_volume                      1845.273182
_symmetry_space_group_name_H-M    P1
_symmetry_Int_Tables_number       1
loop_
    _symmetry_equiv_pos_site_id
    _symmetry_equiv_pos_as_xyz
    1  x,y,z
loop_
    _atom_site_type_symbol
    _atom_site_label
    _atom_site_fract_x
    _atom_site_fract_y
    _atom_site_fract_z
    _atom_type_partial_charge
    O  O1   0.486594  0.391438  0.440366  -0.387434
    O  O2   0.685599  0.399341  0.525582  -0.430404
    O  O3   0.903423  0.547304  0.604417  -0.600653
    C  C1   0.567353  0.425309  0.587331  0.647725
    O  O4   0.782074  0.432833  0.391207  -0.570415
    O  O5   0.992907  0.580312  0.470124  -0.385733
    C  C2   0.608175  0.387332  0.382762  0.574789
    O  O6   0.402099  0.475677  0.593189  -0.562028
    O  O7   0.595091  0.559697  0.510300  -0.566886
    V  V1   0.867091  0.483296  0.497078  1.319784
    O  O8   0.284278  0.518232  0.404708  -0.574210
    C  C3   0.114017  0.563516  0.410646  0.627018
    O  O9   0.192389  0.603503  0.557943  -0.438373
    C  C4   0.067538  0.600554  0.614337  0.621918
    V  V2   0.367613  0.504009  0.500409  1.324256
    O  O10  0.090826  0.428034  0.489859  -0.560508
    C  C5   0.221359  0.738765  0.694225  -0.158431
    H  H1   0.345059  0.732548  0.652855  0.096962
    C  C6   0.219855  0.809376  0.759037  0.027989
    H  H2   0.343016  0.858177  0.768519  0.074584
    C  C7   0.063204  0.817105  0.812255  -0.080700
    C  C8   0.906428  0.754790  0.800069  -0.257282
    H  H3   0.783130  0.761277  0.841554  0.132036
    C  C9   0.907603  0.684235  0.735240  0.112823
    H  H4   0.784923  0.635255  0.725940  0.051893
    C  C10  0.066296  0.675701  0.682595  -0.082483
    C  C11  0.254048  0.612003  0.309580  -0.180349
    C  C12  0.099606  0.617404  0.362949  -0.019742
    C  C13  0.936751  0.675231  0.372389  -0.296424
    C  C14  0.927868  0.727259  0.327891  0.274982
    C  C15  0.082543  0.721787  0.274466  -0.056563
    C  C16  0.245843  0.664278  0.265442  0.161388
    C  C17  0.764207  0.784620  0.336670  -0.237778
    C  C18  0.753882  0.835673  0.291381  -0.124718
    C  C19  0.907537  0.829513  0.237511  0.092511
    C  C20  0.072852  0.773196  0.229528  0.009434
    C  C21  0.226484  0.767145  0.175687  0.153231
    C  C22  0.390731  0.710124  0.167136  -0.144674
    C  C23  0.400577  0.658753  0.212106  -0.198414
    C  C24  0.894435  0.878862  0.190947  -0.170490
    C  C25  0.044679  0.871100  0.135658  -0.039837
    C  C26  0.211872  0.815508  0.128325  -0.029461
    H  H5   0.382395  0.567047  0.302664  0.124963
    H  H6   0.816291  0.679767  0.414554  0.135737
    H  H7   0.643128  0.789050  0.378608  0.136645
    H  H8   0.624433  0.880003  0.297687  0.100376
    H  H9   0.764076  0.922698  0.196927  0.126218
    H  H10  0.510469  0.705025  0.124621  0.129733
    H  H11  0.528551  0.613619  0.205124  0.111520
    C  C27  0.420022  0.181597  0.874656  -0.267001
    C  C28  0.565800  0.116466  0.862525  -0.065300
    C  C29  0.711807  0.102423  0.805123  -0.141679
    C  C30  0.712724  0.153796  0.759994  0.134725
    C  C31  0.567550  0.219196  0.772286  -0.020882
    C  C32  0.420915  0.232995  0.829518  0.250998
    C  C33  0.859433  0.139996  0.702803  -0.170069
    C  C34  0.860911  0.191598  0.657842  -0.232408
    C  C35  0.715843  0.257022  0.670169  0.291497
    C  C36  0.569221  0.270872  0.727400  -0.066132
    C  C37  0.424010  0.336260  0.739640  0.188353
    C  C38  0.277276  0.350029  0.796836  -0.196162
    C  C39  0.275820  0.298421  0.841817  -0.211896
    C  C40  0.716670  0.308308  0.624976  -0.309676
    C  C41  0.570847  0.373374  0.636964  0.002763
    C  C42  0.424838  0.387558  0.694405  -0.222488
    H  H12  0.306163  0.192784  0.919892  0.125074
    H  H13  0.826574  0.051562  0.795873  0.101590
    H  H14  0.973240  0.088740  0.693229  0.112209
    H  H15  0.975691  0.180750  0.612922  0.135429
    H  H16  0.830438  0.297013  0.579705  0.135875
    H  H17  0.309941  0.438355  0.703556  0.132097
    H  H18  0.163364  0.401244  0.806388  0.116584
    H  H19  0.160960  0.309242  0.886710  0.133955
    C  C43  0.732765  0.301203  0.256938  -0.008245
    H  H20  0.862314  0.346697  0.262876  0.084620
    C  C44  0.715011  0.230757  0.192418  -0.158392
    H  H21  0.829866  0.221426  0.147691  0.104477
    C  C45  0.550395  0.172410  0.184832  -0.026883
    C  C46  0.403415  0.184754  0.241880  -0.022499
    H  H22  0.273796  0.139286  0.235911  0.089044
    C  C47  0.421166  0.255240  0.306429  -0.150419
    H  H23  0.306240  0.264620  0.351139  0.107601
    C  C48  0.585808  0.313600  0.313977  -0.033752
    O  O11  0.735316  0.013740  0.905353  -0.540677
    O  O12  0.355137  0.053151  0.106818  -0.546522
    O  O13  0.144794  0.906292  0.026447  -0.001900
    C  C49  0.528549  0.098990  0.115795  0.568648
    O  O14  0.451532  0.089149  0.973494  -0.408881
    O  O15  0.234057  0.941710  0.893166  -0.579120
    C  C50  0.569596  0.063957  0.911673  0.681476
    O  O16  0.650248  0.095720  0.058464  -0.356630
    O  O17  0.542478  0.927777  0.986650  -0.478421
    V  V3   0.270325  0.004244  0.000801  1.135009
    O  O18  0.945722  0.884575  0.938649  -0.382148
    C  C51  0.066850  0.889930  0.882201  0.637716
    O  O19  0.853133  0.967446  0.092199  -0.480678
    C  C52  0.024439  0.922704  0.086100  0.405490
    V  V4   0.769878  0.983338  0.997133  1.072479
    O  O20  0.046459  0.059604  0.008706  -0.500569
    C  C53  0.368661  0.803856  0.068512  -0.028866
    O  O21  0.555865  0.814440  0.083755  -0.212478
    C  C54  0.304176  0.765424  0.990485  0.219412
    C  C55  0.453195  0.748645  0.933763  -0.154327
    C  C56  0.395238  0.705330  0.860751  -0.111150
    C  C57  0.188899  0.678270  0.844570  -0.136498
    C  C58  0.039591  0.695563  0.901202  -0.060406
    C  C59  0.097104  0.739448  0.974125  -0.225464
    H  H24  0.616135  0.767895  0.946704  0.117154
    H  H25  0.512014  0.691091  0.816267  0.117502
    H  H26  0.145118  0.642624  0.787563  0.112900
    H  H27  0.878328  0.673373  0.888683  0.079105
    H  H28  0.981092  0.751321  0.018754  0.100314
