# generated using pymatgen
data_ZnH14C12NO4
_symmetry_space_group_name_H-M   'P 1'
_cell_length_a   7.66743800
_cell_length_b   8.95554200
_cell_length_c   15.96061300
_cell_angle_alpha   89.99009300
_cell_angle_beta   83.94208000
_cell_angle_gamma   91.42161400
_symmetry_Int_Tables_number   1
_chemical_formula_structural   ZnH14C12NO4
_chemical_formula_sum   'Zn2 H28 C24 N2 O8'
_cell_volume   1089.49261049
_cell_formula_units_Z   2
loop_
 _symmetry_equiv_pos_site_id
 _symmetry_equiv_pos_as_xyz
  1  'x, y, z'
loop_
 _atom_site_type_symbol
 _atom_site_label
 _atom_site_symmetry_multiplicity
 _atom_site_fract_x
 _atom_site_fract_y
 _atom_site_fract_z
 _atom_site_occupancy
  Zn  Zn1  1  0.28149100  0.48868000  0.50458500  1
  Zn  Zn2  1  0.67752700  0.45558600  0.48381800  1
  H  H1  1  0.46594000  0.70820600  0.07885600  1
  H  H2  1  0.60036800  0.67931500  0.94494900  1
  H  H3  1  0.65603800  0.29124100  0.92709900  1
  H  H4  1  0.76522000  0.46969300  0.90061900  1
  H  H5  1  0.74336400  0.54698400  0.03927200  1
  H  H6  1  0.72127300  0.34865800  0.06078000  1
  H  H7  1  0.20499400  0.41495500  0.95073500  1
  H  H8  1  0.34153200  0.25942100  0.92069100  1
  H  H9  1  0.23185200  0.34196200  0.08441500  1
  H  H10  1  0.26428100  0.61184300  0.05761400  1
  H  H11  1  0.42492600  0.23389700  0.05289900  1
  H  H12  1  0.67068700  0.97613300  0.46603000  1
  H  H13  1  0.01530300  0.37183200  0.42721800  1
  H  H14  1  0.94350700  0.57148100  0.56147700  1
  H  H15  1  0.42419600  0.75760200  0.84236900  1
  H  H16  1  0.10090300  0.75510500  0.86163900  1
  H  H17  1  0.09768600  0.64013900  0.95351300  1
  H  H18  1  0.18617100  0.57150700  0.84957400  1
  H  H19  1  0.25674500  0.85855300  0.01533100  1
  H  H20  1  0.26405100  0.95896900  0.91667300  1
  H  H21  1  0.46501900  0.92565900  0.96302800  1
  H  H22  1  0.24953800  0.86959000  0.59040500  1
  H  H23  1  0.04552000  0.14026800  0.54994300  1
  H  H24  1  0.19804500  0.13974200  0.63105900  1
  H  H25  1  0.01705000  0.00890600  0.63425000  1
  H  H26  1  0.03878600  0.97103000  0.45239000  1
  H  H27  1  0.06666600  0.78590600  0.49201800  1
  H  H28  1  0.23082000  0.87220500  0.41504600  1
  C  C1  1  0.52029300  0.76361000  0.48883700  1
  C  C2  1  0.48205400  0.47870200  0.65778100  1
  C  C3  1  0.43723400  0.18121700  0.50123500  1
  C  C4  1  0.47694900  0.46545500  0.33060900  1
  C  C5  1  0.46629300  0.62851100  0.95149200  1
  C  C6  1  0.65283900  0.41335400  0.93845400  1
  C  C7  1  0.66208500  0.44478200  0.03147200  1
  C  C8  1  0.47642500  0.46480800  0.24072400  1
  C  C9  1  0.48153200  0.47245400  0.91483200  1
  C  C10  1  0.40905200  0.61394700  0.04481600  1
  C  C11  1  0.47746700  0.46703400  0.07351100  1
  C  C12  1  0.36091100  0.34220900  0.04581900  1
  C  C13  1  0.33558700  0.36797100  0.95417400  1
  C  C14  1  0.47662900  0.46540100  0.16521400  1
  C  C15  1  0.48231000  0.47643700  0.82315800  1
  C  C16  1  0.48249600  0.47837700  0.74766100  1
  C  C17  1  0.54228200  0.92767000  0.48645500  1
  C  C18  1  0.40872100  0.01863400  0.50835700  1
  C  C19  1  0.35380400  0.73302200  0.90535400  1
  C  C20  1  0.17360800  0.66880000  0.89249200  1
  C  C21  1  0.33352600  0.87857000  0.95336400  1
  C  C22  1  0.23121900  0.95600500  0.54267100  1
  C  C23  1  0.11744600  0.07038000  0.59146400  1
  C  C24  1  0.13618300  0.89166600  0.47125900  1
  N  N1  1  0.93801800  0.43433500  0.46984500  1
  N  N2  1  0.02100500  0.51002400  0.51839800  1
  O  O1  1  0.36097000  0.70588300  0.49711900  1
  O  O2  1  0.66089700  0.68126900  0.48185700  1
  O  O3  1  0.33122600  0.49002000  0.62675700  1
  O  O4  1  0.63195100  0.46447000  0.61105900  1
  O  O5  1  0.29820800  0.26362200  0.50646900  1
  O  O6  1  0.59827500  0.23768400  0.49102400  1
  O  O7  1  0.32719600  0.47956000  0.37735800  1
  O  O8  1  0.62762900  0.45432100  0.36167600  1
