# Generated by REPEAT Assigner based on pymatgen
data_DB0-m29_o84_o149_f0_pts.sym.26
_audit_creation_date              2022-05-24
_audit_creation_method            REPEAT_Assigner
_cell_length_a                    13.180706
_cell_length_b                    9.461220
_cell_length_c                    15.459959
_cell_angle_alpha                 87.275736
_cell_angle_beta                  99.698816
_cell_angle_gamma                 112.209632
_cell_volume                      1759.115741
_symmetry_space_group_name_H-M    P1
_symmetry_Int_Tables_number       1
loop_
    _symmetry_equiv_pos_site_id
    _symmetry_equiv_pos_as_xyz
    1  x,y,z
loop_
    _atom_site_type_symbol
    _atom_site_label
    _atom_site_fract_x
    _atom_site_fract_y
    _atom_site_fract_z
    _atom_type_partial_charge
    C   C1   0.214980  0.974319  0.907632  0.024603
    C   C2   0.115376  0.963546  0.856879  -0.194130
    C   C3   0.030764  0.973176  0.894577  0.215400
    C   C4   0.933514  0.965801  0.842043  -0.226736
    C   C5   0.848541  0.977685  0.878189  0.001760
    C   C6   0.227778  0.990353  0.998463  -0.068162
    C   C7   0.141318  0.998361  0.036406  0.129171
    C   C8   0.043304  0.991417  0.983959  -0.052376
    C   C9   0.957985  0.003843  0.020639  0.043525
    C   C10  0.860274  0.998149  0.968135  -0.004562
    C   C11  0.773993  0.006637  0.006185  -0.028715
    C   C12  0.152974  0.018491  0.126365  -0.150792
    C   C13  0.067410  0.028056  0.162656  -0.144732
    C   C14  0.970072  0.020223  0.110142  0.163935
    C   C15  0.884648  0.026617  0.148003  -0.180717
    C   C16  0.785629  0.017558  0.097116  0.041645
    H   H1   0.103241  0.950265  0.786438  0.156883
    H   H2   0.923104  0.950577  0.771800  0.148678
    H   H3   0.773882  0.969042  0.833839  0.103723
    H   H4   0.227581  0.026971  0.170728  0.161721
    H   H5   0.077424  0.041870  0.232977  0.141234
    H   H6   0.895861  0.037408  0.218556  0.150567
    O   O1   0.605607  0.032137  0.100447  -0.480831
    C   C17  0.694996  0.014247  0.142474  0.527530
    O   O2   0.510605  0.713843  0.167900  -0.480757
    O   O3   0.702317  0.989177  0.227086  -0.520931
    O   O4   0.484619  0.843758  0.276482  -0.545442
    C   C18  0.497007  0.722187  0.249399  0.556591
    Fe  Fe1  0.497932  0.995394  0.181984  1.442185
    O   O5   0.345686  0.909732  0.110070  -0.602248
    O   O6   0.417942  0.144805  0.052252  -0.489687
    C   C19  0.334651  0.013597  0.053837  0.633055
    O   O7   0.551187  0.201598  0.240166  -0.576919
    O   O8   0.405127  0.074952  0.310154  -0.538472
    C   C20  0.487828  0.201383  0.297359  0.559764
    O   O9   0.447070  0.802070  0.765843  -0.630447
    O   O10  0.587337  0.925105  0.689309  -0.555182
    C   C21  0.509441  0.798504  0.708911  0.712008
    O   O11  0.659902  0.090502  0.892867  -0.618537
    O   O12  0.580796  0.862232  0.956217  -0.496287
    C   C22  0.667765  0.987675  0.951035  0.645203
    O   O13  0.290605  0.975051  0.776087  -0.542493
    O   O14  0.521972  0.159865  0.726843  -0.494544
    C   C23  0.493331  0.269617  0.749725  0.681730
    O   O15  0.401343  0.981622  0.905453  -0.456787
    C   C24  0.304704  0.973662  0.862170  0.558257
    O   O16  0.463830  0.263387  0.827105  -0.417615
    Fe  Fe2  0.506418  0.010166  0.822526  1.375346
    C   C25  0.494869  0.530941  0.726028  0.394233
    C   C26  0.498800  0.653070  0.672407  -0.231785
    C   C27  0.502384  0.644486  0.584694  -0.089939
    C   C28  0.494578  0.398485  0.691059  -0.390932
    C   C29  0.495505  0.389238  0.601459  0.476525
    C   C30  0.497485  0.511081  0.546952  -0.188164
    C   C31  0.496410  0.496688  0.456678  0.253168
    C   C32  0.494438  0.612348  0.397645  -0.267948
    C   C33  0.498023  0.597590  0.310024  0.086910
    N   N1   0.495316  0.260960  0.567684  -0.326913
    C   C34  0.496530  0.245258  0.482109  0.073279
    C   C35  0.495958  0.361766  0.424540  -0.064060
    C   C36  0.497813  0.345960  0.335731  0.031503
    C   C37  0.502134  0.465431  0.279780  -0.180024
    H   H7   0.502664  0.451055  0.210961  0.161947
    H   H8   0.509542  0.746830  0.548929  0.154166
    H   H9   0.489530  0.716470  0.416960  0.178090
    H   H10  0.500358  0.140829  0.460803  0.151458
    N   N2   0.502158  0.546819  0.818430  -0.443907
    H   H11  0.571781  0.643240  0.841545  0.225713
    H   H12  0.429851  0.556553  0.831303  0.320266
