# generated using pymatgen
data_Cu3H12C34(ClO3)4
_symmetry_space_group_name_H-M   'P 1'
_cell_length_a   21.53653300
_cell_length_b   21.53653300
_cell_length_c   29.76998400
_cell_angle_alpha   90.00000000
_cell_angle_beta   90.00000000
_cell_angle_gamma   90.00000000
_symmetry_Int_Tables_number   1
_chemical_formula_structural   Cu3H12C34(ClO3)4
_chemical_formula_sum   'Cu12 H48 C136 Cl16 O48'
_cell_volume   13807.98107030
_cell_formula_units_Z   4
loop_
 _symmetry_equiv_pos_site_id
 _symmetry_equiv_pos_as_xyz
  1  'x, y, z'
loop_
 _atom_site_type_symbol
 _atom_site_label
 _atom_site_symmetry_multiplicity
 _atom_site_fract_x
 _atom_site_fract_y
 _atom_site_fract_z
 _atom_site_occupancy
  Cu  Cu1  1  0.43949800  0.00000000  0.50000000  1
  Cu  Cu2  1  0.00000000  0.56050200  0.50000000  1
  Cu  Cu3  1  0.56050200  0.00000000  0.50000000  1
  Cu  Cu4  1  0.00000000  0.43949800  0.50000000  1
  Cu  Cu5  1  0.93949800  0.50000000  0.00000000  1
  Cu  Cu6  1  0.50000000  0.06050200  0.00000000  1
  Cu  Cu7  1  0.06050200  0.50000000  0.00000000  1
  Cu  Cu8  1  0.50000000  0.93949800  0.00000000  1
  Cu  Cu9  1  0.50000000  0.50000000  0.45616900  1
  Cu  Cu10  1  0.50000000  0.50000000  0.54383100  1
  Cu  Cu11  1  0.00000000  0.00000000  0.95616900  1
  Cu  Cu12  1  0.00000000  0.00000000  0.04383100  1
  H  H1  1  0.39152100  0.89001500  0.79106300  1
  H  H2  1  0.89001600  0.60847900  0.79106300  1
  H  H3  1  0.60847900  0.10998500  0.79106300  1
  H  H4  1  0.10998500  0.39152100  0.79106300  1
  H  H5  1  0.39152100  0.10998500  0.20893800  1
  H  H6  1  0.89001600  0.39152100  0.20893800  1
  H  H7  1  0.60847900  0.89001600  0.20893800  1
  H  H8  1  0.10998500  0.60847900  0.20893800  1
  H  H9  1  0.89152100  0.39001500  0.29106300  1
  H  H10  1  0.39001600  0.10847900  0.29106300  1
  H  H11  1  0.10847900  0.60998500  0.29106300  1
  H  H12  1  0.60998500  0.89152100  0.29106300  1
  H  H13  1  0.89152100  0.60998500  0.70893800  1
  H  H14  1  0.39001600  0.89152100  0.70893800  1
  H  H15  1  0.10847900  0.39001600  0.70893800  1
  H  H16  1  0.60998500  0.10847900  0.70893800  1
  H  H17  1  0.52908900  0.30583300  0.43126100  1
  H  H18  1  0.30583300  0.47091100  0.43126100  1
  H  H19  1  0.47091100  0.69416700  0.43126100  1
  H  H20  1  0.69416700  0.52908900  0.43126100  1
  H  H21  1  0.52908900  0.69416700  0.56873900  1
  H  H22  1  0.30583300  0.52908900  0.56873900  1
  H  H23  1  0.47091100  0.30583300  0.56873900  1
  H  H24  1  0.69416700  0.47091100  0.56873900  1
  H  H25  1  0.02908900  0.80583300  0.93126100  1
  H  H26  1  0.80583300  0.97091100  0.93126100  1
  H  H27  1  0.97091100  0.19416700  0.93126100  1
  H  H28  1  0.19416700  0.02908900  0.93126100  1
  H  H29  1  0.02908900  0.19416700  0.06873900  1
  H  H30  1  0.80583300  0.02908900  0.06873900  1
  H  H31  1  0.97091100  0.80583300  0.06873900  1
  H  H32  1  0.19416700  0.97091100  0.06873900  1
  H  H33  1  0.56841700  0.07168400  0.86056100  1
  H  H34  1  0.07168400  0.43158300  0.86056100  1
  H  H35  1  0.43158300  0.92831600  0.86056100  1
  H  H36  1  0.92831600  0.56841700  0.86056100  1
  H  H37  1  0.56841700  0.92831600  0.13944000  1
  H  H38  1  0.07168400  0.56841700  0.13944000  1
  H  H39  1  0.43158300  0.07168400  0.13944000  1
  H  H40  1  0.92831600  0.43158300  0.13944000  1
  H  H41  1  0.06841700  0.57168400  0.36056100  1
  H  H42  1  0.57168400  0.93158300  0.36056100  1
  H  H43  1  0.93158300  0.42831600  0.36056100  1
  H  H44  1  0.42831600  0.06841700  0.36056100  1
  H  H45  1  0.06841700  0.42831600  0.63944000  1
  H  H46  1  0.57168400  0.06841700  0.63944000  1
  H  H47  1  0.93158300  0.57168400  0.63944000  1
  H  H48  1  0.42831600  0.93158300  0.63944000  1
  C  C1  1  0.50000000  0.11744100  0.50000000  1
  C  C2  1  0.11744100  0.50000000  0.50000000  1
  C  C3  1  0.50000000  0.88255900  0.50000000  1
  C  C4  1  0.88256000  0.50000000  0.50000000  1
  C  C5  1  0.00000000  0.61744100  0.00000000  1
  C  C6  1  0.61744100  0.00000000  0.00000000  1
  C  C7  1  0.00000000  0.38255900  0.00000000  1
  C  C8  1  0.38256000  0.00000000  0.00000000  1
  C  C9  1  0.50000000  0.18536400  0.50000000  1
  C  C10  1  0.18536400  0.50000000  0.50000000  1
  C  C11  1  0.50000000  0.81463600  0.50000000  1
  C  C12  1  0.81463600  0.50000000  0.50000000  1
  C  C13  1  0.00000000  0.68536400  0.00000000  1
  C  C14  1  0.68536400  0.00000000  0.00000000  1
  C  C15  1  0.00000000  0.31463600  0.00000000  1
  C  C16  1  0.31463600  0.00000000  0.00000000  1
  C  C17  1  0.50000000  0.00000000  0.58495600  1
  C  C18  1  0.00000000  0.50000000  0.58495600  1
  C  C19  1  0.50000000  0.00000000  0.41504400  1
  C  C20  1  0.00000000  0.50000000  0.41504400  1
  C  C21  1  0.00000000  0.50000000  0.08495600  1
  C  C22  1  0.50000000  0.00000000  0.08495600  1
  C  C23  1  0.00000000  0.50000000  0.91504400  1
  C  C24  1  0.50000000  0.00000000  0.91504400  1
  C  C25  1  0.51651800  0.28170000  0.46174600  1
  C  C26  1  0.28170000  0.48348200  0.46174600  1
  C  C27  1  0.48348200  0.71830000  0.46174600  1
  C  C28  1  0.71830000  0.51651800  0.46174600  1
  C  C29  1  0.51651800  0.71830000  0.53825400  1
  C  C30  1  0.28170000  0.51651800  0.53825400  1
  C  C31  1  0.48348200  0.28170000  0.53825400  1
  C  C32  1  0.71830000  0.48348200  0.53825400  1
  C  C33  1  0.01651800  0.78170000  0.96174600  1
  C  C34  1  0.78170000  0.98348200  0.96174600  1
  C  C35  1  0.98348300  0.21830000  0.96174600  1
  C  C36  1  0.21830000  0.01651800  0.96174600  1
  C  C37  1  0.01651800  0.21830000  0.03825400  1
  C  C38  1  0.78170000  0.01651800  0.03825400  1
  C  C39  1  0.98348200  0.78170000  0.03825400  1
  C  C40  1  0.21830000  0.98348200  0.03825400  1
  C  C41  1  0.50000000  0.31407800  0.50000000  1
  C  C42  1  0.31407800  0.50000000  0.50000000  1
  C  C43  1  0.50000000  0.68592200  0.50000000  1
  C  C44  1  0.68592200  0.50000000  0.50000000  1
  C  C45  1  0.00000000  0.81407800  0.00000000  1
  C  C46  1  0.81407800  0.00000000  0.00000000  1
  C  C47  1  0.00000000  0.18592200  0.00000000  1
  C  C48  1  0.18592200  0.00000000  0.00000000  1
  C  C49  1  0.38215100  0.50000000  0.50000000  1
  C  C50  1  0.50000000  0.61784900  0.50000000  1
  C  C51  1  0.61784900  0.50000000  0.50000000  1
  C  C52  1  0.50000000  0.38215100  0.50000000  1
  C  C53  1  0.88215100  0.00000000  0.00000000  1
  C  C54  1  0.00000000  0.11784900  0.00000000  1
  C  C55  1  0.11784900  0.00000000  0.00000000  1
  C  C56  1  0.00000000  0.88215100  0.00000000  1
  C  C57  1  0.53796900  0.04041300  0.84265800  1
  C  C58  1  0.04041300  0.46203100  0.84265800  1
  C  C59  1  0.46203100  0.95958700  0.84265800  1
  C  C60  1  0.95958700  0.53796900  0.84265800  1
  C  C61  1  0.53796900  0.95958700  0.15734300  1
  C  C62  1  0.04041300  0.53796900  0.15734300  1
  C  C63  1  0.46203100  0.04041300  0.15734300  1
  C  C64  1  0.95958700  0.46203100  0.15734300  1
  C  C65  1  0.03796900  0.54041300  0.34265800  1
  C  C66  1  0.54041300  0.96203100  0.34265800  1
  C  C67  1  0.96203100  0.45958700  0.34265800  1
  C  C68  1  0.45958700  0.03796900  0.34265800  1
  C  C69  1  0.03796900  0.45958700  0.65734300  1
  C  C70  1  0.54041300  0.03796900  0.65734300  1
  C  C71  1  0.96203100  0.54041300  0.65734300  1
  C  C72  1  0.45958700  0.96203100  0.65734300  1
  C  C73  1  0.50000000  0.00000000  0.86593900  1
  C  C74  1  0.00000000  0.50000000  0.86593900  1
  C  C75  1  0.50000000  0.00000000  0.13406200  1
  C  C76  1  0.00000000  0.50000000  0.13406200  1
  C  C77  1  0.00000000  0.50000000  0.36593900  1
  C  C78  1  0.50000000  0.00000000  0.36593900  1
  C  C79  1  0.00000000  0.50000000  0.63406200  1
  C  C80  1  0.50000000  0.00000000  0.63406200  1
  C  C81  1  0.46138400  0.96025900  0.79633300  1
  C  C82  1  0.96025900  0.53861600  0.79633300  1
  C  C83  1  0.53861600  0.03974100  0.79633300  1
  C  C84  1  0.03974200  0.46138400  0.79633300  1
  C  C85  1  0.46138400  0.03974100  0.20366800  1
  C  C86  1  0.96025900  0.46138400  0.20366800  1
  C  C87  1  0.53861600  0.96025900  0.20366800  1
  C  C88  1  0.03974200  0.53861600  0.20366800  1
  C  C89  1  0.96138400  0.46025900  0.29633300  1
  C  C90  1  0.46025900  0.03861600  0.29633300  1
  C  C91  1  0.03861600  0.53974100  0.29633300  1
  C  C92  1  0.53974200  0.96138400  0.29633300  1
  C  C93  1  0.96138400  0.53974100  0.70366800  1
  C  C94  1  0.46025900  0.96138400  0.70366800  1
  C  C95  1  0.03861600  0.46025900  0.70366800  1
  C  C96  1  0.53974200  0.03861600  0.70366800  1
  C  C97  1  0.50000000  0.00000000  0.77316600  1
  C  C98  1  0.00000000  0.50000000  0.77316600  1
  C  C99  1  0.50000000  0.00000000  0.22683400  1
  C  C100  1  0.00000000  0.50000000  0.22683400  1
  C  C101  1  0.00000000  0.50000000  0.27316600  1
  C  C102  1  0.50000000  0.00000000  0.27316600  1
  C  C103  1  0.00000000  0.50000000  0.72683400  1
  C  C104  1  0.50000000  0.00000000  0.72683400  1
  C  C105  1  0.42205200  0.92119500  0.77313400  1
  C  C106  1  0.92119500  0.57794800  0.77313400  1
  C  C107  1  0.57794800  0.07880500  0.77313400  1
  C  C108  1  0.07880600  0.42205200  0.77313400  1
  C  C109  1  0.42205200  0.07880500  0.22686600  1
  C  C110  1  0.92119500  0.42205200  0.22686600  1
  C  C111  1  0.57794800  0.92119500  0.22686600  1
  C  C112  1  0.07880500  0.57794800  0.22686600  1
  C  C113  1  0.92205200  0.42119500  0.27313400  1
  C  C114  1  0.42119500  0.07794800  0.27313400  1
  C  C115  1  0.07794800  0.57880500  0.27313400  1
  C  C116  1  0.57880600  0.92205200  0.27313400  1
  C  C117  1  0.92205200  0.57880500  0.72686600  1
  C  C118  1  0.42119500  0.92205200  0.72686600  1
  C  C119  1  0.07794800  0.42119500  0.72686600  1
  C  C120  1  0.57880500  0.07794800  0.72686600  1
  C  C121  1  0.51663300  0.21769900  0.46170300  1
  C  C122  1  0.21769900  0.48336700  0.46170300  1
  C  C123  1  0.48336700  0.78230100  0.46170300  1
  C  C124  1  0.78230100  0.51663300  0.46170300  1
  C  C125  1  0.51663300  0.78230100  0.53829700  1
  C  C126  1  0.21769900  0.51663300  0.53829700  1
  C  C127  1  0.48336700  0.21769900  0.53829700  1
  C  C128  1  0.78230100  0.48336700  0.53829700  1
  C  C129  1  0.01663300  0.71769900  0.96170300  1
  C  C130  1  0.71769900  0.98336700  0.96170300  1
  C  C131  1  0.98336700  0.28230100  0.96170300  1
  C  C132  1  0.28230100  0.01663300  0.96170300  1
  C  C133  1  0.01663300  0.28230100  0.03829700  1
  C  C134  1  0.71769900  0.01663300  0.03829700  1
  C  C135  1  0.98336700  0.71769900  0.03829700  1
  C  C136  1  0.28230100  0.98336700  0.03829700  1
  Cl  Cl1  1  0.53448600  0.17855200  0.41168500  1
  Cl  Cl2  1  0.17855200  0.46551400  0.41168500  1
  Cl  Cl3  1  0.46551400  0.82144800  0.41168500  1
  Cl  Cl4  1  0.82144800  0.53448600  0.41168500  1
  Cl  Cl5  1  0.53448600  0.82144800  0.58831500  1
  Cl  Cl6  1  0.17855200  0.53448600  0.58831500  1
  Cl  Cl7  1  0.46551400  0.17855200  0.58831500  1
  Cl  Cl8  1  0.82144800  0.46551400  0.58831500  1
  Cl  Cl9  1  0.03448600  0.67855200  0.91168500  1
  Cl  Cl10  1  0.67855200  0.96551400  0.91168500  1
  Cl  Cl11  1  0.96551400  0.32144800  0.91168500  1
  Cl  Cl12  1  0.32144800  0.03448600  0.91168500  1
  Cl  Cl13  1  0.03448600  0.32144800  0.08831500  1
  Cl  Cl14  1  0.67855200  0.03448600  0.08831500  1
  Cl  Cl15  1  0.96551400  0.67855200  0.08831500  1
  Cl  Cl16  1  0.32144800  0.96551400  0.08831500  1
  O  O1  1  0.44900700  0.08834100  0.51299200  1
  O  O2  1  0.08834100  0.55099300  0.51299200  1
  O  O3  1  0.55099300  0.91165900  0.51299200  1
  O  O4  1  0.91165900  0.44900700  0.51299200  1
  O  O5  1  0.44900700  0.91165900  0.48700900  1
  O  O6  1  0.08834100  0.44900700  0.48700900  1
  O  O7  1  0.55099300  0.08834100  0.48700900  1
  O  O8  1  0.91165900  0.55099300  0.48700900  1
  O  O9  1  0.94900700  0.58834100  0.01299200  1
  O  O10  1  0.58834100  0.05099300  0.01299200  1
  O  O11  1  0.05099300  0.41165900  0.01299200  1
  O  O12  1  0.41165900  0.94900700  0.01299200  1
  O  O13  1  0.94900700  0.41165900  0.98700900  1
  O  O14  1  0.58834100  0.94900700  0.98700900  1
  O  O15  1  0.05099400  0.58834100  0.98700900  1
  O  O16  1  0.41165900  0.05099300  0.98700900  1
  O  O17  1  0.44904900  0.98187500  0.56392100  1
  O  O18  1  0.98187500  0.55095100  0.56392100  1
  O  O19  1  0.55095100  0.01812500  0.56392100  1
  O  O20  1  0.01812500  0.44904900  0.56392100  1
  O  O21  1  0.44904900  0.01812500  0.43607900  1
  O  O22  1  0.98187500  0.44904900  0.43607900  1
  O  O23  1  0.55095100  0.98187500  0.43607900  1
  O  O24  1  0.01812500  0.55095100  0.43607900  1
  O  O25  1  0.94904900  0.48187500  0.06392100  1
  O  O26  1  0.48187500  0.05095100  0.06392100  1
  O  O27  1  0.05095100  0.51812500  0.06392100  1
  O  O28  1  0.51812500  0.94904900  0.06392100  1
  O  O29  1  0.94904900  0.51812500  0.93607900  1
  O  O30  1  0.48187500  0.94904900  0.93607900  1
  O  O31  1  0.05095100  0.48187500  0.93607900  1
  O  O32  1  0.51812500  0.05095100  0.93607900  1
  O  O33  1  0.41134800  0.48281800  0.46299400  1
  O  O34  1  0.48281800  0.58865200  0.46299400  1
  O  O35  1  0.58865300  0.51718200  0.46299400  1
  O  O36  1  0.51718200  0.41134800  0.46299400  1
  O  O37  1  0.41134800  0.51718200  0.53700600  1
  O  O38  1  0.48281900  0.41134800  0.53700600  1
  O  O39  1  0.58865300  0.48281800  0.53700600  1
  O  O40  1  0.51718200  0.58865200  0.53700600  1
  O  O41  1  0.91134800  0.98281800  0.96299400  1
  O  O42  1  0.98281900  0.08865200  0.96299400  1
  O  O43  1  0.08865300  0.01718200  0.96299400  1
  O  O44  1  0.01718200  0.91134800  0.96299400  1
  O  O45  1  0.91134800  0.01718200  0.03700600  1
  O  O46  1  0.98281900  0.91134800  0.03700600  1
  O  O47  1  0.08865300  0.98281800  0.03700600  1
  O  O48  1  0.01718200  0.08865200  0.03700600  1
