# Generated by REPEAT Assigner based on pymatgen
data_DB0-m29_o99_o500_f0_pts.sym.69
_audit_creation_date              2022-05-24
_audit_creation_method            REPEAT_Assigner
_cell_length_a                    15.870027
_cell_length_b                    12.778395
_cell_length_c                    13.866184
_cell_angle_alpha                 68.705828
_cell_angle_beta                  97.457289
_cell_angle_gamma                 109.007524
_cell_volume                      2476.928838
_symmetry_space_group_name_H-M    P1
_symmetry_Int_Tables_number       1
loop_
    _symmetry_equiv_pos_site_id
    _symmetry_equiv_pos_as_xyz
    1  x,y,z
loop_
    _atom_site_type_symbol
    _atom_site_label
    _atom_site_fract_x
    _atom_site_fract_y
    _atom_site_fract_z
    _atom_type_partial_charge
    C   C1   0.223804  0.972999  0.856709  -0.116174
    H   H1   0.234139  0.968935  0.782786  0.159097
    C   C2   0.141196  0.970993  0.878755  -0.223478
    H   H2   0.087041  0.962816  0.823383  0.142800
    C   C3   0.128451  0.983844  0.969479  0.317247
    C   C4   0.197332  0.993131  0.040629  -0.214969
    H   H3   0.184779  0.999220  0.112850  0.166881
    C   C5   0.280731  0.993822  0.019914  0.049436
    C   C6   0.294450  0.988005  0.924971  -0.022233
    C   C7   0.043247  0.988204  0.989054  -0.209732
    C   C8   0.971383  0.992238  0.003952  -0.058766
    C   C9   0.817019  0.989193  0.949027  0.211273
    C   C10  0.732051  0.983460  0.971759  -0.089584
    C   C11  0.718544  0.988983  0.066986  0.019026
    C   C12  0.789022  0.003747  0.135414  -0.206231
    H   H4   0.778499  0.006919  0.209636  0.184252
    C   C13  0.871574  0.005653  0.113685  -0.079697
    H   H5   0.925305  0.012309  0.169803  0.146909
    C   C14  0.885351  0.995867  0.021983  0.030384
    O   O1   0.543633  0.176144  0.664521  -0.642150
    C   C15  0.477802  0.181154  0.596658  0.586941
    O   O2   0.446499  0.106576  0.887923  -0.497629
    O   O3   0.404504  0.091836  0.616107  -0.555065
    O   O4   0.394527  0.944554  0.839978  -0.526439
    C   C16  0.383114  0.009906  0.888520  0.630367
    Fe  Fe1  0.511257  0.016660  0.770429  1.431516
    O   O5   0.595209  0.023149  0.891032  -0.494171
    O   O6   0.660693  0.933677  0.822116  -0.454093
    C   C17  0.659307  0.977876  0.893475  0.567336
    O   O7   0.515481  0.919151  0.686781  -0.540066
    O   O8   0.456395  0.755949  0.825591  -0.492729
    C   C18  0.484717  0.804074  0.729941  0.609438
    O   O9   0.498225  0.058777  0.306128  -0.515624
    O   O10  0.541746  0.221911  0.162128  -0.489876
    C   C19  0.520140  0.173549  0.260212  0.581764
    O   O11  0.420693  0.963173  0.096882  -0.470013
    O   O12  0.338644  0.015676  0.183324  -0.497042
    C   C20  0.350583  0.994587  0.101125  0.509330
    O   O13  0.602425  0.880978  0.377459  -0.555990
    O   O14  0.620247  0.031137  0.155442  -0.558943
    C   C21  0.630042  0.968379  0.103204  0.650905
    O   O15  0.463997  0.801778  0.323967  -0.625933
    C   C22  0.527718  0.793932  0.394455  0.585773
    O   O16  0.564802  0.875102  0.099378  -0.513481
    Fe  Fe2  0.501760  0.962687  0.220778  1.433800
    C   C23  0.504623  0.787207  0.564873  -0.165836
    C   C24  0.503251  0.724505  0.502145  0.051977
    C   C25  0.483227  0.603006  0.543007  0.098942
    C   C26  0.460526  0.546444  0.646832  -0.110483
    H   H6   0.441156  0.451561  0.680726  0.110881
    C   C27  0.459933  0.610261  0.708777  -0.157139
    C   C28  0.483040  0.731586  0.667920  0.035757
    C   C29  0.486747  0.536803  0.476522  -0.179374
    C   C30  0.510300  0.437557  0.513611  -0.207531
    H   H7   0.470599  0.571235  0.395198  0.195405
    H   H8   0.526335  0.403371  0.595027  0.197263
    C   C31  0.499054  0.251090  0.488238  0.058648
    C   C32  0.499818  0.189228  0.425596  -0.186752
    C   C33  0.519313  0.245183  0.322008  0.044198
    C   C34  0.538113  0.365988  0.280504  -0.140447
    C   C35  0.535825  0.428963  0.342498  -0.130807
    H   H9   0.552549  0.523601  0.307964  0.115578
    C   C36  0.515119  0.372075  0.446923  0.113859
    H   H10  0.521419  0.881877  0.530457  0.155988
    H   H11  0.441851  0.564319  0.789177  0.152038
    H   H12  0.486184  0.094978  0.460585  0.169588
    H   H13  0.554635  0.412243  0.199700  0.147274
    N   N1   0.834120  0.987672  0.852027  -0.335504
    C   C37  0.882193  0.098479  0.782574  0.330440
    C   C38  0.941088  0.102941  0.714857  -0.219190
    C   C39  0.988268  0.209523  0.646213  -0.061717
    C   C40  0.976479  0.312439  0.644069  -0.090970
    C   C41  0.916989  0.308693  0.710157  -0.088955
    C   C42  0.869647  0.202319  0.779047  -0.177359
    H   H14  0.860750  0.922014  0.858275  0.286745
    H   H15  0.950750  0.022949  0.715033  0.138662
    H   H16  0.034450  0.212273  0.593847  0.114823
    H   H17  0.013391  0.395958  0.590114  0.115323
    H   H18  0.907074  0.389405  0.707726  0.126907
    H   H19  0.822478  0.202820  0.828296  0.127403
