# generated using pymatgen
data_FeH11C28O9
_symmetry_space_group_name_H-M   'P 1'
_cell_length_a   17.48019000
_cell_length_b   14.52962000
_cell_length_c   13.26643500
_cell_angle_alpha   86.90568900
_cell_angle_beta   81.97615500
_cell_angle_gamma   111.53380100
_symmetry_Int_Tables_number   1
_chemical_formula_structural   FeH11C28O9
_chemical_formula_sum   'Fe2 H22 C56 O18'
_cell_volume   3083.23689190
_cell_formula_units_Z   2
loop_
 _symmetry_equiv_pos_site_id
 _symmetry_equiv_pos_as_xyz
  1  'x, y, z'
loop_
 _atom_site_type_symbol
 _atom_site_label
 _atom_site_symmetry_multiplicity
 _atom_site_fract_x
 _atom_site_fract_y
 _atom_site_fract_z
 _atom_site_occupancy
  Fe  Fe1  1  0.50488700  0.00703300  0.22172800  1
  Fe  Fe2  1  0.50010000  0.99511200  0.77587500  1
  H  H1  1  0.25140500  0.97772300  0.23313800  1
  H  H2  1  0.11595800  0.96812200  0.29349400  1
  H  H3  1  0.23577900  0.98188100  0.79493700  1
  H  H4  1  0.98682800  0.97144700  0.26626900  1
  H  H5  1  0.11028200  0.98386500  0.76284300  1
  H  H6  1  0.89300800  0.01595200  0.23559200  1
  H  H7  1  0.01893600  0.03326600  0.73186600  1
  H  H8  1  0.76762700  0.01770100  0.20316500  1
  H  H9  1  0.88992800  0.03703400  0.70420500  1
  H  H10  1  0.75422600  0.02681300  0.76424000  1
  H  H11  1  0.50943600  0.36195700  0.63660900  1
  H  H12  1  0.48239000  0.63228200  0.36703800  1
  H  H13  1  0.53710300  0.12891400  0.47189300  1
  H  H14  1  0.47881500  0.88086000  0.52190700  1
  H  H15  1  0.42086600  0.46365400  0.44665500  1
  H  H16  1  0.56965600  0.53118900  0.55780300  1
  H  H17  1  0.55623100  0.36993600  0.18203500  1
  H  H18  1  0.45803700  0.41565200  0.06889900  1
  H  H19  1  0.32102100  0.39541400  0.19534900  1
  H  H20  1  0.43746200  0.49207000  0.73492400  1
  H  H21  1  0.51610900  0.48370200  0.89063100  1
  H  H22  1  0.63970200  0.65833100  0.87713600  1
  C  C1  1  0.24162400  0.98339200  0.15476900  1
  C  C2  1  0.10608000  0.97749400  0.21559200  1
  C  C3  1  0.30625600  0.99708500  0.07615000  1
  C  C4  1  0.29435400  0.00633900  0.97503300  1
  C  C5  1  0.16716800  0.98543600  0.13502600  1
  C  C6  1  0.15346100  0.99431700  0.03602100  1
  C  C7  1  0.21553400  0.99944000  0.95596900  1
  C  C8  1  0.19563600  0.99227800  0.85880600  1
  C  C9  1  0.03184100  0.98149900  0.19847700  1
  C  C10  1  0.01699700  0.99418000  0.09913600  1
  C  C11  1  0.07745400  0.99674700  0.01765500  1
  C  C12  1  0.06225000  0.00120600  0.91806900  1
  C  C13  1  0.12069600  0.99306300  0.84021800  1
  C  C14  1  0.88324600  0.00787900  0.15788600  1
  C  C15  1  0.94225900  0.00094500  0.07995500  1
  C  C16  1  0.92724400  0.00581500  0.98027900  1
  C  C17  1  0.98781200  0.00865700  0.89884700  1
  C  C18  1  0.97348300  0.02238800  0.79945500  1
  C  C19  1  0.80827100  0.00843600  0.13912200  1
  C  C20  1  0.78891800  0.00246200  0.04167300  1
  C  C21  1  0.85132800  0.00838400  0.96171900  1
  C  C22  1  0.83804200  0.01817500  0.86260900  1
  C  C23  1  0.71024900  0.99581700  0.02228900  1
  C  C24  1  0.69881400  0.00608800  0.92113500  1
  C  C25  1  0.89943100  0.02681300  0.78214600  1
  C  C26  1  0.76371200  0.02046900  0.84267300  1
  C  C27  1  0.64029800  0.98045200  0.10663500  1
  C  C28  1  0.47341600  0.81682000  0.33969200  1
  C  C29  1  0.38751400  0.01026800  0.10433900  1
  C  C30  1  0.48623600  0.16775100  0.30991400  1
  C  C31  1  0.52003900  0.83567800  0.68738800  1
  C  C32  1  0.61762000  0.99278500  0.89279800  1
  C  C33  1  0.53012300  0.18386700  0.65807800  1
  C  C34  1  0.36397300  0.02114600  0.89038200  1
  C  C35  1  0.50179500  0.23167400  0.39177500  1
  C  C36  1  0.48008800  0.31388800  0.39485700  1
  C  C37  1  0.48820200  0.36526100  0.48080200  1
  C  C38  1  0.50987400  0.32731400  0.56659900  1
  C  C39  1  0.52534900  0.24034400  0.56508600  1
  C  C40  1  0.52540900  0.19678500  0.47544800  1
  C  C41  1  0.47155900  0.45783000  0.48131000  1
  C  C42  1  0.51867600  0.53603200  0.52271600  1
  C  C43  1  0.51397400  0.68183400  0.60816300  1
  C  C44  1  0.50404400  0.77186300  0.60558300  1
  C  C45  1  0.48414600  0.80919300  0.52044800  1
  C  C46  1  0.47740200  0.76102900  0.43362000  1
  C  C47  1  0.48479400  0.66916300  0.43577700  1
  C  C48  1  0.50230800  0.62866400  0.52349800  1
  C  C49  1  0.45086300  0.34681600  0.30646300  1
  C  C50  1  0.49485900  0.37007900  0.20814800  1
  C  C51  1  0.44491200  0.39348100  0.15042500  1
  C  C52  1  0.37388300  0.38257700  0.21724600  1
  C  C53  1  0.53512500  0.64348100  0.70071000  1
  C  C54  1  0.49191500  0.55005000  0.75288600  1
  C  C55  1  0.53168500  0.54587000  0.83275500  1
  C  C56  1  0.59582500  0.63709800  0.82457300  1
  O  O1  1  0.58767100  0.02437700  0.09693600  1
  O  O2  1  0.46410700  0.77665300  0.25370200  1
  O  O3  1  0.62900700  0.92122000  0.19010000  1
  O  O4  1  0.48986900  0.91249400  0.34297500  1
  O  O5  1  0.39145200  0.95262600  0.18176000  1
  O  O6  1  0.45349400  0.08957100  0.06474500  1
  O  O7  1  0.54757100  0.14378400  0.26669100  1
  O  O8  1  0.40889600  0.10986400  0.30715100  1
  O  O9  1  0.45810700  0.85765600  0.73230500  1
  O  O10  1  0.59693300  0.89776300  0.68552500  1
  O  O11  1  0.61350900  0.05085400  0.81590300  1
  O  O12  1  0.55183800  0.91300200  0.93172000  1
  O  O13  1  0.37444100  0.07907000  0.80622300  1
  O  O14  1  0.51475200  0.08848000  0.65373600  1
  O  O15  1  0.41714100  0.97811800  0.90049500  1
  O  O16  1  0.53781400  0.22274800  0.74492700  1
  O  O17  1  0.37691100  0.35377300  0.31252900  1
  O  O18  1  0.59815400  0.69715000  0.74447100  1
