# generated using pymatgen
data_FeH15C36N2Cl3O8
_symmetry_space_group_name_H-M   'P 1'
_cell_length_a   15.88121700
_cell_length_b   17.03221700
_cell_length_c   11.86802600
_cell_angle_alpha   71.81966800
_cell_angle_beta   96.67007200
_cell_angle_gamma   98.08709600
_symmetry_Int_Tables_number   1
_chemical_formula_structural   FeH15C36N2Cl3O8
_chemical_formula_sum   'Fe2 H30 C72 N4 Cl6 O16'
_cell_volume   3010.70015355
_cell_formula_units_Z   2
loop_
 _symmetry_equiv_pos_site_id
 _symmetry_equiv_pos_as_xyz
  1  'x, y, z'
loop_
 _atom_site_type_symbol
 _atom_site_label
 _atom_site_symmetry_multiplicity
 _atom_site_fract_x
 _atom_site_fract_y
 _atom_site_fract_z
 _atom_site_occupancy
  Fe  Fe1  1  0.51061200  0.00281100  0.74100100  1
  Fe  Fe2  1  0.51399400  0.00720800  0.24628500  1
  H  H1  1  0.18737300  0.98071500  0.14486200  1
  H  H2  1  0.83799600  0.99022000  0.86192300  1
  H  H3  1  0.76857300  0.95688800  0.26766400  1
  H  H4  1  0.45054500  0.57240100  0.72857900  1
  H  H5  1  0.54218900  0.43847300  0.24357200  1
  H  H6  1  0.50398300  0.27109000  0.58927400  1
  H  H7  1  0.27591400  0.24519000  0.46745700  1
  H  H8  1  0.25277100  0.14716800  0.34954100  1
  H  H9  1  0.22656100  0.99708500  0.44921800  1
  H  H10  1  0.21773400  0.94500600  0.66598200  1
  H  H11  1  0.69560000  0.32804700  0.95928400  1
  H  H12  1  0.58668900  0.38760800  0.80290800  1
  H  H13  1  0.44999000  0.41245100  0.85703700  1
  H  H14  1  0.42200300  0.37709700  0.06729400  1
  H  H15  1  0.91664700  0.91517000  0.65104900  1
  H  H16  1  0.87104900  0.05381100  0.55045200  1
  H  H17  1  0.95542900  0.17763200  0.58588700  1
  H  H18  1  0.08414000  0.16281300  0.72358700  1
  H  H19  1  0.05124300  0.03087100  0.44528800  1
  H  H20  1  0.09724300  0.89023200  0.52034700  1
  H  H21  1  0.03826200  0.78458200  0.42286600  1
  H  H22  1  0.93152600  0.81836000  0.25280800  1
  H  H23  1  0.50218300  0.73311200  0.10465700  1
  H  H24  1  0.65749300  0.75286900  0.09248000  1
  H  H25  1  0.75307200  0.76787100  0.26479100  1
  H  H26  1  0.69346200  0.75929300  0.45074500  1
  H  H27  1  0.42078000  0.56843500  0.11018900  1
  H  H28  1  0.28141700  0.62096900  0.08733100  1
  H  H29  1  0.23018900  0.71258800  0.89413500  1
  H  H30  1  0.31707100  0.74994700  0.72330200  1
  C  C1  1  0.23046300  0.03625400  0.81630000  1
  C  C2  1  0.14812600  0.02148700  0.85009500  1
  C  C3  1  0.13371100  0.00033100  0.96798000  1
  C  C4  1  0.20137900  0.99546900  0.05318100  1
  C  C5  1  0.28521000  0.00899300  0.02194200  1
  C  C6  1  0.29941700  0.02740800  0.90131200  1
  C  C7  1  0.04689900  0.98785900  0.99886900  1
  C  C8  1  0.97285300  0.97947500  0.01877200  1
  C  C9  1  0.82089400  0.98178800  0.95073200  1
  C  C10  1  0.73651700  0.98101900  0.97249000  1
  C  C11  1  0.71859200  0.97424200  0.08797400  1
  C  C12  1  0.78315700  0.96459300  0.17784800  1
  C  C13  1  0.86534300  0.96152300  0.15597200  1
  C  C14  1  0.88487000  0.97243700  0.04212700  1
  C  C15  1  0.49367700  0.13251300  0.53783100  1
  C  C16  1  0.38398800  0.03229500  0.85951500  1
  C  C17  1  0.67011000  0.99104700  0.87191100  1
  C  C18  1  0.49931600  0.85098900  0.70158000  1
  C  C19  1  0.49981400  0.15842900  0.27856600  1
  C  C20  1  0.35442300  0.00229900  0.11920600  1
  C  C21  1  0.63428900  0.97877500  0.12173500  1
  C  C22  1  0.53460900  0.87575000  0.44913100  1
  C  C23  1  0.52157100  0.79311400  0.53594400  1
  C  C24  1  0.53005600  0.72550400  0.49781400  1
  C  C25  1  0.50852100  0.64438000  0.56929600  1
  C  C26  1  0.47411900  0.63373500  0.67518700  1
  C  C27  1  0.46749300  0.70012000  0.71571800  1
  C  C28  1  0.49533000  0.78121500  0.64925300  1
  C  C29  1  0.52285000  0.43407100  0.46599400  1
  C  C30  1  0.51598300  0.56918300  0.53412500  1
  C  C31  1  0.53081500  0.37600400  0.30280600  1
  C  C32  1  0.52544400  0.31038900  0.25686100  1
  C  C33  1  0.50868200  0.22868000  0.32968500  1
  C  C34  1  0.50414700  0.21547700  0.45143100  1
  C  C35  1  0.50949200  0.28239400  0.49547700  1
  C  C36  1  0.52108800  0.36270000  0.42126200  1
  C  C37  1  0.24357000  0.06583700  0.68912800  1
  C  C38  1  0.26063800  0.15009000  0.63306700  1
  C  C39  1  0.26360500  0.17920300  0.51120100  1
  C  C40  1  0.25027200  0.12432200  0.44503600  1
  C  C41  1  0.23538500  0.04012500  0.50102100  1
  C  C42  1  0.23124600  0.01091500  0.62275400  1
  C  C43  1  0.54234600  0.33080900  0.13175400  1
  C  C44  1  0.61956000  0.31789000  0.10123400  1
  C  C45  1  0.63527000  0.33824200  0.98311900  1
  C  C46  1  0.57426200  0.37183300  0.89541000  1
  C  C47  1  0.49773100  0.38583700  0.92574400  1
  C  C48  1  0.48205100  0.36598300  0.04377800  1
  C  C49  1  0.07473400  0.03075100  0.76194400  1
  C  C50  1  0.02719400  0.96124700  0.74179300  1
  C  C51  1  0.95402600  0.96962900  0.66611400  1
  C  C52  1  0.92841100  0.04734000  0.60976700  1
  C  C53  1  0.97583900  0.11674900  0.62938600  1
  C  C54  1  0.04857700  0.10844500  0.70590600  1
  C  C55  1  0.93090200  0.94343000  0.25432200  1
  C  C56  1  0.96427100  0.00294500  0.30871200  1
  C  C57  1  0.02471000  0.98402500  0.40337300  1
  C  C58  1  0.05077100  0.90543700  0.44503300  1
  C  C59  1  0.01767200  0.84610500  0.39048800  1
  C  C60  1  0.95799200  0.86519000  0.29494600  1
  C  C61  1  0.56398300  0.74196800  0.38209900  1
  C  C62  1  0.51026300  0.73485600  0.28457200  1
  C  C63  1  0.54404100  0.73863700  0.18082500  1
  C  C64  1  0.63120600  0.75008900  0.17384000  1
  C  C65  1  0.68474700  0.75902500  0.27015100  1
  C  C66  1  0.65121400  0.75512400  0.37406000  1
  C  C67  1  0.41931200  0.68188300  0.82091100  1
  C  C68  1  0.44799800  0.63034000  0.92986500  1
  C  C69  1  0.39817500  0.60841300  0.02506400  1
  C  C70  1  0.32014700  0.63808100  0.01242700  1
  C  C71  1  0.29158600  0.68963600  0.90429200  1
  C  C72  1  0.34079200  0.71110000  0.80862600  1
  N  N1  1  0.47668200  0.49474500  0.59379800  1
  N  N2  1  0.48013200  0.42803500  0.56041200  1
  N  N3  1  0.56380900  0.50763100  0.40820100  1
  N  N4  1  0.56104300  0.57374500  0.44263600  1
  Cl  Cl1  1  0.27509800  0.22094100  0.71541200  1
  Cl  Cl2  1  0.69860300  0.27726200  0.21173800  1
  Cl  Cl3  1  0.05831100  0.86198200  0.81413900  1
  Cl  Cl4  1  0.93176500  0.10301700  0.25670100  1
  Cl  Cl5  1  0.39957100  0.71699200  0.29392200  1
  Cl  Cl6  1  0.54877200  0.59486700  0.95045200  1
  O  O1  1  0.54796200  0.11320800  0.63167100  1
  O  O2  1  0.44070800  0.09648900  0.85831100  1
  O  O3  1  0.42712400  0.07969600  0.52698700  1
  O  O4  1  0.39799100  0.97763600  0.80810100  1
  O  O5  1  0.58922300  0.98672600  0.88955900  1
  O  O6  1  0.69179500  0.00327600  0.76386600  1
  O  O7  1  0.51041300  0.92952200  0.63725300  1
  O  O8  1  0.49835600  0.83475400  0.81704300  1
  O  O9  1  0.51416900  0.08352600  0.34545400  1
  O  O10  1  0.47904300  0.17019600  0.16473200  1
  O  O11  1  0.43541500  0.02025600  0.09771500  1
  O  O12  1  0.33428200  0.98110400  0.22968200  1
  O  O13  1  0.60700400  0.92302800  0.45313900  1
  O  O14  1  0.62675200  0.03083600  0.18001600  1
  O  O15  1  0.47668200  0.89847800  0.35995200  1
  O  O16  1  0.57144800  0.92100300  0.11643600  1
