# generated using pymatgen
data_ZnH11C17NO4
_symmetry_space_group_name_H-M   'P 1'
_cell_length_a   8.58272000
_cell_length_b   11.00367100
_cell_length_c   13.42195500
_cell_angle_alpha   90.00000000
_cell_angle_beta   90.00000000
_cell_angle_gamma   90.00000000
_symmetry_Int_Tables_number   1
_chemical_formula_structural   ZnH11C17NO4
_chemical_formula_sum   'Zn2 H22 C34 N2 O8'
_cell_volume   1267.58858555
_cell_formula_units_Z   2
loop_
 _symmetry_equiv_pos_site_id
 _symmetry_equiv_pos_as_xyz
  1  'x, y, z'
loop_
 _atom_site_type_symbol
 _atom_site_label
 _atom_site_symmetry_multiplicity
 _atom_site_fract_x
 _atom_site_fract_y
 _atom_site_fract_z
 _atom_site_occupancy
  Zn  Zn1  1  0.00000000  0.00000000  0.88918000  1
  Zn  Zn2  1  0.00000000  0.00000000  0.11082000  1
  H  H1  1  0.50000000  0.90965300  0.00000000  1
  H  H2  1  0.50000000  0.09034700  0.00000000  1
  H  H3  1  0.14034200  0.60008100  0.06688700  1
  H  H4  1  0.85965800  0.39991900  0.93311300  1
  H  H5  1  0.85965800  0.39991900  0.06688700  1
  H  H6  1  0.14034200  0.60008100  0.93311300  1
  H  H7  1  0.14034200  0.39991900  0.93311300  1
  H  H8  1  0.85965800  0.60008100  0.06688700  1
  H  H9  1  0.85965800  0.60008100  0.93311300  1
  H  H10  1  0.14034200  0.39991900  0.06688700  1
  H  H11  1  0.00000000  0.80940700  0.25042600  1
  H  H12  1  0.00000000  0.19059300  0.74957400  1
  H  H13  1  0.00000000  0.19059300  0.25042600  1
  H  H14  1  0.00000000  0.80940700  0.74957400  1
  H  H15  1  0.10433600  0.72004200  0.41779700  1
  H  H16  1  0.89566400  0.27995800  0.58220300  1
  H  H17  1  0.89566400  0.27995800  0.41779700  1
  H  H18  1  0.10433600  0.72004200  0.58220300  1
  H  H19  1  0.10433600  0.27995800  0.58220300  1
  H  H20  1  0.89566400  0.72004200  0.41779700  1
  H  H21  1  0.89566400  0.72004200  0.58220300  1
  H  H22  1  0.10433600  0.27995800  0.41779700  1
  C  C1  1  0.78051800  0.82933200  0.00000000  1
  C  C2  1  0.21948200  0.17066800  0.00000000  1
  C  C3  1  0.78051800  0.17066800  0.00000000  1
  C  C4  1  0.21948200  0.82933200  0.00000000  1
  C  C5  1  0.50000000  0.56592800  0.00000000  1
  C  C6  1  0.50000000  0.43407200  0.00000000  1
  C  C7  1  0.35962600  0.62911600  0.00000000  1
  C  C8  1  0.64037400  0.37088400  0.00000000  1
  C  C9  1  0.35962600  0.37088400  0.00000000  1
  C  C10  1  0.64037400  0.62911600  0.00000000  1
  C  C11  1  0.50000000  0.81402600  0.00000000  1
  C  C12  1  0.50000000  0.18597400  0.00000000  1
  C  C13  1  0.36110600  0.75446700  0.00000000  1
  C  C14  1  0.63889400  0.24553300  0.00000000  1
  C  C15  1  0.36110600  0.24553300  0.00000000  1
  C  C16  1  0.63889400  0.75446700  0.00000000  1
  C  C17  1  0.20468200  0.56896400  0.00000000  1
  C  C18  1  0.79531800  0.43103600  0.00000000  1
  C  C19  1  0.20468200  0.43103600  0.00000000  1
  C  C20  1  0.79531800  0.56896400  0.00000000  1
  C  C21  1  0.00000000  0.10597700  0.29134000  1
  C  C22  1  0.00000000  0.89402300  0.70866000  1
  C  C23  1  0.00000000  0.89402300  0.29134000  1
  C  C24  1  0.00000000  0.10597700  0.70866000  1
  C  C25  1  0.00000000  0.89197700  0.39410200  1
  C  C26  1  0.00000000  0.10802300  0.60589800  1
  C  C27  1  0.00000000  0.10802300  0.39410200  1
  C  C28  1  0.00000000  0.89197700  0.60589800  1
  C  C29  1  0.00000000  0.00000000  0.44613700  1
  C  C30  1  0.00000000  0.00000000  0.55386300  1
  C  C31  1  0.00000000  0.77068700  0.44334300  1
  C  C32  1  0.00000000  0.22931300  0.55665700  1
  C  C33  1  0.00000000  0.22931300  0.44334300  1
  C  C34  1  0.00000000  0.77068700  0.55665700  1
  N  N1  1  0.00000000  0.00000000  0.24161100  1
  N  N2  1  0.00000000  0.00000000  0.75838900  1
  O  O1  1  0.83286600  0.87374700  0.08447200  1
  O  O2  1  0.16713400  0.12625300  0.91552800  1
  O  O3  1  0.16713400  0.12625300  0.08447200  1
  O  O4  1  0.83286600  0.87374700  0.91552800  1
  O  O5  1  0.83286600  0.12625300  0.91552800  1
  O  O6  1  0.16713400  0.87374700  0.08447200  1
  O  O7  1  0.16713400  0.87374700  0.91552800  1
  O  O8  1  0.83286600  0.12625300  0.08447200  1
