# generated using pymatgen
data_Fe2HC36N4O16F11
_symmetry_space_group_name_H-M   'P 1'
_cell_length_a   9.46534600
_cell_length_b   16.80036600
_cell_length_c   15.25511100
_cell_angle_alpha   110.37308100
_cell_angle_beta   94.25409200
_cell_angle_gamma   78.36876200
_symmetry_Int_Tables_number   1
_chemical_formula_structural   Fe2HC36N4O16F11
_chemical_formula_sum   'Fe2 H1 C36 N4 O16 F11'
_cell_volume   2227.41805847
_cell_formula_units_Z   1
loop_
 _symmetry_equiv_pos_site_id
 _symmetry_equiv_pos_as_xyz
  1  'x, y, z'
loop_
 _atom_site_type_symbol
 _atom_site_label
 _atom_site_symmetry_multiplicity
 _atom_site_fract_x
 _atom_site_fract_y
 _atom_site_fract_z
 _atom_site_occupancy
  Fe  Fe1  1  0.45564600  0.98213000  0.32979000  1
  Fe  Fe2  1  0.54587500  0.01812400  0.67012900  1
  H  H1  1  0.19055900  0.45375900  0.69928500  1
  C  C1  1  0.07137200  0.98746200  0.17684200  1
  C  C2  1  0.96535400  0.98233500  0.23098800  1
  C  C3  1  0.82394700  0.98586400  0.20019300  1
  C  C4  1  0.78918800  0.99544200  0.11419900  1
  C  C5  1  0.89543100  0.99899900  0.05805200  1
  C  C6  1  0.03766400  0.99272300  0.08793800  1
  C  C7  1  0.85868700  0.00870600  0.97191500  1
  C  C8  1  0.96430800  0.00670900  0.91193800  1
  C  C9  1  0.10656500  0.00039500  0.94181000  1
  C  C10  1  0.14328500  0.99077300  0.02799200  1
  C  C11  1  0.93057600  0.01197800  0.82303300  1
  C  C12  1  0.03665800  0.01702400  0.76885900  1
  C  C13  1  0.17810100  0.01345000  0.79964000  1
  C  C14  1  0.21284000  0.00388400  0.88563500  1
  C  C15  1  0.71096800  0.98238500  0.25978200  1
  C  C16  1  0.58943200  0.82675200  0.34289500  1
  C  C17  1  0.21327000  0.99618100  0.22104400  1
  C  C18  1  0.31930700  0.13373500  0.46069000  1
  C  C19  1  0.68214900  0.86520100  0.53983000  1
  C  C20  1  0.78852000  0.00347300  0.77891700  1
  C  C21  1  0.40958700  0.17372400  0.65781800  1
  C  C22  1  0.29107800  0.01702200  0.74008900  1
  C  C23  1  0.28950500  0.22157600  0.52794300  1
  C  C24  1  0.20675500  0.28460200  0.49756300  1
  C  C25  1  0.16971400  0.36889600  0.55826600  1
  C  C26  1  0.21692600  0.38874500  0.64998100  1
  C  C27  1  0.29742800  0.32560400  0.68108500  1
  C  C28  1  0.33447800  0.24127900  0.62069700  1
  C  C29  1  0.91650800  0.56077700  0.47114600  1
  C  C30  1  0.08047100  0.43681500  0.52707600  1
  C  C31  1  0.77649600  0.61019500  0.34855100  1
  C  C32  1  0.69671600  0.67440300  0.31889300  1
  C  C33  1  0.66301700  0.75866100  0.37963800  1
  C  C34  1  0.71003000  0.77748700  0.47189500  1
  C  C35  1  0.79257800  0.71354800  0.50109500  1
  C  C36  1  0.82701300  0.62905700  0.43993600  1
  N  N1  1  0.04315200  0.51766800  0.58798400  1
  N  N2  1  0.96245000  0.57869000  0.56037400  1
  N  N3  1  0.95408700  0.47988200  0.41040100  1
  N  N4  1  0.03470100  0.41884800  0.43791800  1
  O  O1  1  0.57632000  0.98588100  0.23137400  1
  O  O2  1  0.60282600  0.81628900  0.25436700  1
  O  O3  1  0.74318200  0.97648500  0.34271900  1
  O  O4  1  0.51614900  0.89984700  0.39803100  1
  O  O5  1  0.27365200  0.94537900  0.26769100  1
  O  O6  1  0.27136300  0.06188200  0.22445000  1
  O  O7  1  0.44821500  0.10123400  0.42376800  1
  O  O8  1  0.21375300  0.09086200  0.43062600  1
  O  O9  1  0.55255500  0.89938500  0.57528600  1
  O  O10  1  0.78948600  0.90624200  0.57163600  1
  O  O11  1  0.72844800  0.05423600  0.73214200  1
  O  O12  1  0.73002700  0.93796600  0.77568700  1
  O  O13  1  0.25873300  0.02316500  0.65726400  1
  O  O14  1  0.48516300  0.10125200  0.60292800  1
  O  O15  1  0.42576400  0.01359700  0.76846600  1
  O  O16  1  0.39498400  0.18384500  0.74613700  1
  F  F1  1  0.00100000  0.97885500  0.31744900  1
  F  F2  1  0.80474600  0.52892300  0.28556100  1
  F  F3  1  0.65038400  0.65300900  0.22889700  1
  F  F4  1  0.83868400  0.73598300  0.59115000  1
  F  F5  1  0.65055700  0.99899300  0.08394600  1
  F  F6  1  0.00102500  0.02051200  0.68239900  1
  F  F7  1  0.35149400  0.00027300  0.91584900  1
  F  F8  1  0.28462500  0.97215900  0.04952900  1
  F  F9  1  0.71734100  0.02748100  0.95048200  1
  F  F10  1  0.16287400  0.26152300  0.40704300  1
  F  F11  1  0.34079400  0.34787100  0.77170000  1
