# generated using pymatgen
data_Zn3H20(C13O6)2
_symmetry_space_group_name_H-M   'P 1'
_cell_length_a   31.26166900
_cell_length_b   31.27347600
_cell_length_c   21.31883700
_cell_angle_alpha   90.00000000
_cell_angle_beta   137.13618200
_cell_angle_gamma   90.00000000
_symmetry_Int_Tables_number   1
_chemical_formula_structural   Zn3H20(C13O6)2
_chemical_formula_sum   'Zn12 H80 C104 O48'
_cell_volume   14178.34596604
_cell_formula_units_Z   4
loop_
 _symmetry_equiv_pos_site_id
 _symmetry_equiv_pos_as_xyz
  1  'x, y, z'
loop_
 _atom_site_type_symbol
 _atom_site_label
 _atom_site_symmetry_multiplicity
 _atom_site_fract_x
 _atom_site_fract_y
 _atom_site_fract_z
 _atom_site_occupancy
  Zn  Zn1  1  0.79304500  0.68986100  0.50456300  1
  Zn  Zn2  1  0.22020100  0.25849200  0.49545500  1
  Zn  Zn3  1  0.20695600  0.68986100  0.49543700  1
  Zn  Zn4  1  0.77979900  0.25849200  0.50454600  1
  Zn  Zn5  1  0.29304500  0.18986100  0.50456300  1
  Zn  Zn6  1  0.72020100  0.75849200  0.49545500  1
  Zn  Zn7  1  0.70695600  0.18986100  0.49543700  1
  Zn  Zn8  1  0.27979900  0.75849200  0.50454600  1
  Zn  Zn9  1  0.44751300  0.48119300  0.39575900  1
  Zn  Zn10  1  0.55248800  0.48119300  0.60424200  1
  Zn  Zn11  1  0.94751300  0.98119300  0.39575900  1
  Zn  Zn12  1  0.05248800  0.98119300  0.60424200  1
  H  H1  1  0.93756100  0.86945100  0.56540800  1
  H  H2  1  0.08194500  0.07480300  0.43741900  1
  H  H3  1  0.06244000  0.86945100  0.43459300  1
  H  H4  1  0.91805600  0.07480300  0.56258200  1
  H  H5  1  0.43756100  0.36945100  0.56540800  1
  H  H6  1  0.58194500  0.57480300  0.43741900  1
  H  H7  1  0.56244000  0.36945100  0.43459300  1
  H  H8  1  0.41805600  0.57480300  0.56258200  1
  H  H9  1  0.78188800  0.86432900  0.44992100  1
  H  H10  1  0.13477100  0.17620200  0.54159600  1
  H  H11  1  0.21811300  0.86432900  0.55007900  1
  H  H12  1  0.86523000  0.17620200  0.45840500  1
  H  H13  1  0.28188800  0.36432900  0.44992100  1
  H  H14  1  0.63477100  0.67620200  0.54159600  1
  H  H15  1  0.71811300  0.36432900  0.55007900  1
  H  H16  1  0.36523000  0.67620200  0.45840500  1
  H  H17  1  0.87396500  0.80507300  0.48150500  1
  H  H18  1  0.18543000  0.09963900  0.52273600  1
  H  H19  1  0.12603600  0.80507300  0.51849600  1
  H  H20  1  0.81457100  0.09963900  0.47726400  1
  H  H21  1  0.37396500  0.30507300  0.48150500  1
  H  H22  1  0.68543000  0.59963900  0.52273600  1
  H  H23  1  0.62603600  0.30507300  0.51849600  1
  H  H24  1  0.31457100  0.59963900  0.47726400  1
  H  H25  1  0.71227600  0.97998000  0.25854500  1
  H  H26  1  0.69913800  0.93944400  0.18511300  1
  H  H27  1  0.64570200  0.94428100  0.19320600  1
  H  H28  1  0.71775600  0.88279500  0.28334800  1
  H  H29  1  0.72918600  0.92329400  0.35607400  1
  H  H30  1  0.81941200  0.95272200  0.39583100  1
  H  H31  1  0.80622500  0.91522900  0.31813400  1
  H  H32  1  0.09574500  0.15455000  0.71083800  1
  H  H33  1  0.17559100  0.13432300  0.79542300  1
  H  H34  1  0.16130400  0.19125300  0.77727500  1
  H  H35  1  0.19009800  0.16252500  0.70398800  1
  H  H36  1  0.11046200  0.18409400  0.61988400  1
  H  H37  1  0.06690100  0.11203200  0.58628100  1
  H  H38  1  0.14556300  0.08985700  0.67453300  1
  H  H39  1  0.28772500  0.97998000  0.74145600  1
  H  H40  1  0.30086300  0.93944400  0.81488700  1
  H  H41  1  0.35429800  0.94428100  0.80679500  1
  H  H42  1  0.28224500  0.88279500  0.71665300  1
  H  H43  1  0.27081400  0.92329400  0.64392700  1
  H  H44  1  0.18058900  0.95272200  0.60417000  1
  H  H45  1  0.19377600  0.91522900  0.68186700  1
  H  H46  1  0.90425500  0.15455000  0.28916100  1
  H  H47  1  0.82440900  0.13432300  0.20457800  1
  H  H48  1  0.83869500  0.19125300  0.22272500  1
  H  H49  1  0.80990200  0.16252500  0.29601200  1
  H  H50  1  0.88953800  0.18409400  0.38011600  1
  H  H51  1  0.93310000  0.11203200  0.41371900  1
  H  H52  1  0.85443700  0.08985700  0.32546800  1
  H  H53  1  0.21227600  0.47998000  0.25854500  1
  H  H54  1  0.19913800  0.43944400  0.18511300  1
  H  H55  1  0.14570200  0.44428100  0.19320600  1
  H  H56  1  0.21775600  0.38279500  0.28334800  1
  H  H57  1  0.22918600  0.42329400  0.35607400  1
  H  H58  1  0.31941200  0.45272200  0.39583100  1
  H  H59  1  0.30622500  0.41522900  0.31813400  1
  H  H60  1  0.59574500  0.65455000  0.71083800  1
  H  H61  1  0.67559100  0.63432300  0.79542300  1
  H  H62  1  0.66130400  0.69125300  0.77727500  1
  H  H63  1  0.69009800  0.66252500  0.70398800  1
  H  H64  1  0.61046200  0.68409400  0.61988400  1
  H  H65  1  0.56690100  0.61203200  0.58628100  1
  H  H66  1  0.64556300  0.58985700  0.67453300  1
  H  H67  1  0.78772500  0.47998000  0.74145600  1
  H  H68  1  0.80086300  0.43944400  0.81488700  1
  H  H69  1  0.85429800  0.44428100  0.80679500  1
  H  H70  1  0.78224500  0.38279500  0.71665300  1
  H  H71  1  0.77081400  0.42329400  0.64392700  1
  H  H72  1  0.68058900  0.45272200  0.60417000  1
  H  H73  1  0.69377600  0.41522900  0.68186700  1
  H  H74  1  0.40425500  0.65455000  0.28916100  1
  H  H75  1  0.32440900  0.63432300  0.20457800  1
  H  H76  1  0.33869500  0.69125300  0.22272500  1
  H  H77  1  0.30990200  0.66252500  0.29601200  1
  H  H78  1  0.38953800  0.68409400  0.38011600  1
  H  H79  1  0.43310000  0.61203200  0.41371900  1
  H  H80  1  0.35443700  0.58985700  0.32546800  1
  C  C1  1  0.81019600  0.78230000  0.48716600  1
  C  C2  1  0.20314500  0.16604900  0.51292300  1
  C  C3  1  0.18980500  0.78230000  0.51283500  1
  C  C4  1  0.79685600  0.16604900  0.48707800  1
  C  C5  1  0.31019600  0.28230000  0.48716600  1
  C  C6  1  0.70314500  0.66604900  0.51292300  1
  C  C7  1  0.68980500  0.28230000  0.51283500  1
  C  C8  1  0.29685600  0.66604900  0.48707800  1
  C  C9  1  0.66573000  0.71682700  0.32040400  1
  C  C10  1  0.34728500  0.23141800  0.67964200  1
  C  C11  1  0.33427100  0.71682700  0.67959600  1
  C  C12  1  0.65271600  0.23141700  0.32035900  1
  C  C13  1  0.16573000  0.21682700  0.32040400  1
  C  C14  1  0.84728500  0.73141800  0.67964200  1
  C  C15  1  0.83427100  0.21682700  0.67959600  1
  C  C16  1  0.15271600  0.73141700  0.32035900  1
  C  C17  1  0.61526700  0.71368900  0.22171200  1
  C  C18  1  0.39564600  0.23315200  0.77847600  1
  C  C19  1  0.38473300  0.71368900  0.77828800  1
  C  C20  1  0.60435500  0.23315200  0.22152500  1
  C  C21  1  0.11526700  0.21368900  0.22171200  1
  C  C22  1  0.89564600  0.73315200  0.77847600  1
  C  C23  1  0.88473300  0.21368900  0.77828800  1
  C  C24  1  0.10435500  0.73315200  0.22152500  1
  C  C25  1  0.57234800  0.71195300  0.13875600  1
  C  C26  1  0.43516900  0.23411300  0.86143200  1
  C  C27  1  0.42765300  0.71195300  0.86124500  1
  C  C28  1  0.56483200  0.23411300  0.13856900  1
  C  C29  1  0.07234800  0.21195300  0.13875600  1
  C  C30  1  0.93516900  0.73411300  0.86143200  1
  C  C31  1  0.92765300  0.21195300  0.86124500  1
  C  C32  1  0.06483200  0.73411300  0.13856900  1
  C  C33  1  0.52167200  0.71093800  0.04150300  1
  C  C34  1  0.48068200  0.23467400  0.95856400  1
  C  C35  1  0.47832900  0.71093800  0.95849800  1
  C  C36  1  0.51931900  0.23467400  0.04143700  1
  C  C37  1  0.02167200  0.21093800  0.04150300  1
  C  C38  1  0.98068200  0.73467400  0.95856400  1
  C  C39  1  0.97832900  0.21093800  0.95849800  1
  C  C40  1  0.01931900  0.73467400  0.04143700  1
  C  C41  1  0.84589500  0.88781800  0.44389300  1
  C  C42  1  0.11587700  0.10927400  0.55091700  1
  C  C43  1  0.15410600  0.88781800  0.55610800  1
  C  C44  1  0.88412300  0.10927400  0.44908300  1
  C  C45  1  0.34589500  0.38781800  0.44389300  1
  C  C46  1  0.61587700  0.60927400  0.55091700  1
  C  C47  1  0.65410600  0.38781800  0.55610800  1
  C  C48  1  0.38412300  0.60927400  0.44908300  1
  C  C49  1  0.90872200  0.88996600  0.50524200  1
  C  C50  1  0.08803100  0.07523400  0.49442000  1
  C  C51  1  0.09127900  0.88996600  0.49475900  1
  C  C52  1  0.91197000  0.07523400  0.50558100  1
  C  C53  1  0.40872200  0.38996600  0.50524200  1
  C  C54  1  0.58803100  0.57523400  0.49442000  1
  C  C55  1  0.59127900  0.38996600  0.49475900  1
  C  C56  1  0.41197000  0.57523400  0.50558100  1
  C  C57  1  0.81931800  0.85549300  0.45831800  1
  C  C58  1  0.14163100  0.14287600  0.53723700  1
  C  C59  1  0.18068200  0.85549300  0.54168300  1
  C  C60  1  0.85837000  0.14287600  0.46276300  1
  C  C61  1  0.31931800  0.35549300  0.45831800  1
  C  C62  1  0.64163100  0.64287600  0.53723700  1
  C  C63  1  0.68068200  0.35549300  0.54168300  1
  C  C64  1  0.35837000  0.64287600  0.46276300  1
  C  C65  1  0.83881000  0.81492800  0.47757700  1
  C  C66  1  0.17537200  0.13279600  0.52279500  1
  C  C67  1  0.16119000  0.81492800  0.52242300  1
  C  C68  1  0.82462900  0.13279600  0.47720600  1
  C  C69  1  0.33881000  0.31492800  0.47757700  1
  C  C70  1  0.67537200  0.63279600  0.52279500  1
  C  C71  1  0.66119000  0.31492800  0.52242300  1
  C  C72  1  0.32462900  0.63279600  0.47720600  1
  C  C73  1  0.44304500  0.54096300  0.50340200  1
  C  C74  1  0.55813500  0.42237800  0.49678900  1
  C  C75  1  0.55695600  0.54096300  0.49659900  1
  C  C76  1  0.44186600  0.42237800  0.50321200  1
  C  C77  1  0.94304500  0.04096300  0.50340200  1
  C  C78  1  0.05813500  0.92237800  0.49678900  1
  C  C79  1  0.05695600  0.04096300  0.49659900  1
  C  C80  1  0.94186600  0.92237800  0.50321200  1
  C  C81  1  0.80358100  0.91993800  0.36674000  1
  C  C82  1  0.73489300  0.91560200  0.31175000  1
  C  C83  1  0.69554200  0.94690900  0.23197300  1
  C  C84  1  0.11576300  0.11497900  0.62106300  1
  C  C85  1  0.14161700  0.15798600  0.66990000  1
  C  C86  1  0.14365200  0.15953400  0.74312000  1
  C  C87  1  0.19642000  0.91993800  0.63326100  1
  C  C88  1  0.26510800  0.91560200  0.68825100  1
  C  C89  1  0.30445900  0.94690900  0.76802700  1
  C  C90  1  0.88423700  0.11497900  0.37893700  1
  C  C91  1  0.85838400  0.15798600  0.33010000  1
  C  C92  1  0.85634800  0.15953400  0.25688000  1
  C  C93  1  0.30358100  0.41993800  0.36674000  1
  C  C94  1  0.23489300  0.41560200  0.31175000  1
  C  C95  1  0.19554200  0.44690900  0.23197300  1
  C  C96  1  0.61576300  0.61497900  0.62106300  1
  C  C97  1  0.64161700  0.65798600  0.66990000  1
  C  C98  1  0.64365200  0.65953400  0.74312000  1
  C  C99  1  0.69642000  0.41993800  0.63326100  1
  C  C100  1  0.76510800  0.41560200  0.68825100  1
  C  C101  1  0.80445900  0.44690900  0.76802700  1
  C  C102  1  0.38423700  0.61497900  0.37893700  1
  C  C103  1  0.35838400  0.65798600  0.33010000  1
  C  C104  1  0.35634800  0.65953400  0.25688000  1
  O  O1  1  0.82457500  0.74217000  0.49196200  1
  O  O2  1  0.18896100  0.20620600  0.50859500  1
  O  O3  1  0.17542500  0.74217000  0.50803900  1
  O  O4  1  0.81104000  0.20620600  0.49140600  1
  O  O5  1  0.32457500  0.24217000  0.49196200  1
  O  O6  1  0.68896100  0.70620600  0.50859500  1
  O  O7  1  0.67542500  0.24217000  0.50803900  1
  O  O8  1  0.31104000  0.70620600  0.49140600  1
  O  O9  1  0.77081800  0.79433500  0.48886800  1
  O  O10  1  0.24220100  0.15396900  0.51065300  1
  O  O11  1  0.22918200  0.79433500  0.51113300  1
  O  O12  1  0.75780000  0.15396900  0.48934700  1
  O  O13  1  0.27081800  0.29433500  0.48886800  1
  O  O14  1  0.74220100  0.65396900  0.51065300  1
  O  O15  1  0.72918200  0.29433500  0.51113300  1
  O  O16  1  0.25780000  0.65396900  0.48934700  1
  O  O17  1  0.71583600  0.69300000  0.36599400  1
  O  O18  1  0.29741200  0.25544000  0.63395200  1
  O  O19  1  0.28416400  0.69300000  0.63400700  1
  O  O20  1  0.70258800  0.25544000  0.36604900  1
  O  O21  1  0.21583600  0.19300000  0.36599400  1
  O  O22  1  0.79741200  0.75544000  0.63395200  1
  O  O23  1  0.78416400  0.19300000  0.63400700  1
  O  O24  1  0.20258800  0.75544000  0.36604900  1
  O  O25  1  0.65929100  0.74374300  0.36020700  1
  O  O26  1  0.35375600  0.20438300  0.63993100  1
  O  O27  1  0.34071000  0.74374300  0.63979400  1
  O  O28  1  0.64624500  0.20438300  0.36007000  1
  O  O29  1  0.15929100  0.24374300  0.36020700  1
  O  O30  1  0.85375600  0.70438300  0.63993100  1
  O  O31  1  0.84071000  0.24374300  0.63979400  1
  O  O32  1  0.14624500  0.70438300  0.36007000  1
  O  O33  1  0.41769300  0.52710800  0.42379800  1
  O  O34  1  0.58275300  0.43574600  0.57614300  1
  O  O35  1  0.58230700  0.52710800  0.57620300  1
  O  O36  1  0.41724700  0.43574600  0.42385700  1
  O  O37  1  0.91769300  0.02710800  0.42379800  1
  O  O38  1  0.08275300  0.93574600  0.57614300  1
  O  O39  1  0.08230700  0.02710800  0.57620300  1
  O  O40  1  0.91724700  0.93574600  0.42385700  1
  O  O41  1  0.49542300  0.52536500  0.58276100  1
  O  O42  1  0.50411700  0.43644300  0.41744700  1
  O  O43  1  0.50457700  0.52536500  0.41724000  1
  O  O44  1  0.49588400  0.43644300  0.58255300  1
  O  O45  1  0.99542300  0.02536500  0.58276100  1
  O  O46  1  0.00411700  0.93644300  0.41744700  1
  O  O47  1  0.00457700  0.02536500  0.41724000  1
  O  O48  1  0.99588400  0.93644300  0.58255300  1
