# Generated by REPEAT Assigner based on pymatgen
data_DB0-m2_o25_o25_f0_pcu.sym.53
_audit_creation_date              2022-05-24
_audit_creation_method            REPEAT_Assigner
_cell_length_a                    22.467112
_cell_length_b                    22.563202
_cell_length_c                    14.496618
_cell_angle_alpha                 90.000000
_cell_angle_beta                  90.013801
_cell_angle_gamma                 90.000000
_cell_volume                      7348.769950
_symmetry_space_group_name_H-M    P1
_symmetry_Int_Tables_number       1
loop_
    _symmetry_equiv_pos_site_id
    _symmetry_equiv_pos_as_xyz
    1  x,y,z
loop_
    _atom_site_type_symbol
    _atom_site_label
    _atom_site_fract_x
    _atom_site_fract_y
    _atom_site_fract_z
    _atom_type_partial_charge
    O   O1    0.437084  0.940113  0.579180  -0.593339
    O   O2    0.562917  0.058974  0.420834  -0.593288
    O   O3    0.562916  0.940114  0.420818  -0.593396
    O   O4    0.437082  0.058973  0.579167  -0.593247
    O   O5    0.937084  0.440113  0.579181  -0.593359
    O   O6    0.062917  0.558973  0.420833  -0.593277
    O   O7    0.062916  0.440113  0.420819  -0.593381
    O   O8    0.937083  0.558973  0.579166  -0.593262
    O   O9    0.440580  0.937178  0.420523  -0.616684
    O   O10   0.559408  0.061896  0.579500  -0.620294
    O   O11   0.559420  0.937178  0.579476  -0.616662
    O   O12   0.440592  0.061897  0.420501  -0.620342
    O   O13   0.940580  0.437178  0.420524  -0.616679
    O   O14   0.059408  0.561896  0.579499  -0.620308
    O   O15   0.059420  0.437178  0.579476  -0.616663
    O   O16   0.940592  0.561896  0.420500  -0.620340
    C   C1    0.419177  0.919189  0.499704  0.791406
    C   C2    0.580798  0.079910  0.500362  0.794244
    C   C3    0.580823  0.919189  0.500294  0.791428
    C   C4    0.419202  0.079909  0.499640  0.794244
    C   C5    0.919177  0.419189  0.499705  0.791424
    C   C6    0.080798  0.579909  0.500360  0.794239
    C   C7    0.080823  0.419189  0.500295  0.791403
    C   C8    0.919202  0.579910  0.499639  0.794249
    Cu  Cu1   0.499703  0.999537  0.592284  0.934434
    Cu  Cu2   0.500297  0.999538  0.407716  0.934197
    Cu  Cu3   0.999702  0.499537  0.592283  0.934368
    Cu  Cu4   0.000297  0.499537  0.407716  0.934282
    C   C9    0.526817  0.047288  0.967575  -0.141205
    C   C10   0.473184  0.951579  0.032424  -0.172539
    C   C11   0.473192  0.047295  0.032422  -0.140466
    C   C12   0.526806  0.951572  0.967580  -0.173379
    C   C13   0.026812  0.547291  0.967577  -0.140823
    C   C14   0.973189  0.451575  0.032421  -0.172818
    C   C15   0.973188  0.547291  0.032423  -0.140788
    C   C16   0.026811  0.451575  0.967578  -0.172817
    C   C17   0.709116  0.736632  0.559812  0.024512
    C   C18   0.291131  0.262620  0.438632  0.014049
    C   C19   0.290884  0.736632  0.440186  0.024525
    C   C20   0.708868  0.262621  0.561370  0.014128
    C   C21   0.209115  0.236632  0.559814  0.024288
    C   C22   0.791132  0.762621  0.438630  0.014087
    C   C23   0.790884  0.236633  0.440188  0.024410
    C   C24   0.208869  0.762621  0.561367  0.014061
    C   C25   0.224211  0.197941  0.476871  -0.338154
    C   C26   0.775994  0.801324  0.521513  -0.337049
    C   C27   0.775788  0.197941  0.523132  -0.338318
    C   C28   0.224006  0.801323  0.478484  -0.337063
    C   C29   0.724212  0.697941  0.476868  -0.338344
    C   C30   0.275993  0.301323  0.521516  -0.337118
    C   C31   0.275788  0.697941  0.523129  -0.338400
    C   C32   0.724006  0.301324  0.478486  -0.337108
    H   H1    0.205304  0.154111  0.458748  0.092019
    H   H2    0.794782  0.845224  0.539505  0.092997
    H   H3    0.794695  0.154112  0.541255  0.092063
    H   H4    0.205218  0.845223  0.460492  0.092997
    H   H5    0.705305  0.654112  0.458745  0.092070
    H   H6    0.294782  0.345223  0.539508  0.092997
    H   H7    0.294696  0.654111  0.541252  0.092077
    H   H8    0.705217  0.345223  0.460495  0.093007
    C   C33   0.373824  0.124609  0.499095  -0.150185
    C   C34   0.626266  0.874555  0.500531  -0.150719
    C   C35   0.626175  0.124609  0.500908  -0.150221
    C   C36   0.373734  0.874555  0.499467  -0.150724
    C   C37   0.873825  0.624609  0.499093  -0.150204
    C   C38   0.126265  0.374555  0.500533  -0.150665
    C   C39   0.126175  0.624609  0.500906  -0.150196
    C   C40   0.873734  0.374556  0.499468  -0.150716
    H   H9    0.450693  0.087189  0.060348  0.061539
    H   H10   0.549311  0.911653  0.939739  0.080626
    H   H11   0.549325  0.087177  0.939645  0.061653
    H   H12   0.450670  0.911665  0.060268  0.080466
    H   H13   0.950684  0.587183  0.060352  0.061583
    H   H14   0.049320  0.411659  0.939735  0.080457
    H   H15   0.049316  0.587183  0.939649  0.061588
    H   H16   0.950679  0.411659  0.060264  0.080456
    C   C41   0.274304  0.245644  0.580916  0.043558
    C   C42   0.725911  0.753653  0.417430  0.040624
    C   C43   0.725695  0.245644  0.419086  0.043594
    C   C44   0.274090  0.753653  0.582567  0.040667
    C   C45   0.774304  0.745644  0.580914  0.043512
    C   C46   0.225910  0.253653  0.417433  0.040435
    C   C47   0.225696  0.745644  0.419084  0.043571
    C   C48   0.774089  0.253653  0.582569  0.040633
    C   C49   0.289652  0.207969  0.498403  0.607701
    C   C50   0.710542  0.791303  0.500020  0.598084
    C   C51   0.710347  0.207969  0.501599  0.607570
    C   C52   0.289458  0.791303  0.499978  0.598060
    C   C53   0.789653  0.707970  0.498401  0.607646
    C   C54   0.210542  0.291303  0.500022  0.598352
    C   C55   0.210348  0.707969  0.501597  0.607661
    C   C56   0.789457  0.291303  0.499980  0.598159
    N   N1    0.500583  0.999531  0.269790  -0.058009
    N   N2    0.499416  0.999529  0.730210  -0.057959
    N   N3    0.000583  0.499530  0.269790  -0.058039
    N   N4    0.999416  0.499530  0.730210  -0.058028
    C   C57   0.555747  0.999430  0.025656  -0.076465
    C   C58   0.444253  0.999441  0.974344  -0.077307
    C   C59   0.055747  0.499435  0.025656  -0.076870
    C   C60   0.944253  0.499436  0.974344  -0.076892
    C   C61   0.502694  0.999437  0.089317  0.638654
    C   C62   0.497306  0.999434  0.910683  0.639462
    C   C63   0.002694  0.499435  0.089317  0.638914
    C   C64   0.997306  0.499436  0.910683  0.638943
    C   C65   0.335737  0.162172  0.498620  -0.348579
    C   C66   0.664415  0.837055  0.500381  -0.346864
    C   C67   0.664262  0.162172  0.501383  -0.348483
    C   C68   0.335585  0.837054  0.499616  -0.346857
    C   C69   0.835737  0.662172  0.498618  -0.348521
    C   C70   0.164415  0.337054  0.500383  -0.346984
    C   C71   0.164263  0.662172  0.501380  -0.348534
    C   C72   0.835584  0.337055  0.499618  -0.346886
    C   C73   0.501443  0.999485  0.190059  -0.230332
    C   C74   0.498557  0.999483  0.809941  -0.230510
    C   C75   0.001443  0.499484  0.190059  -0.230322
    C   C76   0.998557  0.499484  0.809941  -0.230342
    C   C77   0.378651  0.999400  0.955810  0.122133
    C   C78   0.340290  0.999085  0.030260  -0.157071
    C   C79   0.279532  0.998991  0.016994  -0.255985
    C   C80   0.256536  0.999239  0.928788  0.201714
    C   C81   0.191052  0.999134  0.913253  -0.311175
    C   C82   0.294541  0.999585  0.854257  -0.003898
    C   C83   0.355318  0.999655  0.867468  -0.256873
    H   H17   0.357822  0.998894  0.099700  0.122724
    H   H18   0.250296  0.998725  0.076192  0.144416
    H   H19   0.167060  0.998850  0.980060  0.090711
    H   H20   0.178527  0.959139  0.873233  0.075197
    H   H21   0.178328  0.039333  0.873886  0.077299
    H   H22   0.276689  0.999791  0.785008  0.085075
    H   H23   0.383579  0.999949  0.807647  0.139732
    C   C84   0.621349  0.999378  0.044190  0.121817
    C   C85   0.659710  0.999028  0.969741  -0.156785
    C   C86   0.720467  0.998922  0.983007  -0.256156
    C   C87   0.743464  0.999195  0.071213  0.202036
    C   C88   0.808948  0.999077  0.086748  -0.311977
    C   C89   0.705459  0.999580  0.145743  -0.004002
    C   C90   0.644682  0.999660  0.132532  -0.256827
    H   H24   0.642178  0.998818  0.900300  0.122652
    H   H25   0.749704  0.998628  0.923809  0.144453
    H   H26   0.832940  0.998763  0.019942  0.090890
    H   H27   0.821462  0.959094  0.126804  0.075462
    H   H28   0.821683  0.039288  0.126080  0.077482
    H   H29   0.723311  0.999807  0.214992  0.085100
    H   H30   0.616421  0.999987  0.192353  0.139742
    C   C91   0.878651  0.499390  0.955810  0.122082
    C   C92   0.840290  0.499057  0.030259  -0.157143
    C   C93   0.779532  0.498958  0.016994  -0.255720
    C   C94   0.756536  0.499218  0.928787  0.201583
    C   C95   0.691052  0.499107  0.913252  -0.311354
    C   C96   0.794541  0.499583  0.854257  -0.003801
    C   C97   0.855318  0.499658  0.867468  -0.256969
    H   H31   0.857821  0.498856  0.099700  0.122715
    H   H32   0.750296  0.498678  0.076192  0.144342
    H   H33   0.667060  0.498807  0.980059  0.090754
    H   H34   0.678532  0.459118  0.873214  0.075287
    H   H35   0.678323  0.539311  0.873903  0.077321
    H   H36   0.776689  0.499800  0.785008  0.085071
    H   H37   0.883579  0.499968  0.807648  0.139752
    C   C98   0.121349  0.499389  0.044190  0.122068
    C   C99   0.159710  0.499056  0.969740  -0.157126
    C   C100  0.220467  0.498956  0.983006  -0.255717
    C   C101  0.243464  0.499216  0.071213  0.201597
    C   C102  0.308948  0.499104  0.086747  -0.311438
    C   C103  0.205459  0.499582  0.145743  -0.003785
    C   C104  0.144682  0.499657  0.132532  -0.256986
    H   H38   0.142179  0.498855  0.900299  0.122718
    H   H39   0.249704  0.498676  0.923808  0.144327
    H   H40   0.332940  0.498805  0.019941  0.090798
    H   H41   0.321467  0.459116  0.126786  0.075312
    H   H42   0.321677  0.539309  0.126097  0.077329
    H   H43   0.223311  0.499799  0.214991  0.085072
    H   H44   0.116420  0.499968  0.192352  0.139755
    C   C105  0.662642  0.725981  0.631617  0.048326
    C   C106  0.626796  0.676259  0.628397  -0.188877
    C   C107  0.584381  0.666950  0.695624  -0.261899
    C   C108  0.577581  0.707272  0.766461  0.360647
    C   C109  0.531817  0.697888  0.839219  -0.449101
    C   C110  0.613330  0.756853  0.769809  -0.310444
    C   C111  0.655709  0.766177  0.702654  -0.050883
    H   H45   0.631465  0.644225  0.573597  0.127115
    H   H46   0.556621  0.627889  0.692191  0.134282
    H   H47   0.506986  0.656241  0.826400  0.107263
    H   H48   0.500250  0.735636  0.838749  0.134009
    H   H49   0.553834  0.695321  0.907587  0.105906
    H   H50   0.608145  0.788532  0.825174  0.151588
    H   H51   0.683604  0.805150  0.705963  0.079143
    C   C112  0.338115  0.273120  0.367544  0.037386
    C   C113  0.375017  0.322010  0.372592  -0.181819
    C   C114  0.418335  0.330895  0.306629  -0.257106
    C   C115  0.424917  0.291053  0.235097  0.365423
    C   C116  0.471660  0.300024  0.163708  -0.442670
    C   C117  0.388024  0.242375  0.229780  -0.350095
    C   C118  0.344861  0.233368  0.295856  -0.019108
    H   H52   0.370634  0.353620  0.428038  0.125142
    H   H53   0.446967  0.369258  0.311595  0.129464
    H   H54   0.498021  0.340362  0.179069  0.111085
    H   H55   0.450355  0.304954  0.095158  0.099696
    H   H56   0.501686  0.261029  0.162725  0.133341
    H   H57   0.393032  0.211072  0.173859  0.169152
    H   H58   0.316248  0.194970  0.291240  0.073735
    C   C119  0.337359  0.725981  0.368381  0.048363
    C   C120  0.373204  0.676259  0.371600  -0.188889
    C   C121  0.415619  0.666949  0.304373  -0.261894
    C   C122  0.422419  0.707272  0.233537  0.360625
    C   C123  0.468183  0.697888  0.160778  -0.449063
    C   C124  0.386670  0.756852  0.230188  -0.310445
    C   C125  0.344291  0.766177  0.297344  -0.050917
    H   H59   0.368535  0.644224  0.426401  0.127112
    H   H60   0.443380  0.627889  0.307806  0.134286
    H   H61   0.493015  0.656241  0.173598  0.107257
    H   H62   0.499750  0.735636  0.161248  0.133997
    H   H63   0.446167  0.695321  0.092410  0.105892
    H   H64   0.391855  0.788532  0.174823  0.151606
    H   H65   0.316396  0.805149  0.294034  0.079153
    C   C126  0.661885  0.273121  0.632458  0.037293
    C   C127  0.624982  0.322011  0.627411  -0.181792
    C   C128  0.581665  0.330895  0.693373  -0.257097
    C   C129  0.575083  0.291053  0.764905  0.365441
    C   C130  0.528339  0.300024  0.836294  -0.442693
    C   C131  0.611976  0.242376  0.770223  -0.350115
    C   C132  0.655138  0.233368  0.704147  -0.019050
    H   H66   0.629365  0.353621  0.571964  0.125131
    H   H67   0.553032  0.369258  0.688407  0.129455
    H   H68   0.501978  0.340363  0.820934  0.111090
    H   H69   0.549645  0.304955  0.904845  0.099704
    H   H70   0.498314  0.261029  0.837278  0.133347
    H   H71   0.606967  0.211072  0.826144  0.169154
    H   H72   0.683751  0.194971  0.708763  0.073718
    C   C133  0.162641  0.225981  0.631619  0.048407
    C   C134  0.126796  0.176258  0.628400  -0.188891
    C   C135  0.084381  0.166949  0.695627  -0.261889
    C   C136  0.077580  0.207272  0.766463  0.360641
    C   C137  0.031817  0.197888  0.839222  -0.449101
    C   C138  0.113329  0.256852  0.769812  -0.310481
    C   C139  0.155708  0.266177  0.702656  -0.050886
    H   H73   0.131465  0.144224  0.573599  0.127117
    H   H74   0.056621  0.127888  0.692194  0.134277
    H   H75   0.006985  0.156240  0.826403  0.107262
    H   H76   0.000250  0.235635  0.838752  0.134014
    H   H77   0.053834  0.195321  0.907590  0.105901
    H   H78   0.108145  0.288532  0.825176  0.151627
    H   H79   0.183603  0.305149  0.705966  0.079145
    C   C140  0.838115  0.773121  0.367542  0.037313
    C   C141  0.875017  0.822011  0.372589  -0.181773
    C   C142  0.918335  0.830895  0.306627  -0.257140
    C   C143  0.924917  0.791053  0.235095  0.365449
    C   C144  0.971661  0.800025  0.163705  -0.442698
    C   C145  0.888024  0.742376  0.229777  -0.350115
    C   C146  0.844862  0.733368  0.295854  -0.019071
    H   H80   0.870634  0.853621  0.428036  0.125127
    H   H81   0.946967  0.869259  0.311592  0.129464
    H   H82   0.998021  0.840363  0.179066  0.111102
    H   H83   0.950355  0.804955  0.095155  0.099700
    H   H84   0.001686  0.761029  0.162722  0.133345
    H   H85   0.893032  0.711072  0.173856  0.169156
    H   H86   0.816249  0.694971  0.291237  0.073727
    C   C147  0.837358  0.225981  0.368383  0.048409
    C   C148  0.873203  0.176260  0.371603  -0.188879
    C   C149  0.915619  0.166950  0.304376  -0.261963
    C   C150  0.922419  0.207273  0.233539  0.360666
    C   C151  0.968183  0.197889  0.160781  -0.449097
    C   C152  0.886670  0.256853  0.230190  -0.310477
    C   C153  0.844291  0.266177  0.297346  -0.050915
    H   H87   0.868535  0.144225  0.426404  0.127116
    H   H88   0.943379  0.127889  0.307810  0.134303
    H   H89   0.993015  0.156242  0.173601  0.107266
    H   H90   0.999750  0.235637  0.161251  0.134014
    H   H91   0.946167  0.195322  0.092413  0.105897
    H   H92   0.891854  0.288532  0.174826  0.151628
    H   H93   0.816395  0.305150  0.294036  0.079148
    C   C154  0.161885  0.773120  0.632456  0.037356
    C   C155  0.124983  0.822010  0.627408  -0.181833
    C   C156  0.081665  0.830894  0.693371  -0.257077
    C   C157  0.075083  0.791052  0.764903  0.365439
    C   C158  0.028339  0.800024  0.836292  -0.442695
    C   C159  0.111976  0.742375  0.770220  -0.350107
    C   C160  0.155139  0.733368  0.704144  -0.019090
    H   H94   0.129366  0.853620  0.571961  0.125142
    H   H95   0.053033  0.869257  0.688405  0.129452
    H   H96   0.001978  0.840362  0.820931  0.111096
    H   H97   0.049645  0.804954  0.904842  0.099711
    H   H98   0.998314  0.761028  0.837275  0.133339
    H   H99   0.106968  0.711072  0.826142  0.169152
    H   H100  0.183752  0.694970  0.708761  0.073732
    C   C161  0.698899  0.762759  0.324242  0.057319
    C   C162  0.667288  0.718047  0.281273  -0.224736
    C   C163  0.643467  0.727044  0.194672  -0.191269
    C   C164  0.651122  0.780595  0.150400  0.267407
    C   C165  0.625739  0.789554  0.056499  -0.276977
    C   C166  0.682518  0.825358  0.193275  -0.306014
    C   C167  0.706201  0.816456  0.279907  -0.053599
    H   H101  0.660973  0.675729  0.314562  0.129159
    H   H102  0.618899  0.691866  0.161303  0.120441
    H   H103  0.644978  0.756385  0.008564  0.071319
    H   H104  0.636172  0.834698  0.030971  0.073169
    H   H105  0.576754  0.783904  0.058977  0.069010
    H   H106  0.688979  0.867491  0.159336  0.138792
    H   H107  0.730913  0.851717  0.312793  0.082004
    C   C168  0.301814  0.236647  0.673732  0.044910
    C   C169  0.295518  0.182740  0.717799  -0.078893
    C   C170  0.320821  0.173664  0.803248  -0.273366
    C   C171  0.352605  0.218361  0.845296  0.322313
    C   C172  0.380074  0.207769  0.937293  -0.356670
    C   C173  0.358773  0.272405  0.801709  -0.266469
    C   C174  0.333492  0.281521  0.716168  -0.184329
    H   H108  0.270727  0.147356  0.685378  0.086465
    H   H109  0.315751  0.131374  0.837300  0.128316
    H   H110  0.344802  0.196485  0.987835  0.085785
    H   H111  0.403997  0.247918  0.961022  0.089363
    H   H112  0.411982  0.170397  0.932290  0.089003
    H   H113  0.383453  0.307899  0.834011  0.139520
    H   H114  0.338965  0.324027  0.683124  0.123127
    C   C175  0.301101  0.762759  0.675755  0.057315
    C   C176  0.332712  0.718046  0.718725  -0.224706
    C   C177  0.356533  0.727043  0.805326  -0.191285
    C   C178  0.348879  0.780595  0.849597  0.267304
    C   C179  0.374262  0.789554  0.943498  -0.277062
    C   C180  0.317483  0.825358  0.806722  -0.305806
    C   C181  0.293800  0.816456  0.720090  -0.053717
    H   H115  0.339027  0.675729  0.685436  0.129150
    H   H116  0.381101  0.691866  0.838694  0.120466
    H   H117  0.355023  0.756385  0.991433  0.071376
    H   H118  0.363829  0.834698  0.969026  0.073184
    H   H119  0.423247  0.783904  0.941020  0.069049
    H   H120  0.311022  0.867491  0.840661  0.138715
    H   H121  0.269088  0.851717  0.687203  0.082046
    C   C182  0.698185  0.236648  0.326270  0.044914
    C   C183  0.704481  0.182740  0.282205  -0.078987
    C   C184  0.679177  0.173664  0.196756  -0.273236
    C   C185  0.647393  0.218361  0.154707  0.322227
    C   C186  0.619924  0.207768  0.062710  -0.356609
    C   C187  0.641225  0.272405  0.198294  -0.266431
    C   C188  0.666507  0.281521  0.283835  -0.184338
    H   H122  0.729272  0.147356  0.314625  0.086502
    H   H123  0.684247  0.131374  0.162704  0.128250
    H   H124  0.655195  0.196485  0.012169  0.085764
    H   H125  0.596001  0.247918  0.038981  0.089343
    H   H126  0.588016  0.170397  0.067713  0.089002
    H   H127  0.616545  0.307899  0.165992  0.139520
    H   H128  0.661035  0.324028  0.316878  0.123122
    C   C189  0.198899  0.262758  0.324244  0.057373
    C   C190  0.167288  0.218046  0.281275  -0.224747
    C   C191  0.143467  0.227043  0.194674  -0.191238
    C   C192  0.151121  0.280594  0.150402  0.267345
    C   C193  0.125739  0.289553  0.056501  -0.276967
    C   C194  0.182517  0.325357  0.193277  -0.305930
    C   C195  0.206200  0.316456  0.279909  -0.053650
    H   H129  0.160973  0.175729  0.314564  0.129161
    H   H130  0.118899  0.191865  0.161305  0.120433
    H   H131  0.144978  0.256384  0.008566  0.071318
    H   H132  0.136172  0.334697  0.030973  0.073173
    H   H133  0.076754  0.283903  0.058979  0.069014
    H   H134  0.188979  0.367491  0.159338  0.138752
    H   H135  0.230913  0.351717  0.312796  0.082026
    C   C196  0.801815  0.736648  0.673730  0.044935
    C   C197  0.795519  0.682741  0.717796  -0.078958
    C   C198  0.820822  0.673664  0.803245  -0.273293
    C   C199  0.852606  0.718362  0.845293  0.322259
    C   C200  0.880075  0.707769  0.937290  -0.356627
    C   C201  0.858774  0.772405  0.801706  -0.266424
    C   C202  0.833493  0.781521  0.716166  -0.184343
    H   H136  0.770727  0.647357  0.685375  0.086492
    H   H137  0.815752  0.631375  0.837297  0.128295
    H   H138  0.844803  0.696486  0.987832  0.085765
    H   H139  0.903998  0.747918  0.961019  0.089351
    H   H140  0.911983  0.670397  0.932288  0.088999
    H   H141  0.883454  0.807899  0.834008  0.139512
    H   H142  0.838965  0.824028  0.683121  0.123114
    C   C203  0.801101  0.262759  0.675758  0.057289
    C   C204  0.832712  0.218047  0.718727  -0.224701
    C   C205  0.856533  0.227044  0.805328  -0.191268
    C   C206  0.848879  0.280596  0.849600  0.267351
    C   C207  0.874261  0.289555  0.943501  -0.277120
    C   C208  0.817482  0.325359  0.806724  -0.305883
    C   C209  0.793799  0.316457  0.720093  -0.053666
    H   H143  0.839026  0.175730  0.685438  0.129151
    H   H144  0.881101  0.191866  0.838696  0.120440
    H   H145  0.855023  0.256386  0.991435  0.071390
    H   H146  0.863828  0.334699  0.969028  0.073203
    H   H147  0.923247  0.283905  0.941022  0.069062
    H   H148  0.811021  0.367492  0.840663  0.138748
    H   H149  0.769087  0.351717  0.687206  0.082028
    C   C210  0.198186  0.736647  0.326268  0.044894
    C   C211  0.204481  0.682740  0.282202  -0.078944
    C   C212  0.179178  0.673663  0.196753  -0.273296
    C   C213  0.147394  0.718361  0.154704  0.322241
    C   C214  0.119925  0.707768  0.062708  -0.356603
    C   C215  0.141226  0.772404  0.198292  -0.266412
    C   C216  0.166507  0.781521  0.283832  -0.184335
    H   H150  0.229272  0.647356  0.314623  0.086486
    H   H151  0.184248  0.631374  0.162701  0.128295
    H   H152  0.155196  0.696485  0.012166  0.085762
    H   H153  0.096002  0.747918  0.038979  0.089337
    H   H154  0.088017  0.670397  0.067711  0.089000
    H   H155  0.116546  0.807899  0.165989  0.139503
    H   H156  0.161035  0.824027  0.316876  0.123121
