# Generated by REPEAT Assigner based on pymatgen
data_DB0-m2_o17_o25_f0_pcu.sym.19
_audit_creation_date              2022-05-24
_audit_creation_method            REPEAT_Assigner
_cell_length_a                    15.912525
_cell_length_b                    14.947705
_cell_length_c                    13.540265
_cell_angle_alpha                 89.987619
_cell_angle_beta                  90.009392
_cell_angle_gamma                 89.994531
_cell_volume                      3220.629521
_symmetry_space_group_name_H-M    P1
_symmetry_Int_Tables_number       1
loop_
    _symmetry_equiv_pos_site_id
    _symmetry_equiv_pos_as_xyz
    1  x,y,z
loop_
    _atom_site_type_symbol
    _atom_site_label
    _atom_site_fract_x
    _atom_site_fract_y
    _atom_site_fract_z
    _atom_type_partial_charge
    O   O1   0.503152  0.369518  0.585647  -0.688844
    O   O2   0.495888  0.628623  0.414048  -0.665032
    O   O3   0.496669  0.368619  0.416019  -0.709982
    O   O4   0.502581  0.629541  0.584277  -0.672743
    C   C1   0.500110  0.327449  0.501104  0.912119
    C   C2   0.499204  0.670755  0.498850  0.909000
    O   O5   0.377708  0.501995  0.585142  -0.679060
    O   O6   0.621419  0.502088  0.414687  -0.627350
    O   O7   0.377157  0.501193  0.415287  -0.627753
    O   O8   0.621961  0.502602  0.584721  -0.614153
    C   C3   0.338306  0.498960  0.500439  0.896745
    C   C4   0.660828  0.500010  0.499530  0.828829
    Cu  Cu1  0.499701  0.499855  0.598891  0.898033
    Cu  Cu2  0.499844  0.498106  0.401166  0.870125
    C   C5   0.971990  0.432470  0.554977  -0.210553
    C   C6   0.027261  0.568540  0.444827  -0.240723
    C   C7   0.026502  0.424394  0.463128  0.007576
    C   C8   0.972785  0.576703  0.536630  0.031977
    H   H1   0.946822  0.376048  0.599284  0.090198
    H   H2   0.051429  0.624611  0.399401  0.093064
    C   C9   0.248171  0.499804  0.500822  -0.227585
    C   C10  0.751048  0.500909  0.499298  -0.197780
    C   C11  0.026676  0.509247  0.591074  -0.004864
    C   C12  0.972420  0.491873  0.408804  0.000854
    C   C13  0.080573  0.500377  0.499895  0.429345
    C   C14  0.918722  0.500767  0.500126  0.396687
    C   C15  0.172484  0.500185  0.500475  -0.309485
    C   C16  0.826784  0.501196  0.499797  -0.318738
    C   C17  0.423852  0.813623  0.496469  -0.174138
    C   C18  0.575247  0.183940  0.503678  -0.152565
    C   C19  0.498928  0.768211  0.498380  -0.061150
    C   C20  0.500337  0.229915  0.501468  -0.055325
    C   C21  0.573441  0.814033  0.501806  -0.271442
    C   C22  0.425651  0.184088  0.497942  -0.257703
    C   C23  0.573381  0.906139  0.501848  0.262287
    C   C24  0.425525  0.091827  0.498128  0.235298
    C   C25  0.498505  0.952731  0.499951  -0.028813
    C   C26  0.500221  0.045075  0.500264  -0.011396
    C   C27  0.422517  0.906725  0.497909  0.043303
    C   C28  0.576247  0.090799  0.502330  0.021852
    C   C29  0.649033  0.950566  0.503875  -0.345785
    C   C30  0.349841  0.046961  0.496057  -0.331121
    C   C31  0.651914  0.043345  0.503528  -0.002771
    C   C32  0.346872  0.954107  0.496709  -0.013518
    H   H3   0.367468  0.773568  0.494491  0.065836
    H   H4   0.631799  0.223655  0.505625  0.056601
    H   H5   0.631536  0.776627  0.504083  0.123640
    H   H6   0.367129  0.220802  0.495211  0.117910
    H   H7   0.704876  0.909782  0.505423  0.160140
    H   H8   0.293662  0.086990  0.494257  0.158861
    C   C33  0.551904  0.444753  0.796297  -0.211200
    C   C34  0.446871  0.552467  0.204368  -0.216010
    N   N1   0.500020  0.500062  0.746625  0.092636
    N   N2   0.498716  0.498154  0.253423  0.092147
    C   C35  0.444826  0.552298  0.795069  -0.212315
    C   C36  0.553850  0.445210  0.204565  -0.167437
    C   C37  0.443390  0.553946  0.897884  0.144455
    C   C38  0.556040  0.444273  0.101898  0.064912
    C   C39  0.498856  0.499311  0.949032  -0.045391
    C   C40  0.500798  0.499022  0.050955  0.015831
    C   C41  0.552582  0.444368  0.897803  0.213358
    C   C42  0.446742  0.553406  0.102644  0.188766
    C   C43  0.389292  0.609770  0.950906  -0.099575
    C   C44  0.611097  0.389354  0.049176  -0.000268
    C   C45  0.391803  0.608614  0.053059  -0.267098
    C   C46  0.607901  0.389473  0.947270  -0.309140
    H   H9   0.594585  0.401141  0.757113  0.158454
    H   H10  0.404423  0.594794  0.245484  0.166143
    H   H11  0.403509  0.593475  0.751420  0.209742
    H   H12  0.594700  0.402975  0.247355  0.187730
    H   H13  0.349944  0.650929  0.095241  0.150460
    H   H14  0.649331  0.346982  0.904744  0.158860
    C   C47  0.064776  0.336943  0.427081  0.142216
    C   C48  0.997052  0.269693  0.400503  -0.278712
    H   H15  0.953184  0.260654  0.463323  0.056410
    H   H16  0.961993  0.292996  0.334808  0.073878
    H   H17  0.026898  0.204574  0.382938  0.064440
    H   H18  0.105119  0.349689  0.361875  -0.013235
    H   H19  0.104259  0.308397  0.486893  -0.007452
    C   C49  0.934126  0.663907  0.572478  0.136844
    C   C50  0.001220  0.731782  0.599068  -0.278491
    H   H20  0.036545  0.708700  0.664640  0.067956
    H   H21  0.044940  0.741438  0.536289  0.057841
    H   H22  0.970856  0.796611  0.616829  0.065108
    H   H23  0.894288  0.692021  0.512823  -0.004892
    H   H24  0.894045  0.651149  0.637783  -0.008504
    C   C51  0.327840  0.671702  0.902222  0.214247
    C   C52  0.372245  0.756253  0.868342  -0.155403
    H   H25  0.401882  0.789516  0.932818  0.045999
    H   H26  0.421562  0.739949  0.813589  0.027874
    H   H27  0.325960  0.802305  0.834242  0.031592
    H   H28  0.294712  0.638185  0.840351  -0.044772
    H   H29  0.278970  0.691372  0.956319  -0.015751
    C   C53  0.673662  0.328732  0.097489  0.082108
    C   C54  0.750035  0.380981  0.132092  -0.104443
    H   H30  0.779175  0.415839  0.068349  0.038870
    H   H31  0.732203  0.430750  0.188902  0.016835
    H   H32  0.796182  0.333688  0.164320  0.036035
    H   H33  0.644832  0.290721  0.159004  -0.008136
    H   H34  0.695499  0.278908  0.042695  0.009258
    C   C55  0.933267  0.487349  0.306178  0.177277
    C   C56  0.999711  0.485078  0.225703  -0.314910
    H   H35  0.043032  0.542647  0.233743  0.064334
    H   H36  0.035699  0.421807  0.229373  0.078046
    H   H37  0.968551  0.489230  0.152526  0.064941
    H   H38  0.892614  0.427472  0.300029  -0.022532
    H   H39  0.893603  0.547533  0.295052  -0.005977
    C   C57  0.065187  0.513647  0.693729  0.119683
    C   C58  0.998057  0.516084  0.773263  -0.268130
    H   H40  0.962609  0.579701  0.769618  0.069964
    H   H41  0.954458  0.458794  0.764350  0.055357
    H   H42  0.028879  0.511374  0.846513  0.058845
    H   H43  0.104118  0.452958  0.704953  -0.002500
    H   H44  0.106159  0.573311  0.699935  0.005579
    C   C59  0.734658  0.093200  0.504293  0.231139
    C   C60  0.812486  0.034277  0.503771  -0.311811
    H   H45  0.814505  0.992181  0.571190  0.078794
    H   H46  0.813979  0.992457  0.436126  0.074927
    H   H47  0.869009  0.077717  0.503641  0.058701
    H   H48  0.738316  0.136408  0.437748  -0.004393
    H   H49  0.738061  0.135532  0.571516  -0.004992
    C   C61  0.264371  0.904062  0.496128  0.223406
    C   C62  0.186239  0.962397  0.496610  -0.308225
    H   H50  0.184677  0.004294  0.564178  0.075498
    H   H51  0.183911  0.004264  0.429020  0.077989
    H   H52  0.130155  0.918334  0.497066  0.057052
    H   H53  0.261397  0.861468  0.429198  -0.000879
    H   H54  0.261403  0.860930  0.562659  0.000127
