# generated using pymatgen
data_ZnH25C28NO6
_symmetry_space_group_name_H-M   'P 1'
_cell_length_a   14.08972200
_cell_length_b   18.26032700
_cell_length_c   19.48215100
_cell_angle_alpha   89.98937600
_cell_angle_beta   89.99790400
_cell_angle_gamma   85.36136000
_symmetry_Int_Tables_number   1
_chemical_formula_structural   ZnH25C28NO6
_chemical_formula_sum   'Zn2 H50 C56 N2 O12'
_cell_volume   4996.00695866
_cell_formula_units_Z   2
loop_
 _symmetry_equiv_pos_site_id
 _symmetry_equiv_pos_as_xyz
  1  'x, y, z'
loop_
 _atom_site_type_symbol
 _atom_site_label
 _atom_site_symmetry_multiplicity
 _atom_site_fract_x
 _atom_site_fract_y
 _atom_site_fract_z
 _atom_site_occupancy
  Zn  Zn1  1  0.50143100  0.41750300  0.48833900  1
  Zn  Zn2  1  0.50100500  0.58404500  0.49145900  1
  H  H1  1  0.01602800  0.42198900  0.51680900  1
  H  H2  1  0.98641400  0.57952800  0.46312800  1
  H  H3  1  0.52770800  0.61648000  0.14391000  1
  H  H4  1  0.47354700  0.38542100  0.83582300  1
  H  H5  1  0.48985400  0.38689700  0.14745100  1
  H  H6  1  0.52190200  0.61319900  0.83223700  1
  H  H7  1  0.49202100  0.38830900  0.27108400  1
  H  H8  1  0.51816500  0.61221100  0.70850900  1
  H  H9  1  0.58851900  0.39749500  0.05127000  1
  H  H10  1  0.41923200  0.60351500  0.92805800  1
  H  H11  1  0.58391400  0.39636300  0.92700000  1
  H  H12  1  0.42288700  0.60444700  0.05213800  1
  H  H13  1  0.45323500  0.30403800  0.38482500  1
  H  H14  1  0.63636200  0.69221400  0.44700800  1
  H  H15  1  0.45324400  0.17055500  0.38302400  1
  H  H16  1  0.63809500  0.82593000  0.44656100  1
  H  H17  1  0.54669600  0.16474800  0.59170800  1
  H  H18  1  0.36173000  0.84280900  0.53747200  1
  H  H19  1  0.55092300  0.29759400  0.58892200  1
  H  H20  1  0.36438500  0.70870400  0.53743600  1
  H  H21  1  0.63354000  0.06092500  0.53811300  1
  H  H22  1  0.36429200  0.93953300  0.44262600  1
  H  H23  1  0.61500800  0.85405000  0.63164400  1
  H  H24  1  0.55370500  0.94471000  0.63006900  1
  H  H25  1  0.76741600  0.90867000  0.65635100  1
  H  H26  1  0.70621200  0.99965100  0.65413700  1
  H  H27  1  0.60256500  0.96608100  0.75055400  1
  H  H28  1  0.72716700  0.95409900  0.77359400  1
  H  H29  1  0.66356900  0.87487900  0.75277400  1
  H  H30  1  0.27272700  0.15482400  0.50163600  1
  H  H31  1  0.30625700  0.06516000  0.53712100  1
  H  H32  1  0.15739500  0.09970700  0.42388400  1
  H  H33  1  0.19054900  0.01014400  0.46031600  1
  H  H34  1  0.13845900  0.05629700  0.57555500  1
  H  H35  1  0.04288700  0.06741900  0.51353500  1
  H  H36  1  0.10502200  0.14591700  0.53896700  1
  H  H37  1  0.41112600  0.68047300  0.32966900  1
  H  H38  1  0.38216600  0.63926500  0.24916500  1
  H  H39  1  0.49087600  0.77750000  0.26737500  1
  H  H40  1  0.45917000  0.73760800  0.18642100  1
  H  H41  1  0.28760800  0.75636400  0.21782800  1
  H  H42  1  0.34432800  0.84173200  0.21811200  1
  H  H43  1  0.31979700  0.79730100  0.29839700  1
  H  H44  1  0.34306100  0.37198100  0.64587700  1
  H  H45  1  0.32924800  0.41662100  0.72822900  1
  H  H46  1  0.37083100  0.25079200  0.70376000  1
  H  H47  1  0.35647800  0.29531800  0.78648500  1
  H  H48  1  0.19210000  0.34309100  0.75434100  1
  H  H49  1  0.20728100  0.24395500  0.74930600  1
  H  H50  1  0.20640300  0.29820900  0.67162300  1
  C  C1  1  0.49535900  0.49886500  0.62445300  1
  C  C2  1  0.50653500  0.50286000  0.35530400  1
  C  C3  1  0.68726600  0.48932900  0.49393800  1
  C  C4  1  0.31517400  0.51217100  0.48589400  1
  C  C5  1  0.21304000  0.51833400  0.48387600  1
  C  C6  1  0.78940200  0.48317400  0.49600100  1
  C  C7  1  0.02491700  0.52905400  0.48032200  1
  C  C8  1  0.97752500  0.47246500  0.49961900  1
  C  C9  1  0.87517200  0.47821800  0.49767400  1
  C  C10  1  0.12727000  0.52329600  0.48223700  1
  C  C11  1  0.51458000  0.56869500  0.24252100  1
  C  C12  1  0.47969100  0.43448200  0.73716300  1
  C  C13  1  0.51731600  0.56653900  0.17163400  1
  C  C14  1  0.48420900  0.43528700  0.80801200  1
  C  C15  1  0.50799300  0.50180500  0.13655500  1
  C  C16  1  0.49835500  0.49926400  0.84298900  1
  C  C17  1  0.49907400  0.43812800  0.17338500  1
  C  C18  1  0.50900100  0.56270200  0.80622000  1
  C  C19  1  0.49930500  0.43924300  0.24411900  1
  C  C20  1  0.50718600  0.56191800  0.73551400  1
  C  C21  1  0.50701300  0.50418600  0.27959400  1
  C  C22  1  0.49354800  0.49790800  0.70010600  1
  C  C23  1  0.54996800  0.44263400  0.02482800  1
  C  C24  1  0.45782500  0.55843500  0.95456700  1
  C  C25  1  0.54740800  0.44199100  0.95406100  1
  C  C26  1  0.46005700  0.55897300  0.02528500  1
  C  C27  1  0.50136600  0.49991700  0.91839900  1
  C  C28  1  0.50625800  0.50114100  0.06104200  1
  C  C29  1  0.47433800  0.27301800  0.43029000  1
  C  C30  1  0.57627800  0.72561900  0.46764500  1
  C  C31  1  0.47306400  0.19754100  0.42961800  1
  C  C32  1  0.57742100  0.80103200  0.46759100  1
  C  C33  1  0.49839900  0.15730300  0.48776800  1
  C  C34  1  0.50031900  0.84415000  0.49273900  1
  C  C35  1  0.52695700  0.19415400  0.54504000  1
  C  C36  1  0.42300600  0.81043700  0.51719200  1
  C  C37  1  0.52847300  0.26949100  0.54372700  1
  C  C38  1  0.42468600  0.73481500  0.51739700  1
  C  C39  1  0.57329600  0.03492500  0.51781000  1
  C  C40  1  0.42306900  0.96614900  0.46446700  1
  C  C41  1  0.57402100  0.95938300  0.52065400  1
  C  C42  1  0.42091900  0.04190300  0.46339100  1
  C  C43  1  0.49956400  0.92450600  0.49247200  1
  C  C44  1  0.49740000  0.07679800  0.48897600  1
  C  C45  1  0.62263600  0.91275700  0.62009800  1
  C  C46  1  0.69863400  0.94098900  0.66587100  1
  C  C47  1  0.67103200  0.93346100  0.74058000  1
  C  C48  1  0.27975100  0.09507600  0.49051400  1
  C  C49  1  0.18348500  0.07003500  0.47075200  1
  C  C50  1  0.11293800  0.08602500  0.52859100  1
  C  C51  1  0.43432800  0.67172000  0.27570400  1
  C  C52  1  0.43796800  0.74570400  0.24085300  1
  C  C53  1  0.34096700  0.78795500  0.24407500  1
  C  C54  1  0.36489500  0.36897500  0.70055500  1
  C  C55  1  0.33518800  0.29827000  0.73170400  1
  C  C56  1  0.22818400  0.29584000  0.72633100  1
  N  N1  1  0.50169100  0.30791200  0.48698800  1
  N  N2  1  0.50074300  0.69361500  0.49276000  1
  O  O1  1  0.49721400  0.43648600  0.59079800  1
  O  O2  1  0.50546400  0.56507200  0.38903700  1
  O  O3  1  0.49671800  0.56263100  0.59341000  1
  O  O4  1  0.50545700  0.43904900  0.38637500  1
  O  O5  1  0.64321700  0.42883900  0.49155400  1
  O  O6  1  0.35922800  0.57267300  0.48807300  1
  O  O7  1  0.64284500  0.55521400  0.49440200  1
  O  O8  1  0.35957300  0.44626700  0.48558800  1
  O  O9  1  0.64894900  0.91968600  0.55135600  1
  O  O10  1  0.34329600  0.08148600  0.43606800  1
  O  O11  1  0.52500500  0.63425300  0.27477200  1
  O  O12  1  0.46385900  0.37001700  0.70484600  1
