# generated using pymatgen
data_ZnH8C15NO8
_symmetry_space_group_name_H-M   'P 1'
_cell_length_a   15.10679700
_cell_length_b   8.54554900
_cell_length_c   11.33242600
_cell_angle_alpha   90.00000000
_cell_angle_beta   95.03959000
_cell_angle_gamma   90.00000000
_symmetry_Int_Tables_number   1
_chemical_formula_structural   ZnH8C15NO8
_chemical_formula_sum   'Zn2 H16 C30 N2 O16'
_cell_volume   1457.31394697
_cell_formula_units_Z   2
loop_
 _symmetry_equiv_pos_site_id
 _symmetry_equiv_pos_as_xyz
  1  'x, y, z'
loop_
 _atom_site_type_symbol
 _atom_site_label
 _atom_site_symmetry_multiplicity
 _atom_site_fract_x
 _atom_site_fract_y
 _atom_site_fract_z
 _atom_site_occupancy
  Zn  Zn1  1  0.48721400  0.50075200  0.86801400  1
  Zn  Zn2  1  0.51278700  0.49925900  0.13200900  1
  H  H1  1  0.44058800  0.00053700  0.04134200  1
  H  H2  1  0.55941200  0.99943100  0.95868900  1
  H  H3  1  0.06772400  0.16802600  0.85634800  1
  H  H4  1  0.93229800  0.83197900  0.14361300  1
  H  H5  1  0.90728500  0.16951000  0.86488400  1
  H  H6  1  0.09272600  0.83052100  0.13507800  1
  H  H7  1  0.31823700  0.50875200  0.48560200  1
  H  H8  1  0.68175600  0.49104000  0.51443900  1
  H  H9  1  0.18290400  0.30582400  0.07215500  1
  H  H10  1  0.81719000  0.69429900  0.92787300  1
  H  H11  1  0.79444600  0.33492100  0.93940000  1
  H  H12  1  0.20551100  0.66510700  0.06054800  1
  H  H13  1  0.34662400  0.39575900  0.29447900  1
  H  H14  1  0.65322600  0.60439800  0.70593900  1
  H  H15  1  0.70617800  0.59949200  0.29573700  1
  H  H16  1  0.29396000  0.40034600  0.70448900  1
  C  C1  1  0.32562800  0.13958400  0.00703100  1
  C  C2  1  0.67438500  0.86042400  0.99298200  1
  C  C3  1  0.67411800  0.13962100  0.99069100  1
  C  C4  1  0.32587400  0.86038200  0.00932100  1
  C  C5  1  0.23401000  0.14035800  0.99292300  1
  C  C6  1  0.76600800  0.85968400  0.00710000  1
  C  C7  1  0.76567600  0.14094200  0.00403500  1
  C  C8  1  0.23431300  0.85910200  0.99596800  1
  C  C9  1  0.18803600  0.99956300  0.99332000  1
  C  C10  1  0.81196900  0.00049600  0.00667800  1
  C  C11  1  0.36988200  0.00021300  0.02293700  1
  C  C12  1  0.63012100  0.99978000  0.97706700  1
  C  C13  1  0.03869400  0.09605100  0.92118900  1
  C  C14  1  0.96132000  0.90403800  0.07881800  1
  C  C15  1  0.94783400  0.09724800  0.92632500  1
  C  C16  1  0.05217900  0.90285300  0.07368600  1
  C  C17  1  0.90876600  0.00147600  0.00516000  1
  C  C18  1  0.09124200  0.99861100  0.99484500  1
  C  C19  1  0.37941000  0.71838800  0.00571800  1
  C  C20  1  0.62058000  0.28160500  0.99429900  1
  C  C21  1  0.62094500  0.71812700  0.99587300  1
  C  C22  1  0.37906400  0.28188200  0.00414600  1
  C  C23  1  0.38411500  0.50545500  0.53114800  1
  C  C24  1  0.61588400  0.49441500  0.46890100  1
  C  C25  1  0.39299400  0.50480800  0.65333000  1
  C  C26  1  0.60700900  0.49518000  0.34671300  1
  C  C27  1  0.54801900  0.49894600  0.65331700  1
  C  C28  1  0.45198300  0.50103900  0.34672300  1
  C  C29  1  0.54116000  0.49823500  0.53083300  1
  C  C30  1  0.45884800  0.50168000  0.46922100  1
  N  N1  1  0.52571800  0.49822900  0.28732800  1
  N  N2  1  0.47428400  0.50179100  0.71270000  1
  O  O1  1  0.42045700  0.66877700  0.10545200  1
  O  O2  1  0.57954100  0.33123000  0.89456400  1
  O  O3  1  0.57975600  0.66967900  0.89588300  1
  O  O4  1  0.42024000  0.33033500  0.10414500  1
  O  O5  1  0.39642600  0.66418700  0.90158500  1
  O  O6  1  0.60356800  0.33581200  0.09843500  1
  O  O7  1  0.60383900  0.66283000  0.09967800  1
  O  O8  1  0.39616500  0.33717500  0.90033800  1
  O  O9  1  0.18945400  0.27961300  0.98827500  1
  O  O10  1  0.81058600  0.72045000  0.01174900  1
  O  O11  1  0.81015700  0.28010500  0.01533000  1
  O  O12  1  0.18981000  0.71996800  0.98463400  1
  O  O13  1  0.36995600  0.50297700  0.28545500  1
  O  O14  1  0.63004400  0.49700200  0.71457800  1
  O  O15  1  0.68129500  0.49260100  0.28617700  1
  O  O16  1  0.31872400  0.50733200  0.71389300  1
