data_DB0-m3_o11_o23_f0_pcu.sym.63_repeat
_audit_creation_date              2024-02-23
_audit_creation_method            'Materials Studio'
_symmetry_space_group_name_H-M    'P1'
_symmetry_Int_Tables_number       1
_symmetry_cell_setting            triclinic
loop_
_symmetry_equiv_pos_as_xyz
  x,y,z
_cell_length_a                    15.9636
_cell_length_b                    11.1366
_cell_length_c                    9.9121
_cell_angle_alpha                 89.9974
_cell_angle_beta                  89.9750
_cell_angle_gamma                 89.9982
loop_
_atom_site_label
_atom_site_type_symbol
_atom_site_fract_x
_atom_site_fract_y
_atom_site_fract_z
_atom_site_U_iso_or_equiv
_atom_site_adp_type
_atom_site_occupancy
O1     O     0.49895   0.32812   0.62697   0.00000  Uiso   1.00
O2     O     0.50153   0.32704   0.39442   0.00000  Uiso   1.00
C1     C     0.49972   0.27153   0.51102   0.00000  Uiso   1.00
O3     O     0.37479   0.50857   0.61784   0.00000  Uiso   1.00
O4     O     0.37733   0.50708   0.38513   0.00000  Uiso   1.00
C2     C     0.33713   0.50815   0.50049   0.00000  Uiso   1.00
Zn1    Zn    0.49881   0.50746   0.66089   0.00000  Uiso   1.00
Zn2    Zn    0.50275   0.50534   0.35368   0.00000  Uiso   1.00
O5     O     0.50108   0.68563   0.62065   0.00000  Uiso   1.00
O6     O     0.50337   0.68500   0.38715   0.00000  Uiso   1.00
O7     O     0.62431   0.50569   0.62985   0.00000  Uiso   1.00
O8     O     0.62682   0.50456   0.39632   0.00000  Uiso   1.00
C3     C     0.50228   0.74118   0.50407   0.00000  Uiso   1.00
C4     C     0.66440   0.50459   0.51401   0.00000  Uiso   1.00
C5     C     0.04998   0.48529   0.64550   0.00000  Uiso   1.00
C6     C     0.04962   0.39710   0.41800   0.00000  Uiso   1.00
C7     C     0.95597   0.41131   0.39224   0.00000  Uiso   1.00
H1     H     0.94385   0.36934   0.67165   0.00000  Uiso   1.00
H2     H     0.08199   0.40745   0.69255   0.00000  Uiso   1.00
H3     H     0.08373   0.39667   0.32045   0.00000  Uiso   1.00
H4     H     0.06392   0.31357   0.47397   0.00000  Uiso   1.00
H5     H     0.95197   0.46326   0.29709   0.00000  Uiso   1.00
C8     C     0.75427   0.50127   0.51473   0.00000  Uiso   1.00
C9     C     0.08018   0.50205   0.50218   0.00000  Uiso   1.00
C10    C     0.95639   0.46335   0.64320   0.00000  Uiso   1.00
C11    C     0.92131   0.49441   0.50419   0.00000  Uiso   1.00
C12    C     0.95104   0.62069   0.47103   0.00000  Uiso   1.00
C13    C     0.04499   0.61886   0.44767   0.00000  Uiso   1.00
C14    C     0.82970   0.49726   0.51067   0.00000  Uiso   1.00
C15    C     0.17178   0.50558   0.49982   0.00000  Uiso   1.00
C16    C     0.24726   0.50733   0.49898   0.00000  Uiso   1.00
H6     H     0.07412   0.69606   0.50053   0.00000  Uiso   1.00
H7     H     0.05865   0.62599   0.33822   0.00000  Uiso   1.00
H8     H     0.93631   0.68165   0.55628   0.00000  Uiso   1.00
H9     H     0.06384   0.56711   0.70528   0.00000  Uiso   1.00
H10    H     0.92643   0.52155   0.72013   0.00000  Uiso   1.00
H11    H     0.91893   0.65472   0.37945   0.00000  Uiso   1.00
C17    C     0.50173   0.94102   0.39821   0.00000  Uiso   1.00
C18    C     0.50314   0.87262   0.50913   0.00000  Uiso   1.00
H12    H     0.50064   0.89818   0.30008   0.00000  Uiso   1.00
H13    H     0.50495   0.91110   0.60891   0.00000  Uiso   1.00
C19    C     0.50202   0.07413   0.40101   0.00000  Uiso   1.00
C20    C     0.49917   0.13994   0.51428   0.00000  Uiso   1.00
H14    H     0.50423   0.11937   0.30431   0.00000  Uiso   1.00
H15    H     0.49607   0.09961   0.61309   0.00000  Uiso   1.00
C21    C     0.54644   0.57646   0.93183   0.00000  Uiso   1.00
N1     N     0.49563   0.51154   0.86256   0.00000  Uiso   1.00
H16    H     0.59366   0.62909   0.88007   0.00000  Uiso   1.00
H17    H     0.44494   0.47617   0.91249   0.00000  Uiso   1.00
C22    C     0.53946   0.58664   0.08036   0.00000  Uiso   1.00
N2     N     0.50710   0.50243   0.15203   0.00000  Uiso   1.00
H18    H     0.56554   0.66497   0.12974   0.00000  Uiso   1.00
H19    H     0.49328   0.42347   0.10341   0.00000  Uiso   1.00
C23    C     0.91065   0.28986   0.36107   0.00000  Uiso   1.00
C24    C     0.82668   0.31195   0.29031   0.00000  Uiso   1.00
C25    C     0.96394   0.21617   0.26289   0.00000  Uiso   1.00
C26    C     0.89488   0.21204   0.48513   0.00000  Uiso   1.00
H20    H     0.82364   0.40283   0.24505   0.00000  Uiso   1.00
H21    H     0.77401   0.29988   0.36171   0.00000  Uiso   1.00
H22    H     0.81699   0.24632   0.20782   0.00000  Uiso   1.00
H23    H     0.97963   0.27096   0.17289   0.00000  Uiso   1.00
H24    H     0.92961   0.13479   0.22966   0.00000  Uiso   1.00
H25    H     0.02221   0.18311   0.31074   0.00000  Uiso   1.00
H26    H     0.84989   0.25483   0.55525   0.00000  Uiso   1.00
H27    H     0.95417   0.19201   0.53852   0.00000  Uiso   1.00
H28    H     0.86716   0.12547   0.45252   0.00000  Uiso   1.00
