# generated using pymatgen
data_ZnH14C30N2O7
_symmetry_space_group_name_H-M   'P 1'
_cell_length_a   8.55530800
_cell_length_b   23.29784000
_cell_length_c   9.18710600
_cell_angle_alpha   93.73238200
_cell_angle_beta   90.04988300
_cell_angle_gamma   89.98552800
_symmetry_Int_Tables_number   1
_chemical_formula_structural   ZnH14C30N2O7
_chemical_formula_sum   'Zn2 H28 C60 N4 O14'
_cell_volume   1827.29110183
_cell_formula_units_Z   2
loop_
 _symmetry_equiv_pos_site_id
 _symmetry_equiv_pos_as_xyz
  1  'x, y, z'
loop_
 _atom_site_type_symbol
 _atom_site_label
 _atom_site_symmetry_multiplicity
 _atom_site_fract_x
 _atom_site_fract_y
 _atom_site_fract_z
 _atom_site_occupancy
  Zn  Zn1  1  0.49829900  0.49763200  0.84697000  1
  Zn  Zn2  1  0.50032300  0.49679200  0.17142300  1
  H  H1  1  0.25059600  0.69044300  0.03812600  1
  H  H2  1  0.75375100  0.31174200  0.07665700  1
  H  H3  1  0.37041900  0.85645500  0.91490800  1
  H  H4  1  0.61952900  0.13730800  0.94614800  1
  H  H5  1  0.25103900  0.30401300  0.99939300  1
  H  H6  1  0.75392500  0.68564800  0.95422800  1
  H  H7  1  0.36858900  0.14052100  0.13448600  1
  H  H8  1  0.62180200  0.85732700  0.10355800  1
  H  H9  1  0.37758300  0.03718100  0.09741700  1
  H  H10  1  0.61309500  0.95997100  0.08901000  1
  H  H11  1  0.37814700  0.95965000  0.95567700  1
  H  H12  1  0.61222700  0.03489100  0.96440800  1
  H  H13  1  0.99748100  0.53750100  0.06647000  1
  H  H14  1  0.00007900  0.45515600  0.93888700  1
  H  H15  1  0.25247900  0.47316400  0.40407800  1
  H  H16  1  0.74671000  0.52069700  0.61642400  1
  H  H17  1  0.31926100  0.56586800  0.61256500  1
  H  H18  1  0.68067100  0.42904300  0.40251900  1
  H  H19  1  0.67994300  0.71155300  0.40813100  1
  H  H20  1  0.94848800  0.74325700  0.37243100  1
  H  H21  1  0.16098700  0.67244100  0.34243600  1
  H  H22  1  0.10275600  0.56922300  0.34556200  1
  H  H23  1  0.83551500  0.53651700  0.37613100  1
  H  H24  1  0.32452500  0.28144100  0.59705400  1
  H  H25  1  0.49666000  0.19845400  0.61244100  1
  H  H26  1  0.78116300  0.21174900  0.63120300  1
  H  H27  1  0.89275800  0.30909400  0.63888700  1
  H  H28  1  0.72348900  0.39246900  0.62671000  1
  C  C1  1  0.12233200  0.78997000  0.95249500  1
  C  C2  1  0.86854900  0.20429200  0.99263800  1
  C  C3  1  0.87089200  0.79084600  0.05200600  1
  C  C4  1  0.12010100  0.20635800  0.09228000  1
  C  C5  1  0.86206700  0.66689700  0.98868800  1
  C  C6  1  0.13974900  0.32548000  0.00881700  1
  C  C7  1  0.86025100  0.61009100  0.02273400  1
  C  C8  1  0.13881300  0.38372200  0.99017300  1
  C  C9  1  0.13783800  0.61029600  0.03168100  1
  C  C10  1  0.86108800  0.38436300  0.99328900  1
  C  C11  1  0.13952200  0.66915400  0.02303400  1
  C  C12  1  0.86215800  0.32903100  0.03850900  1
  C  C13  1  0.00001900  0.69872000  0.00266700  1
  C  C14  1  0.99948200  0.29670300  0.03105500  1
  C  C15  1  0.99594000  0.87945700  0.01145400  1
  C  C16  1  0.99420800  0.11636000  0.03891300  1
  C  C17  1  0.12828700  0.84936300  0.97181700  1
  C  C18  1  0.86179700  0.14556400  0.00493600  1
  C  C19  1  0.26464500  0.87902600  0.94811400  1
  C  C20  1  0.72530700  0.11544900  0.97540300  1
  C  C21  1  0.86386400  0.84979900  0.04400000  1
  C  C22  1  0.12632800  0.14688200  0.07696900  1
  C  C23  1  0.99833300  0.58243300  0.04610900  1
  C  C24  1  0.99992300  0.41099000  0.96650100  1
  C  C25  1  0.13417400  0.02777000  0.04087400  1
  C  C26  1  0.85634000  0.96827300  0.03376800  1
  C  C27  1  0.85578300  0.02724600  0.01952800  1
  C  C28  1  0.13468000  0.96839500  0.01224600  1
  C  C29  1  0.99468800  0.05707000  0.03354200  1
  C  C30  1  0.99568000  0.93876700  0.01906500  1
  C  C31  1  0.26874200  0.05854300  0.07754200  1
  C  C32  1  0.72165900  0.93821000  0.06350900  1
  C  C33  1  0.26299300  0.11760400  0.10231100  1
  C  C34  1  0.72723400  0.87956700  0.07528200  1
  C  C35  1  0.26966700  0.93800100  0.97496800  1
  C  C36  1  0.72053000  0.05692800  0.98929700  1
  C  C37  1  0.71718000  0.57583900  0.01918400  1
  C  C38  1  0.28151500  0.41839300  0.99739600  1
  C  C39  1  0.71881300  0.41912700  0.99630200  1
  C  C40  1  0.28044300  0.57563900  0.02404200  1
  C  C41  1  0.40259900  0.53346800  0.56465000  1
  C  C42  1  0.59697100  0.46074600  0.45290200  1
  C  C43  1  0.36745900  0.48486500  0.45327400  1
  C  C44  1  0.63220000  0.50942100  0.56562800  1
  C  C45  1  0.53803500  0.54483200  0.46782300  1
  C  C46  1  0.46248400  0.44927300  0.55040200  1
  C  C47  1  0.57609600  0.60346200  0.42129600  1
  C  C48  1  0.73833700  0.62178000  0.39826600  1
  C  C49  1  0.77165700  0.67976000  0.39431800  1
  C  C50  1  0.92314000  0.69786600  0.37458800  1
  C  C51  1  0.04225300  0.65822300  0.35797600  1
  C  C52  1  0.00963000  0.60039800  0.36009300  1
  C  C53  1  0.85829400  0.58210600  0.37975600  1
  C  C54  1  0.40559900  0.39246500  0.59577000  1
  C  C55  1  0.51128600  0.34309300  0.60765400  1
  C  C56  1  0.44917700  0.28823500  0.60649200  1
  C  C57  1  0.54594800  0.24122300  0.61472300  1
  C  C58  1  0.70531400  0.24864000  0.62522000  1
  C  C59  1  0.76779300  0.30318600  0.62895100  1
  C  C60  1  0.67140500  0.35031300  0.62043600  1
  N  N1  1  0.99720700  0.76065100  0.00020700  1
  N  N2  1  0.99524600  0.23506900  0.04149900  1
  N  N3  1  0.50251400  0.49707800  0.36272600  1
  N  N4  1  0.49631800  0.49724800  0.65561400  1
  O  O1  1  0.24038400  0.76215000  0.88226800  1
  O  O2  1  0.75036700  0.22964000  0.92506100  1
  O  O3  1  0.23781300  0.23489300  0.16130300  1
  O  O4  1  0.75326800  0.76452700  0.11779500  1
  O  O5  1  0.66892200  0.55528200  0.14132300  1
  O  O6  1  0.33048600  0.43890900  0.87639000  1
  O  O7  1  0.66055500  0.55896600  0.89101200  1
  O  O8  1  0.33688800  0.43575800  0.12674900  1
  O  O9  1  0.66884600  0.43952300  0.87437100  1
  O  O10  1  0.33084600  0.55523200  0.14491800  1
  O  O11  1  0.66297900  0.43584500  0.12457200  1
  O  O12  1  0.33451500  0.55832900  0.89428300  1
  O  O13  1  0.47036000  0.63817900  0.41282300  1
  O  O14  1  0.26535300  0.38564700  0.61056900  1
