# generated using pymatgen
data_FeH12C25NO9
_symmetry_space_group_name_H-M   'P 1'
_cell_length_a   13.19166700
_cell_length_b   9.39383500
_cell_length_c   17.51116300
_cell_angle_alpha   89.02581800
_cell_angle_beta   99.10502200
_cell_angle_gamma   111.34766400
_symmetry_Int_Tables_number   1
_chemical_formula_structural   FeH12C25NO9
_chemical_formula_sum   'Fe2 H24 C50 N2 O18'
_cell_volume   1993.69157471
_cell_formula_units_Z   2
loop_
 _symmetry_equiv_pos_site_id
 _symmetry_equiv_pos_as_xyz
  1  'x, y, z'
loop_
 _atom_site_type_symbol
 _atom_site_label
 _atom_site_symmetry_multiplicity
 _atom_site_fract_x
 _atom_site_fract_y
 _atom_site_fract_z
 _atom_site_occupancy
  Fe  Fe1  1  0.49956600  0.00291600  0.16147400  1
  Fe  Fe2  1  0.50445500  0.98505600  0.84614800  1
  H  H1  1  0.11058100  0.93871800  0.81316900  1
  H  H2  1  0.77728400  0.96962700  0.85542800  1
  H  H3  1  0.22883100  0.03286300  0.15119000  1
  H  H4  1  0.07882100  0.04996700  0.20650900  1
  H  H5  1  0.89790400  0.04552600  0.19427500  1
  H  H6  1  0.51361700  0.25255600  0.63128600  1
  H  H7  1  0.51030600  0.70117800  0.59372100  1
  H  H8  1  0.48797300  0.73212100  0.37562000  1
  H  H9  1  0.48548900  0.51867700  0.81637000  1
  H  H10  1  0.52188000  0.47174000  0.19089800  1
  H  H11  1  0.59342100  0.18316200  0.40434500  1
  H  H12  1  0.54154100  0.95062300  0.47807600  1
  H  H13  1  0.27064500  0.67311300  0.60177300  1
  H  H14  1  0.19777300  0.75007900  0.52666000  1
  H  H15  1  0.27100200  0.86303200  0.61565200  1
  H  H16  1  0.24666200  0.01738300  0.51062400  1
  H  H17  1  0.29929300  0.24664900  0.43764400  1
  H  H18  1  0.06049500  0.16674100  0.76841000  1
  H  H19  1  0.03173300  0.15510400  0.62650800  1
  H  H20  1  0.80030200  0.86220600  0.42891000  1
  H  H21  1  0.71114500  0.83791100  0.50013400  1
  H  H22  1  0.79755400  0.72400600  0.50205400  1
  H  H23  1  0.74684200  0.74616900  0.62476400  1
  H  H24  1  0.77716700  0.75914000  0.76478800  1
  C  C1  1  0.21846200  0.97345400  0.91976300  1
  C  C2  1  0.12002300  0.96198300  0.87437100  1
  C  C3  1  0.03487300  0.97652300  0.90663400  1
  C  C4  1  0.93730600  0.97001500  0.86044200  1
  C  C5  1  0.85142700  0.97664700  0.89390800  1
  C  C6  1  0.23029600  0.99182800  0.99960000  1
  C  C7  1  0.14359600  0.00144700  0.03268800  1
  C  C8  1  0.04627500  0.99450700  0.98609200  1
  C  C9  1  0.96052800  0.00634400  0.01909500  1
  C  C10  1  0.86258400  0.99733300  0.97334100  1
  C  C11  1  0.77579900  0.00483500  0.00729100  1
  C  C12  1  0.15459800  0.02355700  0.11215100  1
  C  C13  1  0.06914300  0.03438400  0.14439800  1
  C  C14  1  0.97213200  0.02479600  0.09822600  1
  C  C15  1  0.88669700  0.03213000  0.13200300  1
  C  C16  1  0.78760500  0.02027700  0.08742900  1
  C  C17  1  0.69715100  0.01981100  0.12739200  1
  C  C18  1  0.50677900  0.73915500  0.22432700  1
  C  C19  1  0.33674000  0.01607200  0.04821800  1
  C  C20  1  0.48825700  0.21440300  0.26125800  1
  C  C21  1  0.50077700  0.76868100  0.73808600  1
  C  C22  1  0.66882800  0.97871100  0.95917800  1
  C  C23  1  0.50014100  0.24959700  0.78333400  1
  C  C24  1  0.30864500  0.97085200  0.88044000  1
  C  C25  1  0.49943900  0.37158300  0.72989500  1
  C  C26  1  0.50833300  0.35605100  0.65320100  1
  C  C27  1  0.50815700  0.47105700  0.60303400  1
  C  C28  1  0.50465200  0.60615800  0.63063000  1
  C  C29  1  0.49562200  0.62212400  0.70717600  1
  C  C30  1  0.49056200  0.50382600  0.75623100  1
  C  C31  1  0.49026900  0.62726500  0.35299900  1
  C  C32  1  0.50352400  0.61500100  0.27703800  1
  C  C33  1  0.51208400  0.48332000  0.25029800  1
  C  C34  1  0.49703900  0.35935500  0.29646200  1
  C  C35  1  0.47894300  0.36860800  0.37175800  1
  C  C36  1  0.48213400  0.50748200  0.40165000  1
  C  C37  1  0.44888300  0.22880200  0.41555100  1
  C  C38  1  0.51664600  0.14536400  0.42693400  1
  C  C39  1  0.48773100  0.01494800  0.46876900  1
  C  C40  1  0.39095000  0.96624400  0.49921300  1
  C  C41  1  0.27170900  0.77890500  0.57224400  1
  C  C42  1  0.32304500  0.05049600  0.48786600  1
  C  C43  1  0.35252800  0.18139500  0.44641000  1
  C  C44  1  0.92241600  0.96121200  0.77571100  1
  C  C45  1  0.99257100  0.07343000  0.73656600  1
  C  C46  1  0.97601900  0.06732200  0.65678900  1
  C  C47  1  0.88865500  0.95040700  0.61526300  1
  C  C48  1  0.79207200  0.83759800  0.49026800  1
  C  C49  1  0.81680200  0.83932100  0.65461300  1
  C  C50  1  0.83352800  0.84598500  0.73447600  1
  N  N1  1  0.51307300  0.44806600  0.52439800  1
  N  N2  1  0.47847600  0.53225200  0.48074700  1
  O  O1  1  0.60628300  0.03093300  0.08964400  1
  O  O2  1  0.52602700  0.72930100  0.15372500  1
  O  O3  1  0.70630600  0.00478600  0.20254900  1
  O  O4  1  0.48662800  0.85801400  0.24607500  1
  O  O5  1  0.34816500  0.91504200  0.09834400  1
  O  O6  1  0.42036400  0.14412800  0.04446700  1
  O  O7  1  0.55241000  0.21353000  0.21126700  1
  O  O8  1  0.40716300  0.08759000  0.27160800  1
  O  O9  1  0.45401000  0.77275900  0.79850700  1
  O  O10  1  0.56261600  0.89619100  0.71087400  1
  O  O11  1  0.65611000  0.07817000  0.90852000  1
  O  O12  1  0.58636500  0.84939100  0.96310000  1
  O  O13  1  0.30127600  0.98821300  0.80549300  1
  O  O14  1  0.51437500  0.12672300  0.76021800  1
  O  O15  1  0.39823700  0.95666800  0.91846100  1
  O  O16  1  0.48636000  0.26273400  0.85511400  1
  O  O17  1  0.36554100  0.83753300  0.53944200  1
  O  O18  1  0.87571400  0.94844800  0.53722000  1
