data_DB0-m29_o96_o1530_f0_pts.sym.88_repeat
_audit_creation_date              2024-02-24
_audit_creation_method            'Materials Studio'
_symmetry_space_group_name_H-M    'P1'
_symmetry_Int_Tables_number       1
_symmetry_cell_setting            triclinic
loop_
_symmetry_equiv_pos_as_xyz
  x,y,z
_cell_length_a                    17.2816
_cell_length_b                    14.2152
_cell_length_c                    18.9811
_cell_angle_alpha                 84.2986
_cell_angle_beta                  90.6158
_cell_angle_gamma                 116.0032
loop_
_atom_site_label
_atom_site_type_symbol
_atom_site_fract_x
_atom_site_fract_y
_atom_site_fract_z
_atom_site_U_iso_or_equiv
_atom_site_adp_type
_atom_site_occupancy
C1     C     0.21718   0.99091   0.10911   0.00000  Uiso   1.00
C2     C     0.15760   0.95635   0.16346   0.00000  Uiso   1.00
C3     C     0.08287   0.95527   0.13659   0.00000  Uiso   1.00
N1     N     0.09407   0.98472   0.06609   0.00000  Uiso   1.00
C4     C     0.17644   0.00594   0.04901   0.00000  Uiso   1.00
C5     C     0.01245   0.93554   0.17575   0.00000  Uiso   1.00
C6     C     0.93774   0.95009   0.14903   0.00000  Uiso   1.00
C7     C     0.88429   0.97390   0.18969   0.00000  Uiso   1.00
C8     C     0.82254   0.97995   0.14723   0.00000  Uiso   1.00
C9     C     0.83941   0.95999   0.08057   0.00000  Uiso   1.00
N2     N     0.90945   0.94048   0.08240   0.00000  Uiso   1.00
C10    C     0.79027   0.96324   0.01731   0.00000  Uiso   1.00
C11    C     0.82559   0.99009   0.95175   0.00000  Uiso   1.00
C12    C     0.78679   0.01065   0.89213   0.00000  Uiso   1.00
C13    C     0.84739   0.04728   0.83851   0.00000  Uiso   1.00
C14    C     0.92038   0.04327   0.86516   0.00000  Uiso   1.00
N3     N     0.90733   0.00885   0.93489   0.00000  Uiso   1.00
C15    C     0.99085   0.06271   0.82649   0.00000  Uiso   1.00
C16    C     0.05977   0.03577   0.85263   0.00000  Uiso   1.00
C17    C     0.11069   0.00679   0.81206   0.00000  Uiso   1.00
C18    C     0.17536   0.00663   0.85389   0.00000  Uiso   1.00
C19    C     0.16042   0.03009   0.91999   0.00000  Uiso   1.00
N4     N     0.09071   0.04978   0.91824   0.00000  Uiso   1.00
C20    C     0.21098   0.03081   0.98306   0.00000  Uiso   1.00
H1     H     0.01318   0.91779   0.23235   0.00000  Uiso   1.00
H2     H     0.72596   0.95598   0.02548   0.00000  Uiso   1.00
H3     H     0.99424   0.09028   0.77101   0.00000  Uiso   1.00
H4     H     0.27587   0.04005   0.97485   0.00000  Uiso   1.00
H5     H     0.93425   0.91641   0.04178   0.00000  Uiso   1.00
H6     H     0.06899   0.07911   0.95780   0.00000  Uiso   1.00
C21    C     0.10558   0.98069   0.74314   0.00000  Uiso   1.00
C22    C     0.17243   0.96421   0.71646   0.00000  Uiso   1.00
C23    C     0.24113   0.96995   0.75772   0.00000  Uiso   1.00
C24    C     0.24167   0.98845   0.82833   0.00000  Uiso   1.00
C25    C     0.30099   0.00706   0.11982   0.00000  Uiso   1.00
C26    C     0.32165   0.98299   0.18789   0.00000  Uiso   1.00
C27    C     0.25887   0.94253   0.24246   0.00000  Uiso   1.00
C28    C     0.17636   0.93049   0.23092   0.00000  Uiso   1.00
C29    C     0.88741   0.99210   0.25954   0.00000  Uiso   1.00
C30    C     0.82430   0.01494   0.28643   0.00000  Uiso   1.00
C31    C     0.75955   0.01989   0.24388   0.00000  Uiso   1.00
C32    C     0.75895   0.00332   0.17269   0.00000  Uiso   1.00
C33    C     0.70359   0.99655   0.88105   0.00000  Uiso   1.00
C34    C     0.68453   0.02400   0.81326   0.00000  Uiso   1.00
C35    C     0.74842   0.06654   0.75950   0.00000  Uiso   1.00
C36    C     0.83037   0.07697   0.77146   0.00000  Uiso   1.00
H7     H     0.29383   0.99198   0.86152   0.00000  Uiso   1.00
H8     H     0.34953   0.03851   0.07738   0.00000  Uiso   1.00
H9     H     0.27478   0.92471   0.29575   0.00000  Uiso   1.00
H10    H     0.12924   0.90178   0.27435   0.00000  Uiso   1.00
H11    H     0.93709   0.98858   0.29317   0.00000  Uiso   1.00
H12    H     0.70940   0.00665   0.13881   0.00000  Uiso   1.00
H13    H     0.65420   0.96317   0.92281   0.00000  Uiso   1.00
H14    H     0.73392   0.08703   0.70632   0.00000  Uiso   1.00
H15    H     0.87817   0.10650   0.72851   0.00000  Uiso   1.00
H16    H     0.16975   0.94415   0.66283   0.00000  Uiso   1.00
H17    H     0.82588   0.02784   0.34167   0.00000  Uiso   1.00
O1     O     0.62563   0.03800   0.24042   0.00000  Uiso   1.00
C37    C     0.69015   0.03602   0.27691   0.00000  Uiso   1.00
O2     O     0.49830   0.81310   0.33442   0.00000  Uiso   1.00
O3     O     0.68815   0.03848   0.34575   0.00000  Uiso   1.00
O4     O     0.51176   0.94325   0.40116   0.00000  Uiso   1.00
C38    C     0.49601   0.84514   0.39653   0.00000  Uiso   1.00
Fe1    Fe    0.53491   0.02767   0.30777   0.00000  Uiso   1.00
O5     O     0.42137   0.95393   0.26259   0.00000  Uiso   1.00
O6     O     0.47462   0.09162   0.17626   0.00000  Uiso   1.00
C39    C     0.41012   0.00622   0.20577   0.00000  Uiso   1.00
O7     O     0.57699   0.17822   0.32706   0.00000  Uiso   1.00
O8     O     0.43319   0.11775   0.34224   0.00000  Uiso   1.00
C40    C     0.51102   0.19141   0.34993   0.00000  Uiso   1.00
C41    C     0.49473   0.62548   0.52437   0.00000  Uiso   1.00
C42    C     0.49257   0.66590   0.58819   0.00000  Uiso   1.00
C43    C     0.49945   0.61385   0.65153   0.00000  Uiso   1.00
C44    C     0.50732   0.52194   0.65216   0.00000  Uiso   1.00
C45    C     0.50781   0.47987   0.58993   0.00000  Uiso   1.00
C46    C     0.50254   0.53054   0.52553   0.00000  Uiso   1.00
C47    C     0.51472   0.38665   0.59352   0.00000  Uiso   1.00
C48    C     0.51109   0.33661   0.53359   0.00000  Uiso   1.00
C49    C     0.50953   0.38826   0.46780   0.00000  Uiso   1.00
C50    C     0.50732   0.48543   0.46455   0.00000  Uiso   1.00
C51    C     0.51099   0.23759   0.53747   0.00000  Uiso   1.00
C52    C     0.52133   0.20049   0.47547   0.00000  Uiso   1.00
C53    C     0.52227   0.25205   0.41040   0.00000  Uiso   1.00
C54    C     0.51162   0.34315   0.40573   0.00000  Uiso   1.00
C55    C     0.49054   0.68248   0.46129   0.00000  Uiso   1.00
C56    C     0.48611   0.77675   0.46203   0.00000  Uiso   1.00
C57    C     0.48004   0.81236   0.52528   0.00000  Uiso   1.00
C58    C     0.48353   0.75851   0.58818   0.00000  Uiso   1.00
H18    H     0.49791   0.64295   0.70167   0.00000  Uiso   1.00
H19    H     0.51194   0.48213   0.70244   0.00000  Uiso   1.00
H20    H     0.52161   0.12465   0.47599   0.00000  Uiso   1.00
H21    H     0.51165   0.52606   0.41332   0.00000  Uiso   1.00
H22    H     0.52588   0.35655   0.64475   0.00000  Uiso   1.00
H23    H     0.49348   0.65850   0.41003   0.00000  Uiso   1.00
H24    H     0.47773   0.88688   0.52660   0.00000  Uiso   1.00
O9     O     0.58736   0.05422   0.73675   0.00000  Uiso   1.00
O10    O     0.53084   0.91876   0.82447   0.00000  Uiso   1.00
C59    C     0.59666   0.00224   0.79449   0.00000  Uiso   1.00
O11    O     0.42892   0.83691   0.66720   0.00000  Uiso   1.00
O12    O     0.57096   0.87785   0.66664   0.00000  Uiso   1.00
C60    C     0.49241   0.81446   0.65079   0.00000  Uiso   1.00
O13    O     0.46286   0.17733   0.66168   0.00000  Uiso   1.00
O14    O     0.38360   0.97512   0.75844   0.00000  Uiso   1.00
C61    C     0.31338   0.96031   0.72416   0.00000  Uiso   1.00
O15    O     0.49976   0.07578   0.59873   0.00000  Uiso   1.00
C62    C     0.49436   0.16429   0.60289   0.00000  Uiso   1.00
O16    O     0.31203   0.94867   0.65637   0.00000  Uiso   1.00
Fe2    Fe    0.47393   0.98626   0.69027   0.00000  Uiso   1.00
C63    C     0.50010   0.38644   0.33502   0.00000  Uiso   1.00
C64    C     0.42953   0.40268   0.31597   0.00000  Uiso   1.00
C65    C     0.44254   0.43727   0.24590   0.00000  Uiso   1.00
C66    C     0.51956   0.43874   0.22684   0.00000  Uiso   1.00
O17    O     0.55469   0.40700   0.28077   0.00000  Uiso   1.00
H25    H     0.37470   0.38947   0.34940   0.00000  Uiso   1.00
H26    H     0.40062   0.45821   0.21199   0.00000  Uiso   1.00
H27    H     0.54839   0.46202   0.17388   0.00000  Uiso   1.00
C67    C     0.03011   0.96040   0.69984   0.00000  Uiso   1.00
C68    C     0.03393   0.98587   0.62774   0.00000  Uiso   1.00
C69    C     0.95074   0.94858   0.60844   0.00000  Uiso   1.00
C70    C     0.90191   0.90205   0.66982   0.00000  Uiso   1.00
O18    O     0.94984   0.90827   0.72570   0.00000  Uiso   1.00
H28    H     0.09078   0.02721   0.59332   0.00000  Uiso   1.00
H29    H     0.92771   0.95394   0.55572   0.00000  Uiso   1.00
H30    H     0.83227   0.86395   0.67277   0.00000  Uiso   1.00
