# generated using pymatgen
data_Cu3H26(C5O2)6
_symmetry_space_group_name_H-M   'P 1'
_cell_length_a   18.59134600
_cell_length_b   18.57228800
_cell_length_c   18.67263800
_cell_angle_alpha   109.25702600
_cell_angle_beta   109.72677100
_cell_angle_gamma   109.20546300
_symmetry_Int_Tables_number   1
_chemical_formula_structural   Cu3H26(C5O2)6
_chemical_formula_sum   'Cu6 H52 C60 O24'
_cell_volume   4976.78369427
_cell_formula_units_Z   2
loop_
 _symmetry_equiv_pos_site_id
 _symmetry_equiv_pos_as_xyz
  1  'x, y, z'
loop_
 _atom_site_type_symbol
 _atom_site_label
 _atom_site_symmetry_multiplicity
 _atom_site_fract_x
 _atom_site_fract_y
 _atom_site_fract_z
 _atom_site_occupancy
  Cu  Cu1  1  0.50620000  0.44323800  0.44212200  1
  Cu  Cu2  1  0.50721100  0.56562600  0.56248000  1
  Cu  Cu3  1  0.94337900  0.44487500  0.00172400  1
  Cu  Cu4  1  0.06435700  0.56780000  0.99821200  1
  Cu  Cu5  1  0.94347100  0.00423300  0.44168200  1
  Cu  Cu6  1  0.06702800  0.00625200  0.56274600  1
  H  H1  1  0.61195000  0.38990600  0.70023900  1
  H  H2  1  0.72187000  0.36967100  0.77178500  1
  H  H3  1  0.77231500  0.38152600  0.70601400  1
  H  H4  1  0.76876100  0.49018900  0.62871700  1
  H  H5  1  0.88536100  0.52038700  0.74518300  1
  H  H6  1  0.73237800  0.62514400  0.79223600  1
  H  H7  1  0.64091600  0.53710400  0.77982200  1
  H  H8  1  0.72498800  0.50328400  0.86518900  1
  H  H9  1  0.78880900  0.59882100  0.69110800  1
  H  H10  1  0.89340000  0.62049700  0.81367000  1
  H  H11  1  0.10469700  0.24269100  0.45857700  1
  H  H12  1  0.28425400  0.15314500  0.53834800  1
  H  H13  1  0.39449500  0.26601300  0.53638800  1
  H  H14  1  0.34583500  0.63120600  0.40295500  1
  H  H15  1  0.28830100  0.38514900  0.21484300  1
  H  H16  1  0.77305500  0.76708200  0.64430800  1
  H  H17  1  0.88606500  0.88002500  0.64401600  1
  H  H18  1  0.74537700  0.73995600  0.36401900  1
  H  H19  1  0.63423700  0.62556600  0.36434800  1
  H  H20  1  0.14102200  0.39268800  0.86137700  1
  H  H21  1  0.14183000  0.27790600  0.75049200  1
  H  H22  1  0.86514500  0.11653200  0.63650900  1
  H  H23  1  0.86533900  0.22941500  0.75050900  1
  H  H24  1  0.01950100  0.77884900  0.13375000  1
  H  H25  1  0.01794000  0.89075200  0.24656900  1
  H  H26  1  0.99712200  0.73778600  0.37406000  1
  H  H27  1  0.99400700  0.62382700  0.25865000  1
  H  H28  1  0.65331900  0.23667900  0.61194700  1
  H  H29  1  0.55692900  0.23481300  0.61686400  1
  H  H30  1  0.55244000  0.19024600  0.51283900  1
  H  H31  1  0.55925400  0.32596400  0.54252100  1
  H  H32  1  0.66666667  0.34291900  0.56042200  1
  H  H33  1  0.73755500  0.68680400  0.93104500  1
  H  H34  1  0.73837600  0.61971900  0.98287100  1
  H  H35  1  0.82796800  0.73029900  0.03786200  1
  H  H36  1  0.87623800  0.63188500  0.98324600  1
  H  H37  1  0.86599400  0.68655700  0.91999100  1
  H  H38  1  0.07545300  0.27447600  0.33935800  1
  H  H39  1  0.08724800  0.35181100  0.43936200  1
  H  H40  1  0.10408600  0.38553300  0.36402700  1
  H  H41  1  0.24403200  0.43998300  0.49816600  1
  H  H42  1  0.23391600  0.37638600  0.39469000  1
  H  H43  1  0.25785600  0.69172500  0.42709900  1
  H  H44  1  0.34128500  0.75645900  0.40931200  1
  H  H45  1  0.24624900  0.76914400  0.39312900  1
  H  H46  1  0.23235600  0.68336300  0.25285300  1
  H  H47  1  0.14854600  0.62151900  0.27008300  1
  H  H48  1  0.12328100  0.26360100  0.11106000  1
  H  H49  1  0.04698600  0.30303000  0.08162300  1
  H  H50  1  0.05648000  0.23014700  0.99753000  1
  H  H51  1  0.13425700  0.37923200  0.02494700  1
  H  H52  1  0.21152600  0.34513500  0.06263000  1
  C  C1  1  0.38397500  0.38784700  0.49814000  1
  C  C2  1  0.61938400  0.49815700  0.61956300  1
  C  C3  1  0.62750000  0.62072200  0.50422600  1
  C  C4  1  0.39174900  0.50808100  0.38460600  1
  C  C5  1  0.66177200  0.40547300  0.67955000  1
  C  C6  1  0.74251900  0.40917800  0.74184500  1
  C  C7  1  0.77384900  0.53496500  0.68899500  1
  C  C8  1  0.70354100  0.55633900  0.77874100  1
  C  C9  1  0.68820000  0.49728400  0.68969800  1
  C  C10  1  0.81078100  0.50406500  0.81182000  1
  C  C11  1  0.84835600  0.54918400  0.76800800  1
  C  C12  1  0.76508900  0.54760900  0.84924700  1
  C  C13  1  0.23086800  0.31315500  0.47200600  1
  C  C14  1  0.16841400  0.24870000  0.47433900  1
  C  C15  1  0.18704900  0.19135600  0.49854800  1
  C  C16  1  0.26832600  0.19763800  0.51999400  1
  C  C17  1  0.33069900  0.26122400  0.51822800  1
  C  C18  1  0.31351900  0.32009800  0.49621800  1
  C  C19  1  0.30750400  0.57821000  0.33625400  1
  C  C20  1  0.24250700  0.57833800  0.27168100  1
  C  C21  1  0.19517600  0.50845800  0.18650000  1
  C  C22  1  0.21196200  0.43899000  0.16653300  1
  C  C23  1  0.27595400  0.43962800  0.23156400  1
  C  C24  1  0.32404300  0.50894200  0.31626700  1
  C  C25  1  0.76665300  0.76055600  0.58245900  1
  C  C26  1  0.83100800  0.82421900  0.58229700  1
  C  C27  1  0.82342700  0.81790100  0.50399300  1
  C  C28  1  0.75208600  0.74636500  0.42592000  1
  C  C29  1  0.68947100  0.68113400  0.42611200  1
  C  C30  1  0.69593200  0.68843500  0.50435000  1
  C  C31  1  0.00314700  0.38679000  0.88053600  1
  C  C32  1  0.88206400  0.50525300  0.88118000  1
  C  C33  1  0.00518800  0.62571300  0.11987800  1
  C  C34  1  0.12561500  0.50739200  0.11865000  1
  C  C35  1  0.00688800  0.88901800  0.38561400  1
  C  C36  1  0.12043100  0.12349600  0.50046900  1
  C  C37  1  0.00387600  0.12178000  0.61877700  1
  C  C38  1  0.89016300  0.88670100  0.50352500  1
  C  C39  1  0.08025400  0.33205900  0.81218500  1
  C  C40  1  0.08083200  0.26694700  0.75004600  1
  C  C41  1  0.00350500  0.18970100  0.68605700  1
  C  C42  1  0.92598200  0.17701900  0.68588800  1
  C  C43  1  0.92621000  0.24042300  0.75062500  1
  C  C44  1  0.00314200  0.31857300  0.81323100  1
  C  C45  1  0.01459600  0.76952100  0.18642300  1
  C  C46  1  0.01298500  0.83238900  0.24979000  1
  C  C47  1  0.00759500  0.82182000  0.31796200  1
  C  C48  1  0.00207100  0.74721500  0.32145000  1
  C  C49  1  0.99953200  0.68249500  0.25584500  1
  C  C50  1  0.00659700  0.69384200  0.18861000  1
  C  C51  1  0.62081300  0.33139100  0.58610500  1
  C  C52  1  0.59468400  0.24302800  0.58238800  1
  C  C53  1  0.82882000  0.63708900  0.93310800  1
  C  C54  1  0.77953500  0.67020300  0.97322500  1
  C  C55  1  0.21011700  0.37321700  0.44121800  1
  C  C56  1  0.11273100  0.34360000  0.39311400  1
  C  C57  1  0.21948100  0.65062700  0.29072400  1
  C  C58  1  0.27000400  0.72109800  0.38649400  1
  C  C59  1  0.16412000  0.36320700  0.07537900  1
  C  C60  1  0.09310400  0.28492900  0.06591700  1
  O  O1  1  0.43217000  0.36484600  0.46753400  1
  O  O2  1  0.39861000  0.46929200  0.53339800  1
  O  O3  1  0.61040000  0.46716300  0.54045400  1
  O  O4  1  0.57460400  0.53522100  0.64114300  1
  O  O5  1  0.58010700  0.54081000  0.43538200  1
  O  O6  1  0.61556800  0.64280900  0.57249100  1
  O  O7  1  0.40201200  0.43835800  0.36277300  1
  O  O8  1  0.43934900  0.57652300  0.46480000  1
  O  O9  1  0.95103700  0.36272000  0.91109200  1
  O  O10  1  0.05569000  0.46913800  0.90784600  1
  O  O11  1  0.85990000  0.45784300  0.91686500  1
  O  O12  1  0.96399700  0.55403000  0.90402500  1
  O  O13  1  0.95729300  0.54360400  0.09683700  1
  O  O14  1  0.05159200  0.64948500  0.08402300  1
  O  O15  1  0.04358900  0.45362300  0.09130100  1
  O  O16  1  0.14835900  0.55985300  0.08788400  1
  O  O17  1  0.97247300  0.93547900  0.36331900  1
  O  O18  1  0.04025800  0.89992800  0.46563700  1
  O  O19  1  0.03961400  0.11161700  0.46845600  1
  O  O20  1  0.14402000  0.07681700  0.53374900  1
  O  O21  1  0.93404500  0.07336500  0.53921800  1
  O  O22  1  0.07426400  0.11228400  0.64065400  1
  O  O23  1  0.86693100  0.89709000  0.43400800  1
  O  O24  1  0.97044200  0.93534100  0.57255000  1
