# generated using pymatgen
data_ZnH9C12NClO4
_symmetry_space_group_name_H-M   'P 1'
_cell_length_a   8.52763300
_cell_length_b   9.14649200
_cell_length_c   11.14517100
_cell_angle_alpha   90.00000000
_cell_angle_beta   106.92694700
_cell_angle_gamma   90.00000000
_symmetry_Int_Tables_number   1
_chemical_formula_structural   ZnH9C12NClO4
_chemical_formula_sum   'Zn2 H18 C24 N2 Cl2 O8'
_cell_volume   831.63932889
_cell_formula_units_Z   2
loop_
 _symmetry_equiv_pos_site_id
 _symmetry_equiv_pos_as_xyz
  1  'x, y, z'
loop_
 _atom_site_type_symbol
 _atom_site_label
 _atom_site_symmetry_multiplicity
 _atom_site_fract_x
 _atom_site_fract_y
 _atom_site_fract_z
 _atom_site_occupancy
  Zn  Zn1  1  0.00600200  0.83607700  0.50276700  1
  Zn  Zn2  1  0.00875700  0.16950200  0.49770200  1
  H  H1  1  0.29300700  0.10301100  0.97187400  1
  H  H2  1  0.95040000  0.04004700  0.11403400  1
  H  H3  1  0.06442700  0.96455200  0.88665300  1
  H  H4  1  0.72166600  0.90116600  0.02852000  1
  H  H5  1  0.47079400  0.93956300  0.40953800  1
  H  H6  1  0.58602800  0.10193400  0.08982000  1
  H  H7  1  0.54445900  0.06683400  0.59146700  1
  H  H8  1  0.42869300  0.90259600  0.91037600  1
  H  H9  1  0.23464400  0.62729800  0.64413200  1
  H  H10  1  0.25502100  0.39867700  0.60059200  1
  H  H11  1  0.77479900  0.63554100  0.54235300  1
  H  H12  1  0.82983000  0.39801000  0.59541000  1
  H  H13  1  0.99778400  0.63995800  0.31350400  1
  H  H14  1  0.94201700  0.39972600  0.30448800  1
  H  H15  1  0.19838700  0.61402300  0.42535500  1
  H  H16  1  0.16004400  0.38133600  0.37992200  1
  H  H17  1  0.76941200  0.60328400  0.38225200  1
  H  H18  1  0.74806700  0.36950300  0.42957000  1
  C  C1  1  0.43256800  0.97157400  0.31223400  1
  C  C2  1  0.26909500  0.99442500  0.25293900  1
  C  C3  1  0.21471900  0.02629500  0.12683100  1
  C  C4  1  0.33095200  0.06370300  0.06740800  1
  C  C5  1  0.49703800  0.06114300  0.13322800  1
  C  C6  1  0.54858600  0.00530900  0.25381200  1
  C  C7  1  0.03643500  0.02080500  0.06097800  1
  C  C8  1  0.97845400  0.98377700  0.93975900  1
  C  C9  1  0.74588800  0.01113800  0.74791700  1
  C  C10  1  0.58254700  0.03438600  0.68866200  1
  C  C11  1  0.46644400  0.00015400  0.74679700  1
  C  C12  1  0.51779300  0.94366500  0.86717600  1
  C  C13  1  0.68384400  0.94089100  0.93311100  1
  C  C14  1  0.80017500  0.97859500  0.87388300  1
  C  C15  1  0.16000900  0.99874500  0.33053300  1
  C  C16  1  0.29407400  0.00232400  0.67005500  1
  C  C17  1  0.85473500  0.00671000  0.67022200  1
  C  C18  1  0.72115400  0.00325600  0.33027300  1
  C  C19  1  0.10957900  0.58179800  0.62150300  1
  C  C20  1  0.13075400  0.41875900  0.60967600  1
  C  C21  1  0.84045300  0.58347200  0.48125500  1
  C  C22  1  0.84949400  0.41983600  0.50322800  1
  C  C23  1  0.06580600  0.58919200  0.40406000  1
  C  C24  1  0.04355100  0.42496300  0.38995100  1
  N  N1  1  0.00449800  0.64335700  0.50473500  1
  N  N2  1  0.00810700  0.36229900  0.49932900  1
  Cl  Cl1  1  0.02673000  0.61774100  0.74774500  1
  Cl  Cl2  1  0.11511800  0.33526500  0.75038800  1
  O  O1  1  0.12420400  0.12814600  0.36746000  1
  O  O2  1  0.12445600  0.87403000  0.37401500  1
  O  O3  1  0.22268500  0.87742100  0.63240600  1
  O  O4  1  0.22709500  0.12748200  0.62547000  1
  O  O5  1  0.89039500  0.87702100  0.63338200  1
  O  O6  1  0.89095900  0.13171400  0.62729400  1
  O  O7  1  0.79184600  0.12866900  0.36851600  1
  O  O8  1  0.78792000  0.87766900  0.37493000  1
