# generated using pymatgen
data_Zn2H29C58Br(N3O4)2
_symmetry_space_group_name_H-M   'P 1'
_cell_length_a   13.40748300
_cell_length_b   13.37539700
_cell_length_c   16.21243300
_cell_angle_alpha   94.75675800
_cell_angle_beta   90.04658800
_cell_angle_gamma   90.61597400
_symmetry_Int_Tables_number   1
_chemical_formula_structural   Zn2H29C58Br(N3O4)2
_chemical_formula_sum   'Zn2 H29 C58 Br1 N6 O8'
_cell_volume   2897.19673391
_cell_formula_units_Z   1
loop_
 _symmetry_equiv_pos_site_id
 _symmetry_equiv_pos_as_xyz
  1  'x, y, z'
loop_
 _atom_site_type_symbol
 _atom_site_label
 _atom_site_symmetry_multiplicity
 _atom_site_fract_x
 _atom_site_fract_y
 _atom_site_fract_z
 _atom_site_occupancy
  Zn  Zn1  1  0.50892300  0.89413700  0.49619100  1
  Zn  Zn2  1  0.49139400  0.11708300  0.51660800  1
  H  H1  1  0.68791100  0.11749600  0.02399600  1
  H  H2  1  0.00741700  0.03728100  0.72832900  1
  H  H3  1  0.30952800  0.89302900  0.98823300  1
  H  H4  1  0.99402900  0.98321600  0.28493400  1
  H  H5  1  0.96330900  0.08307000  0.96238300  1
  H  H6  1  0.03600500  0.93526100  0.05071200  1
  H  H7  1  0.39839400  0.92694900  0.10653700  1
  H  H8  1  0.16949200  0.02090100  0.34009100  1
  H  H9  1  0.83323500  0.97592900  0.34250400  1
  H  H10  1  0.55300000  0.10126000  0.28156100  1
  H  H11  1  0.61107500  0.12999600  0.14410800  1
  H  H12  1  0.60033800  0.07997600  0.90577500  1
  H  H13  1  0.83247000  0.99781900  0.67210100  1
  H  H14  1  0.16862500  0.04107800  0.67093600  1
  H  H15  1  0.44429700  0.90512300  0.73051600  1
  H  H16  1  0.38518000  0.87738700  0.86778400  1
  H  H17  1  0.46206300  0.95189700  0.24741500  1
  H  H18  1  0.53740800  0.05333400  0.76477800  1
  H  H19  1  0.33459400  0.25558800  0.51481200  1
  H  H20  1  0.66196700  0.75065500  0.50950200  1
  H  H21  1  0.74524900  0.59559300  0.52868200  1
  H  H22  1  0.73886000  0.41478800  0.54118100  1
  H  H23  1  0.33186300  0.43153600  0.50745800  1
  H  H24  1  0.34421900  0.57398600  0.46987400  1
  H  H25  1  0.64671200  0.26035000  0.53801800  1
  H  H26  1  0.28283100  0.75753400  0.58984800  1
  H  H27  1  0.10843600  0.80056500  0.56648200  1
  H  H28  1  0.15784700  0.77150100  0.30637200  1
  H  H29  1  0.33323400  0.73071200  0.32998900  1
  C  C1  1  0.81885700  0.03270700  0.22215900  1
  C  C2  1  0.75652300  0.07057200  0.16667100  1
  C  C3  1  0.80729200  0.07296900  0.09334400  1
  C  C4  1  0.90943000  0.01843300  0.18289000  1
  C  C5  1  0.76487700  0.09496300  0.02230400  1
  C  C6  1  0.80762400  0.07339700  0.93933400  1
  C  C7  1  0.75231300  0.05622100  0.86768600  1
  C  C8  1  0.81670400  0.03494400  0.80386400  1
  C  C9  1  0.91200400  0.04079100  0.83857500  1
  C  C10  1  0.00718900  0.02823100  0.79406800  1
  C  C11  1  0.09084800  0.99937600  0.83025900  1
  C  C12  1  0.18097200  0.98264000  0.79080700  1
  C  C13  1  0.24200500  0.94227300  0.84591700  1
  C  C14  1  0.19130400  0.94121100  0.91934600  1
  C  C15  1  0.23328200  0.91784400  0.99019100  1
  C  C16  1  0.19164900  0.94135100  0.07326500  1
  C  C17  1  0.24756500  0.95745100  0.14468000  1
  C  C18  1  0.18397900  0.98157800  0.20853400  1
  C  C19  1  0.08851300  0.97804100  0.17416000  1
  C  C20  1  0.99376500  0.99152100  0.21912200  1
  C  C21  1  0.34815700  0.94890900  0.15663600  1
  C  C22  1  0.38410600  0.96460500  0.23628700  1
  C  C23  1  0.32240300  0.99448600  0.30238100  1
  C  C24  1  0.21962200  0.00253500  0.28903400  1
  C  C25  1  0.78568900  0.00973600  0.29903300  1
  C  C26  1  0.68720700  0.03131600  0.31815800  1
  C  C27  1  0.62785400  0.07953500  0.26395900  1
  C  C28  1  0.66054400  0.09656100  0.18631900  1
  C  C29  1  0.65137900  0.06066400  0.85565600  1
  C  C30  1  0.61586000  0.04385200  0.77596600  1
  C  C31  1  0.67860200  0.01746700  0.70977900  1
  C  C32  1  0.78174300  0.01371200  0.72316500  1
  C  C33  1  0.21488600  0.00497500  0.71400800  1
  C  C34  1  0.31248800  0.97988000  0.69453400  1
  C  C35  1  0.37011600  0.92908100  0.74824600  1
  C  C36  1  0.33691500  0.91283900  0.82587600  1
  C  C37  1  0.37031700  0.00223200  0.38477300  1
  C  C38  1  0.64143500  0.01511300  0.39695900  1
  C  C39  1  0.63072200  0.00950400  0.62739800  1
  C  C40  1  0.35917000  0.99635900  0.61619900  1
  C  C41  1  0.57769700  0.30007000  0.53199100  1
  C  C42  1  0.40434700  0.29695100  0.51868600  1
  C  C43  1  0.40421700  0.39881700  0.51250400  1
  C  C44  1  0.49362100  0.45311500  0.51280600  1
  C  C45  1  0.58054600  0.40267500  0.52570900  1
  C  C46  1  0.41629000  0.60810100  0.48113600  1
  C  C47  1  0.49879600  0.55552400  0.50103800  1
  C  C48  1  0.58837000  0.60746200  0.50804900  1
  C  C49  1  0.67436400  0.55630300  0.52339900  1
  C  C50  1  0.67061900  0.45417100  0.53069700  1
  C  C51  1  0.42038500  0.70927500  0.47536500  1
  C  C52  1  0.59178500  0.71071600  0.50072100  1
  C  C53  1  0.32233000  0.75216900  0.46181000  1
  C  C54  1  0.25704900  0.76594700  0.52763000  1
  C  C55  1  0.15856600  0.78845700  0.51451100  1
  C  C56  1  0.12322200  0.79210800  0.43508900  1
  C  C57  1  0.18623600  0.77195300  0.36882800  1
  C  C58  1  0.28499100  0.75014600  0.38213500  1
  Br  Br1  1  0.98592300  0.81849400  0.41711600  1
  N  N1  1  0.90169100  0.04148500  0.10316900  1
  N  N2  1  0.90511900  0.06550200  0.92106200  1
  N  N3  1  0.09789100  0.97565800  0.90986400  1
  N  N4  1  0.09454100  0.95224400  0.09179000  1
  N  N5  1  0.49039600  0.24863300  0.52680200  1
  N  N6  1  0.50802000  0.76204300  0.48594300  1
  O  O1  1  0.39449100  0.09059500  0.42162200  1
  O  O2  1  0.40953500  0.91977000  0.40737200  1
  O  O3  1  0.61528400  0.92324900  0.41322900  1
  O  O4  1  0.60157400  0.09584100  0.43321000  1
  O  O5  1  0.60623400  0.92034100  0.59096900  1
  O  O6  1  0.59240600  0.09285200  0.60463700  1
  O  O7  1  0.38586400  0.08754900  0.60011200  1
  O  O8  1  0.39910900  0.91644700  0.57968300  1
