# Generated by REPEAT Assigner based on pymatgen
data_DB0-m3_o12_o27_f0_pcu.sym.11
_audit_creation_date              2022-05-24
_audit_creation_method            REPEAT_Assigner
_cell_length_a                    10.131774
_cell_length_b                    11.374436
_cell_length_c                    19.443159
_cell_angle_alpha                 89.994751
_cell_angle_beta                  80.700801
_cell_angle_gamma                 92.450024
_cell_volume                      2209.167952
_symmetry_space_group_name_H-M    P1
_symmetry_Int_Tables_number       1
loop_
    _symmetry_equiv_pos_site_id
    _symmetry_equiv_pos_as_xyz
    1  x,y,z
loop_
    _atom_site_type_symbol
    _atom_site_label
    _atom_site_fract_x
    _atom_site_fract_y
    _atom_site_fract_z
    _atom_type_partial_charge
    O   O1   0.422886  0.691234  0.505651  -0.702956
    O   O2   0.580170  0.316850  0.490819  -0.690715
    O   O3   0.649775  0.664475  0.485487  -0.737121
    O   O4   0.353262  0.343612  0.511028  -0.740987
    C   C1   0.547364  0.732648  0.494772  0.880704
    C   C2   0.455685  0.275442  0.501898  0.864186
    O   O5   0.388516  0.516824  0.610675  -0.581072
    O   O6   0.614222  0.491314  0.385820  -0.653098
    O   O7   0.615421  0.490161  0.590664  -0.619573
    O   O8   0.387927  0.517803  0.405793  -0.701283
    C   C3   0.502427  0.503195  0.633132  0.747122
    C   C4   0.500565  0.504791  0.363085  1.009210
    Zn  Zn1  0.351935  0.521664  0.511316  1.007511
    Zn  Zn2  0.651111  0.486422  0.485130  0.981805
    C   C5   0.405122  0.556198  0.754319  0.452754
    C   C6   0.610206  0.472804  0.240202  0.506508
    C   C7   0.406721  0.554799  0.825065  -0.150261
    C   C8   0.607696  0.472698  0.169519  -0.182186
    H   H1   0.328952  0.599239  0.858461  0.091993
    H   H2   0.696365  0.446878  0.135237  0.092186
    C   C9   0.506081  0.499764  0.852371  -0.552824
    C   C10  0.495618  0.505033  0.143191  -0.506671
    C   C11  0.604478  0.444908  0.807048  0.353720
    C   C12  0.384291  0.537267  0.189556  0.326584
    C   C13  0.603120  0.446187  0.736166  0.351025
    C   C14  0.385958  0.537260  0.260417  0.415181
    C   C15  0.503582  0.501956  0.708943  -0.454331
    C   C16  0.499030  0.505096  0.286932  -0.602609
    N   N1   0.606739  0.460721  0.956511  -0.267493
    N   N2   0.395570  0.544802  0.038948  -0.261518
    N   N3   0.603624  0.462267  0.024747  -0.369547
    N   N4   0.398679  0.543271  0.970724  -0.377914
    C   C17  0.497777  0.504000  0.067054  0.900221
    C   C18  0.504112  0.500830  0.928460  0.923125
    C   C19  0.576628  0.860570  0.492439  -0.407051
    C   C20  0.426427  0.147524  0.504550  -0.407129
    C   C21  0.482115  0.940656  0.501837  0.260418
    C   C22  0.520937  0.067454  0.498364  0.250222
    H   H3   0.321809  0.118688  0.512109  0.120980
    H   H4   0.681243  0.889402  0.482274  0.114308
    H   H5   0.115948  0.435215  0.450742  0.130477
    H   H6   0.886858  0.571539  0.546199  0.146328
    N   N5   0.848271  0.463277  0.468156  0.125579
    N   N6   0.154777  0.544820  0.528131  0.077192
    C   C23  0.928774  0.513593  0.504892  -0.026287
    C   C24  0.074175  0.493892  0.491680  0.061090
    O   O9   0.307320  0.615301  0.729926  -0.500457
    H   H7   0.342141  0.698096  0.725575  0.334409
    O   O10  0.723789  0.438705  0.262721  -0.529572
    H   H8   0.785812  0.508893  0.255362  0.357749
    O   O11  0.703201  0.386696  0.831203  -0.517353
    H   H9   0.668423  0.303949  0.836633  0.317124
    O   O12  0.270152  0.568947  0.166632  -0.515396
    H   H10  0.213771  0.495313  0.168775  0.315068
    O   O13  0.699450  0.387961  0.693685  -0.472239
    H   H11  0.662018  0.306281  0.692372  0.317138
    O   O14  0.274058  0.571428  0.303474  -0.474507
    H   H12  0.213782  0.500008  0.309503  0.300534
    O   O15  0.653879  0.102016  0.489093  -0.352681
    H   H13  0.676413  0.104675  0.536793  0.288727
    O   O16  0.349158  0.906119  0.514795  -0.371979
    H   H14  0.326238  0.903982  0.566281  0.293293
    O   O17  0.100082  0.617926  0.577595  -0.337777
    H   H15  0.118132  0.697314  0.556371  0.350598
    O   O18  0.903186  0.391422  0.418042  -0.332580
    H   H16  0.885012  0.311498  0.438503  0.332094
