# generated using pymatgen
data_CuH4C15ClO4
_symmetry_space_group_name_H-M   'P 1'
_cell_length_a   16.75427100
_cell_length_b   16.77007500
_cell_length_c   16.55917900
_cell_angle_alpha   67.33590700
_cell_angle_beta   67.34601400
_cell_angle_gamma   67.64641300
_symmetry_Int_Tables_number   1
_chemical_formula_structural   CuH4C15ClO4
_chemical_formula_sum   'Cu6 H24 C90 Cl6 O24'
_cell_volume   3812.37321260
_cell_formula_units_Z   6
loop_
 _symmetry_equiv_pos_site_id
 _symmetry_equiv_pos_as_xyz
  1  'x, y, z'
loop_
 _atom_site_type_symbol
 _atom_site_label
 _atom_site_symmetry_multiplicity
 _atom_site_fract_x
 _atom_site_fract_y
 _atom_site_fract_z
 _atom_site_occupancy
  Cu  Cu1  1  0.99667300  0.00049000  0.42119500  1
  Cu  Cu2  1  0.00332700  0.99951100  0.57880400  1
  Cu  Cu3  1  0.99577000  0.42331700  0.99859300  1
  Cu  Cu4  1  0.00423000  0.57668400  0.00140600  1
  Cu  Cu5  1  0.42280700  0.99782800  0.99727400  1
  Cu  Cu6  1  0.57719300  0.00217300  0.00272600  1
  H  H1  1  0.41946500  0.11563700  0.74494700  1
  H  H2  1  0.58053400  0.88436300  0.25505200  1
  H  H3  1  0.08014900  0.76339200  0.40440600  1
  H  H4  1  0.91985100  0.23660800  0.59559400  1
  H  H5  1  0.80292300  0.49785700  0.90235400  1
  H  H6  1  0.19707700  0.50214300  0.09764500  1
  H  H7  1  0.19783400  0.09451700  0.50184200  1
  H  H8  1  0.80216500  0.90548300  0.49815800  1
  H  H9  1  0.58057900  0.24922400  0.89683600  1
  H  H10  1  0.41942100  0.75077700  0.10316400  1
  H  H11  1  0.90016200  0.59003400  0.24594100  1
  H  H12  1  0.09983700  0.40996700  0.75405900  1
  H  H13  1  0.33887700  0.10453000  0.66591100  1
  H  H14  1  0.66112300  0.89547000  0.33408900  1
  H  H15  1  0.03858800  0.69476000  0.33640100  1
  H  H16  1  0.96141200  0.30524100  0.66359900  1
  H  H17  1  0.72576900  0.41901900  0.88644200  1
  H  H18  1  0.27423000  0.58098200  0.11355700  1
  H  H19  1  0.27441300  0.11504400  0.57854200  1
  H  H20  1  0.72558700  0.88495600  0.42145800  1
  H  H21  1  0.66086900  0.32944900  0.90457400  1
  H  H22  1  0.33913100  0.67055100  0.09542500  1
  H  H23  1  0.93961000  0.66279800  0.31284700  1
  H  H24  1  0.06038900  0.33720300  0.68715300  1
  C  C1  1  0.03906200  0.82582500  0.55504900  1
  C  C2  1  0.96093800  0.17417500  0.44495100  1
  C  C3  1  0.83197900  0.57093200  0.00574900  1
  C  C4  1  0.16802000  0.42906800  0.99425100  1
  C  C5  1  0.56053400  0.03319700  0.82522800  1
  C  C6  1  0.43946600  0.96680300  0.17477200  1
  C  C7  1  0.43787100  0.17151900  0.97551700  1
  C  C8  1  0.56212900  0.82848200  0.02448200  1
  C  C9  1  0.95722200  0.44339400  0.17669400  1
  C  C10  1  0.04277800  0.55660700  0.82330500  1
  C  C11  1  0.16874500  0.99148100  0.43055000  1
  C  C12  1  0.83125500  0.00851900  0.56945000  1
  C  C13  1  0.45707000  0.08081900  0.69321000  1
  C  C14  1  0.54293000  0.91918100  0.30679000  1
  C  C15  1  0.05297300  0.70819100  0.44969900  1
  C  C16  1  0.94702700  0.29180900  0.55030100  1
  C  C17  1  0.73203600  0.51094700  0.93675900  1
  C  C18  1  0.26796400  0.48905400  0.06324100  1
  C  C19  1  0.26856300  0.06045800  0.48937700  1
  C  C20  1  0.73143700  0.93954200  0.51062300  1
  C  C21  1  0.54228900  0.30184600  0.92978500  1
  C  C22  1  0.45771100  0.69815400  0.07021500  1
  C  C23  1  0.93254200  0.54760500  0.29866900  1
  C  C24  1  0.06745800  0.45239600  0.70133100  1
  C  C25  1  0.54709100  0.00715200  0.54913400  1
  C  C26  1  0.45290900  0.99284800  0.45086500  1
  C  C27  1  0.02270900  0.54336500  0.54155800  1
  C  C28  1  0.97729100  0.45663600  0.45844200  1
  C  C29  1  0.54745500  0.55075100  0.00381400  1
  C  C30  1  0.45254500  0.44924900  0.99618500  1
  C  C31  1  0.59303000  0.96524600  0.48018300  1
  C  C32  1  0.40697000  0.03475400  0.51981700  1
  C  C33  1  0.01722100  0.45605800  0.58339200  1
  C  C34  1  0.98277900  0.54394200  0.41660800  1
  C  C35  1  0.45432600  0.57246800  0.03653800  1
  C  C36  1  0.54567300  0.42753300  0.96346200  1
  C  C37  1  0.54588300  0.95957900  0.42958900  1
  C  C38  1  0.45411700  0.04042100  0.57041100  1
  C  C39  1  0.40684400  0.52033000  0.03442400  1
  C  C40  1  0.59315600  0.47967100  0.96557500  1
  C  C41  1  0.99073100  0.41427500  0.54369800  1
  C  C42  1  0.00926900  0.58572500  0.45630200  1
  C  C43  1  0.41033400  0.07784300  0.64307100  1
  C  C44  1  0.58966500  0.92215700  0.35692900  1
  C  C45  1  0.03136600  0.66572700  0.40847900  1
  C  C46  1  0.96863400  0.33427300  0.59152000  1
  C  C47  1  0.68552500  0.46515900  0.92669000  1
  C  C48  1  0.31447400  0.53484100  0.07331000  1
  C  C49  1  0.31478900  0.07317400  0.53387200  1
  C  C50  1  0.68521000  0.92682700  0.46612800  1
  C  C51  1  0.58926200  0.35290300  0.93015100  1
  C  C52  1  0.41073800  0.64709800  0.06984900  1
  C  C53  1  0.95301200  0.59084800  0.33994500  1
  C  C54  1  0.04698700  0.40915300  0.66005500  1
  C  C55  1  0.54909600  0.04699400  0.67307700  1
  C  C56  1  0.45090300  0.95300600  0.32692300  1
  C  C57  1  0.04748900  0.67576900  0.54190800  1
  C  C58  1  0.95251100  0.32423200  0.45809100  1
  C  C59  1  0.68835800  0.57424900  0.98462100  1
  C  C60  1  0.31164100  0.42575100  0.01537900  1
  C  C61  1  0.31249300  0.01034300  0.42785700  1
  C  C62  1  0.68750700  0.98965700  0.57214300  1
  C  C63  1  0.44984600  0.32256600  0.96256700  1
  C  C64  1  0.55015300  0.67743500  0.03743300  1
  C  C65  1  0.94640800  0.45532900  0.32886300  1
  C  C66  1  0.05359100  0.54467100  0.67113700  1
  C  C67  1  0.59716500  0.04659200  0.72545500  1
  C  C68  1  0.40283400  0.95340900  0.27454500  1
  C  C69  1  0.05598100  0.72487500  0.58904600  1
  C  C70  1  0.94401800  0.27512500  0.41095400  1
  C  C71  1  0.73498500  0.61180100  0.00866000  1
  C  C72  1  0.26501400  0.38819900  0.99134000  1
  C  C73  1  0.26606800  0.98548100  0.39092500  1
  C  C74  1  0.73393100  0.01451900  0.60907500  1
  C  C75  1  0.40108500  0.27012400  0.96438000  1
  C  C76  1  0.59891400  0.72987600  0.03562000  1
  C  C77  1  0.94028500  0.40810600  0.27883700  1
  C  C78  1  0.05971500  0.59189500  0.72116200  1
  C  C79  1  0.68609400  0.04715200  0.68466500  1
  C  C80  1  0.31390600  0.95284800  0.31533400  1
  C  C81  1  0.06916800  0.67922500  0.67607100  1
  C  C82  1  0.93083200  0.32077600  0.32392900  1
  C  C83  1  0.68735300  0.68864000  0.03833500  1
  C  C84  1  0.31264600  0.31136000  0.96166500  1
  C  C85  1  0.59450100  0.01546400  0.59743400  1
  C  C86  1  0.40549800  0.98453600  0.40256600  1
  C  C87  1  0.04110000  0.58830200  0.58513300  1
  C  C88  1  0.95889900  0.41169900  0.41486600  1
  C  C89  1  0.59523800  0.60039900  0.00926300  1
  C  C90  1  0.40476200  0.39960200  0.99073600  1
  Cl  Cl1  1  0.73043800  0.10478100  0.71949300  1
  Cl  Cl2  1  0.26956100  0.89522000  0.28050700  1
  Cl  Cl3  1  0.11784500  0.72381300  0.72066500  1
  Cl  Cl4  1  0.88215500  0.27618700  0.27933500  1
  Cl  Cl5  1  0.73067200  0.72430600  0.09649000  1
  Cl  Cl6  1  0.26932700  0.27569500  0.90351000  1
  O  O1  1  0.12323200  0.99776400  0.37836100  1
  O  O2  1  0.87676700  0.00223700  0.62163900  1
  O  O3  1  0.96961100  0.38901000  0.13083800  1
  O  O4  1  0.03038900  0.61099000  0.86916200  1
  O  O5  1  0.38400900  0.12581500  0.98677100  1
  O  O6  1  0.61599000  0.87418600  0.01322800  1
  O  O7  1  0.61491600  0.01966900  0.87158200  1
  O  O8  1  0.38508400  0.98033200  0.12841700  1
  O  O9  1  0.87833500  0.62070900  0.00208200  1
  O  O10  1  0.12166500  0.37929100  0.99791800  1
  O  O11  1  0.02670800  0.86955500  0.61159300  1
  O  O12  1  0.97329100  0.13044600  0.38840700  1
  O  O13  1  0.02814300  0.87028600  0.47320900  1
  O  O14  1  0.97185700  0.12971400  0.52679100  1
  O  O15  1  0.86910600  0.48599300  0.00776500  1
  O  O16  1  0.13089300  0.51400800  0.99223400  1
  O  O17  1  0.47926200  0.02307300  0.86612200  1
  O  O18  1  0.52073800  0.97692700  0.13387800  1
  O  O19  1  0.51948500  0.13068200  0.98419800  1
  O  O20  1  0.48051500  0.86931800  0.01580200  1
  O  O21  1  0.96985500  0.52388400  0.13325000  1
  O  O22  1  0.03014500  0.47611700  0.86675000  1
  O  O23  1  0.13074300  0.98893100  0.51677300  1
  O  O24  1  0.86925700  0.01106900  0.48322700  1
