# generated using pymatgen
data_ZnH12C25N2O9
_symmetry_space_group_name_H-M   'P 1'
_cell_length_a   23.44087600
_cell_length_b   10.78571500
_cell_length_c   9.71188700
_cell_angle_alpha   90.00808700
_cell_angle_beta   89.97915100
_cell_angle_gamma   90.00215000
_symmetry_Int_Tables_number   1
_chemical_formula_structural   ZnH12C25N2O9
_chemical_formula_sum   'Zn2 H24 C50 N4 O18'
_cell_volume   2455.42325764
_cell_formula_units_Z   2
loop_
 _symmetry_equiv_pos_site_id
 _symmetry_equiv_pos_as_xyz
  1  'x, y, z'
loop_
 _atom_site_type_symbol
 _atom_site_label
 _atom_site_symmetry_multiplicity
 _atom_site_fract_x
 _atom_site_fract_y
 _atom_site_fract_z
 _atom_site_occupancy
  Zn  Zn1  1  0.50009500  0.49946800  0.65674000  1
  Zn  Zn2  1  0.49990500  0.50053200  0.34325900  1
  H  H1  1  0.05251900  0.19747600  0.44023900  1
  H  H2  1  0.94748100  0.80252400  0.55976100  1
  H  H3  1  0.21663700  0.62050500  0.32555500  1
  H  H4  1  0.78336300  0.37949500  0.67444400  1
  H  H5  1  0.32068700  0.61574300  0.32951700  1
  H  H6  1  0.67931400  0.38425700  0.67048300  1
  H  H7  1  0.21083000  0.36850400  0.66152000  1
  H  H8  1  0.78917000  0.63149700  0.33848000  1
  H  H9  1  0.58415700  0.92071400  0.38171700  1
  H  H10  1  0.41584300  0.07928700  0.61828300  1
  H  H11  1  0.50152900  0.92597200  0.73728100  1
  H  H12  1  0.49847200  0.07402800  0.26271900  1
  H  H13  1  0.56037400  0.34361400  0.90861800  1
  H  H14  1  0.43962600  0.65638600  0.09138200  1
  H  H15  1  0.46800500  0.30872100  0.09281800  1
  H  H16  1  0.53199500  0.69127900  0.90718200  1
  H  H17  1  0.40755800  0.46376500  0.90891800  1
  H  H18  1  0.59244200  0.53623500  0.09108200  1
  H  H19  1  0.90773400  0.13365300  0.52436000  1
  H  H20  1  0.09226600  0.86634700  0.47563900  1
  H  H21  1  0.36642500  0.30379300  0.67502100  1
  H  H22  1  0.63357500  0.69620700  0.32497900  1
  H  H23  1  0.60575000  0.06427500  0.73777200  1
  H  H24  1  0.39425000  0.93572500  0.26222700  1
  C  C1  1  0.50177500  0.25771300  0.49951100  1
  C  C2  1  0.49822500  0.74228700  0.50048900  1
  C  C3  1  0.38834600  0.49368500  0.49990700  1
  C  C4  1  0.61165400  0.50631500  0.50009300  1
  C  C5  1  0.88234200  0.60696300  0.53175500  1
  C  C6  1  0.11765800  0.39303800  0.46824500  1
  C  C7  1  0.88065300  0.39449700  0.48168600  1
  C  C8  1  0.11934800  0.60550300  0.51831300  1
  C  C9  1  0.94029500  0.38920600  0.48433200  1
  C  C10  1  0.05970500  0.61079400  0.51566700  1
  C  C11  1  0.97045000  0.49895800  0.50288700  1
  C  C12  1  0.02955000  0.50104200  0.49711300  1
  C  C13  1  0.94118800  0.60736800  0.52758100  1
  C  C14  1  0.05881200  0.39263300  0.47241900  1
  C  C15  1  0.97075000  0.27908600  0.46388700  1
  C  C16  1  0.02925000  0.72091400  0.53611300  1
  C  C17  1  0.02942400  0.28308100  0.45479900  1
  C  C18  1  0.97057600  0.71692000  0.54520000  1
  C  C19  1  0.23839000  0.56427200  0.40125900  1
  C  C20  1  0.76161100  0.43572900  0.59874100  1
  C  C21  1  0.29711700  0.56046100  0.40286800  1
  C  C22  1  0.70288300  0.43954000  0.59713200  1
  C  C23  1  0.32575400  0.48971000  0.49927300  1
  C  C24  1  0.67424600  0.51029000  0.50072700  1
  C  C25  1  0.29469100  0.41841400  0.59258400  1
  C  C26  1  0.70530900  0.58158600  0.40741600  1
  C  C27  1  0.23567900  0.42299500  0.58993400  1
  C  C28  1  0.76432100  0.57700500  0.41006500  1
  C  C29  1  0.20752100  0.49562600  0.49486300  1
  C  C30  1  0.79247900  0.50437400  0.50513700  1
  C  C31  1  0.54560700  0.03875500  0.56114900  1
  C  C32  1  0.45439300  0.96124600  0.43885000  1
  C  C33  1  0.54565500  0.95742000  0.43407700  1
  C  C34  1  0.45434500  0.04258000  0.56592300  1
  C  C35  1  0.49944600  0.88015100  0.50128700  1
  C  C36  1  0.50055400  0.11985000  0.49871300  1
  C  C37  1  0.50026300  0.95998800  0.62956500  1
  C  C38  1  0.49973700  0.04001200  0.37043500  1
  C  C39  1  0.48294700  0.39780200  0.04867400  1
  C  C40  1  0.51705300  0.60219800  0.95132600  1
  C  C41  1  0.53226600  0.41643600  0.95219200  1
  C  C42  1  0.46773400  0.58356400  0.04780800  1
  C  C43  1  0.45062700  0.48072500  0.95216800  1
  C  C44  1  0.54937300  0.51927600  0.04783200  1
  C  C45  1  0.94428200  0.15528300  0.46052000  1
  C  C46  1  0.05571800  0.84471800  0.53948000  1
  C  C47  1  0.32245900  0.33172800  0.68865400  1
  C  C48  1  0.67754100  0.66827300  0.31134500  1
  C  C49  1  0.59783400  0.08629900  0.63056900  1
  C  C50  1  0.40216600  0.91370100  0.36943100  1
  N  N1  1  0.85330600  0.50175600  0.50766900  1
  N  N2  1  0.14669400  0.49824500  0.49233000  1
  N  N3  1  0.49994900  0.49938000  0.86269600  1
  N  N4  1  0.50005100  0.50062000  0.13730400  1
  O  O1  1  0.50165200  0.31477900  0.61879200  1
  O  O2  1  0.49834800  0.68522100  0.38120700  1
  O  O3  1  0.50136200  0.31580400  0.38089000  1
  O  O4  1  0.49863800  0.68419600  0.61910900  1
  O  O5  1  0.41515000  0.49585000  0.61856000  1
  O  O6  1  0.58485000  0.50415100  0.38143900  1
  O  O7  1  0.41489000  0.49722300  0.38088900  1
  O  O8  1  0.58511000  0.50277800  0.61911100  1
  O  O9  1  0.85362400  0.71186600  0.55959800  1
  O  O10  1  0.14637600  0.28813400  0.44040200  1
  O  O11  1  0.84917800  0.29599600  0.44475400  1
  O  O12  1  0.15082200  0.70400400  0.55524600  1
  O  O13  1  0.96610500  0.07223900  0.39353500  1
  O  O14  1  0.03389500  0.92776100  0.60646400  1
  O  O15  1  0.29513800  0.28501400  0.78205500  1
  O  O16  1  0.70486200  0.71498700  0.21794500  1
  O  O17  1  0.63177000  0.14976300  0.56670300  1
  O  O18  1  0.36823000  0.85023700  0.43329700  1
