data_DB0-m3_o11_o29_f0_pcu.sym.20_repeat
_audit_creation_date              2024-02-20
_audit_creation_method            'Materials Studio'
_symmetry_space_group_name_H-M    'P1'
_symmetry_Int_Tables_number       1
_symmetry_cell_setting            triclinic
loop_
_symmetry_equiv_pos_as_xyz
  x,y,z
_cell_length_a                    27.6539
_cell_length_b                    11.1492
_cell_length_c                    9.9096
_cell_angle_alpha                 89.9974
_cell_angle_beta                  89.9930
_cell_angle_gamma                 89.9936
loop_
_atom_site_label
_atom_site_type_symbol
_atom_site_fract_x
_atom_site_fract_y
_atom_site_fract_z
_atom_site_U_iso_or_equiv
_atom_site_adp_type
_atom_site_occupancy
O1     O     0.50168   0.32041   0.61049   0.00000  Uiso   1.00
O2     O     0.50003   0.32235   0.37824   0.00000  Uiso   1.00
C1     C     0.50092   0.26517   0.49406   0.00000  Uiso   1.00
O3     O     0.42906   0.49821   0.62043   0.00000  Uiso   1.00
O4     O     0.42755   0.50055   0.38815   0.00000  Uiso   1.00
C2     C     0.40562   0.49871   0.50537   0.00000  Uiso   1.00
Zn1    Zn    0.50142   0.49811   0.65245   0.00000  Uiso   1.00
Zn2    Zn    0.49919   0.50184   0.34556   0.00000  Uiso   1.00
O5     O     0.50071   0.67755   0.62018   0.00000  Uiso   1.00
O6     O     0.49917   0.67982   0.38691   0.00000  Uiso   1.00
O7     O     0.57310   0.50070   0.61033   0.00000  Uiso   1.00
O8     O     0.57159   0.50288   0.37722   0.00000  Uiso   1.00
C3     C     0.49974   0.73459   0.50420   0.00000  Uiso   1.00
C4     C     0.59497   0.50186   0.49269   0.00000  Uiso   1.00
C5     C     0.17650   0.40430   0.45540   0.00000  Uiso   1.00
O9     O     0.20123   0.31032   0.40589   0.00000  Uiso   1.00
N1     N     0.20069   0.49728   0.50992   0.00000  Uiso   1.00
C6     C     0.17643   0.59095   0.56274   0.00000  Uiso   1.00
C7     C     0.27714   0.49377   0.38865   0.00000  Uiso   1.00
C8     C     0.32697   0.49442   0.38743   0.00000  Uiso   1.00
C9     C     0.32766   0.50161   0.62830   0.00000  Uiso   1.00
C10    C     0.27776   0.50160   0.62918   0.00000  Uiso   1.00
C11    C     0.25231   0.49745   0.50938   0.00000  Uiso   1.00
C12    C     0.10094   0.49912   0.50534   0.00000  Uiso   1.00
C13    C     0.12647   0.40425   0.45225   0.00000  Uiso   1.00
C14    C     0.10190   0.30892   0.39754   0.00000  Uiso   1.00
C15    C     0.12638   0.59282   0.56131   0.00000  Uiso   1.00
C16    C     0.35257   0.49819   0.50728   0.00000  Uiso   1.00
H1     H     0.34674   0.50452   0.72339   0.00000  Uiso   1.00
H2     H     0.25869   0.50350   0.72440   0.00000  Uiso   1.00
H3     H     0.12086   0.23190   0.35778   0.00000  Uiso   1.00
C17    C     0.64803   0.50280   0.49080   0.00000  Uiso   1.00
C18    C     0.97522   0.41108   0.43199   0.00000  Uiso   1.00
C19    C     0.97489   0.59369   0.56253   0.00000  Uiso   1.00
C20    C     0.95012   0.50300   0.49567   0.00000  Uiso   1.00
C21    C     0.94890   0.32628   0.35920   0.00000  Uiso   1.00
C22    C     0.89931   0.32939   0.35568   0.00000  Uiso   1.00
C23    C     0.87449   0.41735   0.42358   0.00000  Uiso   1.00
C24    C     0.89978   0.50413   0.49264   0.00000  Uiso   1.00
C25    C     0.87409   0.59190   0.55890   0.00000  Uiso   1.00
C26    C     0.82406   0.59166   0.55581   0.00000  Uiso   1.00
N2     N     0.79998   0.50543   0.48825   0.00000  Uiso   1.00
C27    C     0.82443   0.41888   0.42226   0.00000  Uiso   1.00
C28    C     0.72348   0.49779   0.60933   0.00000  Uiso   1.00
C29    C     0.67365   0.49701   0.61051   0.00000  Uiso   1.00
C30    C     0.67293   0.50938   0.36994   0.00000  Uiso   1.00
C31    C     0.72283   0.51037   0.36907   0.00000  Uiso   1.00
C32    C     0.74833   0.50464   0.48877   0.00000  Uiso   1.00
O10    O     0.79996   0.33174   0.35813   0.00000  Uiso   1.00
C33    C     0.02575   0.40656   0.44134   0.00000  Uiso   1.00
C34    C     0.05059   0.50038   0.50223   0.00000  Uiso   1.00
C35    C     0.02557   0.59552   0.55989   0.00000  Uiso   1.00
C36    C     0.05232   0.30959   0.39236   0.00000  Uiso   1.00
H4     H     0.65523   0.49121   0.70645   0.00000  Uiso   1.00
H5     H     0.74298   0.49166   0.70363   0.00000  Uiso   1.00
H6     H     0.88057   0.26148   0.29816   0.00000  Uiso   1.00
H7     H     0.96519   0.25671   0.29959   0.00000  Uiso   1.00
H8     H     0.03624   0.22967   0.35178   0.00000  Uiso   1.00
O11    O     0.20113   0.68425   0.61393   0.00000  Uiso   1.00
C37    C     0.10174   0.68919   0.61341   0.00000  Uiso   1.00
H9     H     0.34541   0.49184   0.29135   0.00000  Uiso   1.00
H10    H     0.25760   0.49179   0.29419   0.00000  Uiso   1.00
H11    H     0.12066   0.76527   0.65547   0.00000  Uiso   1.00
C38    C     0.94808   0.67999   0.63164   0.00000  Uiso   1.00
C39    C     0.89848   0.67905   0.62927   0.00000  Uiso   1.00
O12    O     0.79923   0.67919   0.61825   0.00000  Uiso   1.00
C40    C     0.05212   0.69097   0.61258   0.00000  Uiso   1.00
H12    H     0.96391   0.74904   0.69292   0.00000  Uiso   1.00
H13    H     0.65386   0.51438   0.27495   0.00000  Uiso   1.00
H14    H     0.87936   0.74781   0.68454   0.00000  Uiso   1.00
H15    H     0.74184   0.51698   0.27401   0.00000  Uiso   1.00
H16    H     0.03608   0.77159   0.65147   0.00000  Uiso   1.00
C41    C     0.49951   0.93112   0.39366   0.00000  Uiso   1.00
C42    C     0.49942   0.86610   0.50761   0.00000  Uiso   1.00
H17    H     0.49953   0.88513   0.29738   0.00000  Uiso   1.00
H18    H     0.49890   0.90679   0.60638   0.00000  Uiso   1.00
C43    C     0.49915   0.06399   0.38814   0.00000  Uiso   1.00
C44    C     0.50145   0.13351   0.49837   0.00000  Uiso   1.00
H19    H     0.50387   0.09528   0.59807   0.00000  Uiso   1.00
C45    C     0.52809   0.56908   0.92584   0.00000  Uiso   1.00
N3     N     0.50367   0.49448   0.85418   0.00000  Uiso   1.00
H20    H     0.49002   0.42064   0.90297   0.00000  Uiso   1.00
C46    C     0.53108   0.55753   0.07445   0.00000  Uiso   1.00
N4     N     0.49749   0.50698   0.14384   0.00000  Uiso   1.00
H21    H     0.56161   0.59748   0.12613   0.00000  Uiso   1.00
H22    H     0.46625   0.48461   0.09386   0.00000  Uiso   1.00
F1     F     0.49659   0.11530   0.26415   0.00000  Uiso   1.00
F2     F     0.55394   0.65674   0.86409   0.00000  Uiso   1.00
