# Generated by REPEAT Assigner based on pymatgen
data_DB0-m2_o22_o25_f0_nbo.sym.17
_audit_creation_date              2022-05-24
_audit_creation_method            REPEAT_Assigner
_cell_length_a                    21.361736
_cell_length_b                    21.391985
_cell_length_c                    21.943186
_cell_angle_alpha                 60.868063
_cell_angle_beta                  119.107538
_cell_angle_gamma                 89.960254
_cell_volume                      7272.724610
_symmetry_space_group_name_H-M    P1
_symmetry_Int_Tables_number       1
loop_
    _symmetry_equiv_pos_site_id
    _symmetry_equiv_pos_as_xyz
    1  x,y,z
loop_
    _atom_site_type_symbol
    _atom_site_label
    _atom_site_fract_x
    _atom_site_fract_y
    _atom_site_fract_z
    _atom_type_partial_charge
    O   O1   0.590485  0.446334  0.498352  -0.569303
    O   O2   0.592347  0.551666  0.502909  -0.596915
    C   C1   0.620673  0.499197  0.500422  0.486971
    O   O3   0.437636  0.503511  0.380240  -0.627651
    O   O4   0.435883  0.611925  0.378876  -0.646430
    C   C2   0.419847  0.576987  0.340488  0.846158
    Cu  Cu1  0.501646  0.435388  0.502522  0.981172
    Cu  Cu2  0.500234  0.560805  0.500796  0.976025
    O   O5   0.409162  0.444853  0.499657  -0.592788
    O   O6   0.411877  0.549519  0.505919  -0.587098
    O   O7   0.560754  0.384195  0.624502  -0.608943
    O   O8   0.560196  0.492645  0.623130  -0.612563
    C   C3   0.381785  0.496458  0.503963  0.765799
    C   C4   0.583072  0.419200  0.662816  0.761186
    C   C5   0.284126  0.728167  0.973168  -0.140678
    C   C6   0.314124  0.759361  0.028123  -0.283967
    H   H1   0.368203  0.772081  0.050888  0.098334
    H   H2   0.312365  0.715007  0.947860  0.066108
    C   C7   0.374086  0.621412  0.250356  -0.104428
    C   C8   0.123333  0.870186  0.752490  -0.110871
    C   C9   0.261340  0.672259  0.029325  -0.116031
    C   C10  0.290378  0.704109  0.082780  0.616766
    C   C11  0.183118  0.729364  0.974686  -0.277134
    C   C12  0.206879  0.784629  0.920053  0.610611
    C   C13  0.213896  0.760182  0.028859  0.224819
    C   C14  0.236360  0.814641  0.974329  0.203209
    C   C15  0.336062  0.658764  0.174661  -0.363705
    C   C16  0.160925  0.831618  0.828180  -0.350871
    H   H3   0.128295  0.718007  0.951931  0.096454
    H   H4   0.273526  0.611385  0.054335  0.062607
    C   C17  0.722191  0.425559  0.515330  -0.464738
    H   H5   0.681821  0.418526  0.464876  0.075584
    H   H6   0.732416  0.377198  0.574823  0.125901
    C   C18  0.797093  0.422963  0.523595  0.513309
    H   H7   0.842308  0.380975  0.590470  0.020977
    H   H8   0.733309  0.554564  0.363321  0.105374
    C   C19  0.672105  0.566230  0.415638  0.762890
    C   C20  0.749774  0.507175  0.569499  0.311543
    C   C21  0.690373  0.499546  0.499891  0.320867
    H   H9   0.727570  0.557957  0.563729  -0.006629
    C   C22  0.809307  0.499351  0.499389  0.230481
    C   C23  0.741893  0.562051  0.413061  -0.579452
    C   C24  0.817779  0.513895  0.563917  -0.265803
    H   H10  0.869073  0.472484  0.626895  0.065950
    H   H11  0.822035  0.571303  0.544897  0.095575
    H   H12  0.753265  0.616582  0.397662  0.163670
    C   C25  0.717826  0.208776  0.028245  0.353684
    C   C26  0.688350  0.293502  0.974312  -0.312181
    H   H13  0.633500  0.328294  0.950783  0.099392
    H   H14  0.779703  0.331337  0.053663  0.076316
    C   C27  0.627998  0.374692  0.752940  -0.053926
    C   C28  0.876501  0.124526  0.249789  -0.124792
    C   C29  0.739248  0.205701  0.973532  -0.288054
    C   C30  0.711812  0.290890  0.920499  0.777756
    C   C31  0.817365  0.207852  0.028110  -0.103286
    C   C32  0.794294  0.210156  0.082262  0.541648
    C   C33  0.789099  0.293694  0.973324  -0.215154
    C   C34  0.766706  0.295260  0.028910  -0.131831
    C   C35  0.665815  0.336987  0.828628  -0.454390
    C   C36  0.839326  0.163190  0.174114  -0.315554
    H   H15  0.817962  0.330782  0.947693  0.084803
    H   H16  0.871964  0.172126  0.052198  0.064489
    H   H17  0.725712  0.169197  0.949348  0.086300
    C   C37  0.320611  0.416324  0.569224  0.505584
    H   H18  0.328437  0.377466  0.552010  -0.022106
    C   C38  0.248167  0.415435  0.567132  -0.122090
    H   H19  0.259315  0.395614  0.629490  0.034678
    H   H20  0.245732  0.522327  0.594083  0.003000
    C   C39  0.294126  0.552627  0.521308  0.170966
    C   C40  0.246568  0.515112  0.419117  0.254070
    C   C41  0.311932  0.495660  0.504202  -0.072777
    H   H21  0.254916  0.467697  0.413182  0.054273
    C   C42  0.191491  0.494692  0.502173  0.576719
    C   C43  0.226892  0.546151  0.528170  -0.017054
    C   C44  0.173372  0.523671  0.414463  0.055399
    H   H22  0.137318  0.583274  0.370446  0.036530
    H   H23  0.280679  0.610594  0.469323  0.006243
    O   O9   0.053326  0.908410  0.497842  -0.519904
    O   O10  0.948180  0.904990  0.502967  -0.519424
    C   C45  0.000913  0.877310  0.500228  0.596908
    O   O11  0.113846  0.933328  0.623896  -0.646128
    O   O12  0.005262  0.937956  0.622611  -0.597711
    C   C46  0.078835  0.915919  0.662357  0.774381
    Cu  Cu3  0.062595  0.997313  0.501943  0.961670
    Cu  Cu4  0.937108  0.997087  0.500291  0.946603
    O   O13  0.051392  0.089644  0.498832  -0.615812
    O   O14  0.946506  0.085804  0.504716  -0.428665
    O   O15  0.994435  0.056188  0.379639  -0.632909
    O   O16  0.885850  0.061358  0.378347  -0.613127
    C   C47  0.998504  0.117189  0.501479  0.507021
    C   C48  0.920882  0.078613  0.339902  0.824056
    O   O17  0.039287  0.369275  0.574064  -0.587158
    O   O18  0.965852  0.441193  0.429387  -0.628567
    C   C49  0.999914  0.375867  0.501944  0.723532
    O   O19  0.944741  0.458351  0.572152  -0.634534
    O   O20  0.873162  0.536994  0.427741  -0.627674
    C   C50  0.879475  0.498391  0.499752  0.645337
    Cu  Cu5  0.041740  0.455104  0.584269  0.942742
    Cu  Cu6  0.958740  0.538252  0.416935  0.954494
    O   O21  0.037629  0.552121  0.571828  -0.572242
    O   O22  0.967600  0.623971  0.427271  -0.569295
    O   O23  0.127500  0.458020  0.573669  -0.624823
    O   O24  0.055642  0.533443  0.428765  -0.547646
    C   C51  0.999751  0.617493  0.499324  0.663388
    C   C52  0.121034  0.494892  0.501390  0.574988
    C   C53  0.962015  0.828003  0.409020  0.557986
    H   H24  0.900934  0.852907  0.377306  -0.043518
    C   C54  0.970776  0.756402  0.410721  0.221514
    H   H25  0.913803  0.760215  0.364999  0.009191
    H   H26  0.119441  0.665481  0.548789  0.103127
    C   C55  0.081647  0.752418  0.557708  0.494836
    C   C56  0.951573  0.768252  0.529657  0.608725
    C   C57  0.000786  0.807497  0.499417  -0.528993
    H   H27  0.893373  0.807549  0.486430  -0.022303
    C   C58  0.999817  0.687465  0.499328  0.190090
    C   C59  0.079679  0.679614  0.562054  -0.439202
    C   C60  0.949842  0.697076  0.527995  0.160295
    H   H28  0.107926  0.739664  0.621731  -0.009535
    H   H29  0.099786  0.633584  0.627137  0.121112
    C   C61  0.070996  0.171147  0.579882  0.393372
    H   H30  0.120318  0.150212  0.582513  -0.029084
    C   C62  0.074224  0.243476  0.576649  -0.394362
    H   H31  0.087871  0.232589  0.637217  0.111704
    H   H32  0.120091  0.260614  0.568713  0.101792
    H   H33  0.052885  0.233019  0.436029  -0.069500
    H   H34  0.031336  0.347200  0.412806  0.155155
    C   C63  0.998090  0.248719  0.426923  0.586509
    C   C64  0.930908  0.212022  0.501908  0.222660
    C   C65  0.998322  0.186950  0.501748  -0.029629
    H   H35  0.934283  0.165866  0.558079  0.059449
    C   C66  0.999535  0.305860  0.502209  0.190527
    C   C67  0.988653  0.321863  0.421490  -0.544861
    C   C68  0.933566  0.281834  0.505171  0.230815
    H   H36  0.881467  0.329345  0.450091  0.047103
    H   H37  0.931497  0.361134  0.366597  0.115627
    O   O25  0.801399  0.400077  0.475528  -0.603787
    H   H38  0.754274  0.430143  0.418856  0.315972
    O   O26  0.610812  0.567058  0.349026  -0.717184
    H   H39  0.630007  0.530187  0.342556  0.395349
    O   O27  0.771865  0.444315  0.647832  -0.642509
    H   H40  0.755014  0.464360  0.671457  0.369708
    O   O28  0.652608  0.633190  0.407804  -0.690738
    H   H41  0.603511  0.663452  0.352962  0.413413
    O   O29  0.681488  0.162184  0.060378  -0.579909
    H   H42  0.632698  0.173829  0.010050  0.346836
    O   O30  0.384304  0.389307  0.649527  -0.637458
    H   H43  0.369023  0.405913  0.676509  0.351273
    O   O31  0.218302  0.365604  0.546315  -0.575049
    H   H44  0.228180  0.321784  0.599479  0.386667
    O   O32  0.355558  0.540360  0.595495  -0.572935
    H   H45  0.353536  0.591304  0.584376  0.372654
    O   O33  0.220654  0.891048  0.943432  -0.558341
    H   H46  0.249681  0.892322  0.994092  0.351361
    O   O34  0.243708  0.579215  0.353034  -0.593885
    H   H47  0.219772  0.623795  0.346066  0.343746
    O   O35  0.133737  0.482346  0.384812  -0.575998
    H   H48  0.100495  0.518785  0.323161  0.368843
    O   O36  0.174298  0.617340  0.476495  -0.595195
    H   H49  0.197688  0.643139  0.505060  0.391968
    O   O37  0.982067  0.882945  0.359010  -0.671202
    H   H50  0.035826  0.876345  0.394213  0.422077
    O   O38  0.178356  0.777648  0.060127  -0.557104
    H   H51  0.128606  0.814347  0.009615  0.351335
    O   O39  0.016743  0.750949  0.383590  -0.563482
    H   H52  0.062675  0.762396  0.412600  0.336785
    O   O40  0.128519  0.782201  0.531582  -0.662367
    H   H53  0.176265  0.768944  0.583797  0.392723
    O   O41  0.975143  0.751985  0.609197  -0.628650
    H   H54  0.025654  0.714195  0.651283  0.365194
    O   O42  0.876090  0.701135  0.474443  -0.579111
    H   H55  0.849786  0.752767  0.423232  0.335619
    O   O43  0.977229  0.634190  0.608352  -0.558301
    H   H56  0.932071  0.619838  0.604619  0.392737
    O   O44  0.074969  0.116740  0.652061  -0.663285
    H   H57  0.118842  0.073545  0.681333  0.405312
    O   O45  0.862182  0.225830  0.431798  -0.603837
    H   H58  0.849153  0.276788  0.383564  0.370964
    O   O46  0.938552  0.268875  0.576687  -0.611368
    H   H59  0.976956  0.219552  0.625272  0.385466
    O   O47  0.940968  0.258035  0.352386  -0.632079
    H   H60  0.967468  0.250062  0.329018  0.356673
