# Generated by REPEAT Assigner based on pymatgen
data_DB0-m29_o97_o430_f0_pts.sym.16
_audit_creation_date              2022-05-24
_audit_creation_method            REPEAT_Assigner
_cell_length_a                    17.535215
_cell_length_b                    16.406584
_cell_length_c                    12.884528
_cell_angle_alpha                 91.665050
_cell_angle_beta                  81.709483
_cell_angle_gamma                 114.196734
_cell_volume                      3343.934788
_symmetry_space_group_name_H-M    P1
_symmetry_Int_Tables_number       1
loop_
    _symmetry_equiv_pos_site_id
    _symmetry_equiv_pos_as_xyz
    1  x,y,z
loop_
    _atom_site_type_symbol
    _atom_site_label
    _atom_site_fract_x
    _atom_site_fract_y
    _atom_site_fract_z
    _atom_type_partial_charge
    C   C1   0.256929  0.026511  0.153044  -0.219338
    C   C2   0.123331  0.026558  0.214632  -0.157378
    C   C3   0.316770  0.024142  0.072990  -0.070344
    C   C4   0.297803  0.010349  0.970792  -0.108930
    C   C5   0.179537  0.019147  0.133445  0.175403
    C   C6   0.157287  0.001160  0.034627  0.037122
    C   C7   0.214796  0.991826  0.954424  0.139138
    C   C8   0.185633  0.957677  0.861722  -0.174088
    C   C9   0.045445  0.019112  0.197609  -0.157187
    C   C10  0.021578  0.003533  0.097763  0.060763
    C   C11  0.077160  0.990961  0.016989  -0.003761
    C   C12  0.052798  0.967265  0.919049  0.043660
    C   C13  0.106409  0.945327  0.844491  -0.109927
    C   C14  0.888634  0.018066  0.153343  -0.139923
    C   C15  0.943059  0.998188  0.077805  0.067022
    C   C16  0.919553  0.976771  0.978811  -0.017635
    C   C17  0.974576  0.962182  0.899028  0.079328
    C   C18  0.951361  0.946281  0.799220  -0.168496
    C   C19  0.811324  0.010729  0.133928  -0.112275
    C   C20  0.784677  0.983683  0.038043  0.048817
    C   C21  0.841103  0.971063  0.958980  0.095169
    C   C22  0.819503  0.954034  0.859303  0.121292
    C   C23  0.705011  0.974888  0.018751  -0.007983
    C   C24  0.686291  0.962094  0.916541  -0.051016
    C   C25  0.875155  0.941900  0.780122  -0.141295
    C   C26  0.743723  0.951880  0.837658  -0.171392
    H   H1   0.272489  0.037804  0.231875  0.199065
    H   H2   0.139961  0.038399  0.292976  0.131174
    H   H3   0.221168  0.934724  0.802049  0.154909
    H   H4   0.005024  0.023478  0.266546  0.149153
    H   H5   0.088979  0.915245  0.771513  0.129622
    H   H6   0.904049  0.042909  0.229014  0.134074
    H   H7   0.991531  0.939945  0.731162  0.142375
    H   H8   0.775049  0.031234  0.195421  0.137228
    H   H9   0.861542  0.929866  0.700668  0.158388
    O   O1   0.593024  0.020036  0.091687  -0.578219
    C   C27  0.641280  0.978640  0.105290  0.561123
    O   O2   0.452649  0.810012  0.224534  -0.476619
    O   O3   0.629500  0.936306  0.194950  -0.459491
    O   O4   0.484068  0.927017  0.335887  -0.607533
    C   C28  0.457583  0.840766  0.319631  0.672354
    Fe  Fe1  0.511995  0.014177  0.218257  1.492333
    O   O5   0.398416  0.978205  0.172103  -0.689860
    O   O6   0.466949  0.105665  0.070196  -0.524012
    C   C29  0.397804  0.034598  0.102244  0.937829
    O   O7   0.569922  0.135872  0.275288  -0.669727
    O   O8   0.437897  0.132309  0.294563  -0.615089
    C   C30  0.516646  0.171183  0.311108  0.754342
    O   O9   0.429454  0.896255  0.699707  -0.623305
    O   O10  0.510861  0.829139  0.745347  -0.452324
    C   C31  0.453698  0.830322  0.691182  0.593996
    O   O11  0.614483  0.012602  0.806146  -0.626715
    O   O12  0.533887  0.910142  0.937119  -0.459459
    C   C32  0.608346  0.962342  0.887255  0.753961
    O   O13  0.360802  0.038270  0.787164  -0.501214
    O   O14  0.546967  0.104505  0.660721  -0.557798
    C   C33  0.537367  0.179406  0.677915  0.509132
    O   O15  0.431382  0.003867  0.899567  -0.617999
    C   C34  0.364443  0.015455  0.882503  0.672959
    O   O16  0.509933  0.197786  0.771995  -0.448972
    Fe  Fe2  0.505158  0.005594  0.767304  1.467654
    H   H10  0.554618  0.131426  0.481257  0.129159
    C   C35  0.534558  0.228338  0.400603  0.079122
    C   C36  0.520680  0.304838  0.406007  -0.198828
    H   H11  0.506144  0.329052  0.337568  0.107415
    C   C37  0.523934  0.349578  0.498898  0.107099
    C   C38  0.531245  0.311094  0.589834  -0.202586
    H   H12  0.527432  0.342232  0.664364  0.136785
    C   C39  0.542602  0.232095  0.584513  0.116397
    C   C40  0.548734  0.194379  0.488137  -0.159983
    C   C41  0.446475  0.438270  0.571393  -0.095869
    H   H13  0.409757  0.384618  0.628566  0.123761
    C   C42  0.426097  0.510657  0.567751  -0.136603
    H   H14  0.375124  0.513378  0.623898  0.100671
    C   C43  0.469109  0.578016  0.492090  0.124410
    C   C44  0.533457  0.572690  0.420754  -0.202422
    H   H15  0.570035  0.627698  0.365327  0.180115
    C   C45  0.555989  0.501438  0.425474  0.003136
    C   C46  0.511087  0.432670  0.500673  0.034998
    C   C47  0.451600  0.702060  0.404620  -0.098008
    H   H16  0.460560  0.674876  0.328703  0.110315
    C   C48  0.442917  0.782407  0.411401  -0.092939
    C   C49  0.432514  0.816877  0.508506  -0.030487
    H   H17  0.427554  0.880307  0.513818  0.115716
    C   C50  0.438848  0.777427  0.597531  -0.054086
    C   C51  0.448708  0.698527  0.591259  -0.070891
    H   H18  0.457681  0.670197  0.660790  0.122620
    C   C52  0.452943  0.659099  0.495567  0.022545
    N   N1   0.722312  0.934082  0.734260  0.669200
    O   O17  0.687279  0.851674  0.706165  -0.334130
    O   O18  0.753939  0.998254  0.662874  -0.352536
    N   N2   0.627949  0.502658  0.356009  0.641838
    O   O19  0.679058  0.473120  0.388693  -0.380374
    O   O20  0.651661  0.549127  0.268122  -0.415642
