# generated using pymatgen
data_ZnH19C36N(ClO2)2
_symmetry_space_group_name_H-M   'P 1'
_cell_length_a   15.37665600
_cell_length_b   11.77758100
_cell_length_c   13.36372200
_cell_angle_alpha   90.16164800
_cell_angle_beta   89.98999600
_cell_angle_gamma   90.00000000
_symmetry_Int_Tables_number   1
_chemical_formula_structural   ZnH19C36N(ClO2)2
_chemical_formula_sum   'Zn2 H38 C72 N2 Cl4 O8'
_cell_volume   2420.15786704
_cell_formula_units_Z   2
loop_
 _symmetry_equiv_pos_site_id
 _symmetry_equiv_pos_as_xyz
  1  'x, y, z'
loop_
 _atom_site_type_symbol
 _atom_site_label
 _atom_site_symmetry_multiplicity
 _atom_site_fract_x
 _atom_site_fract_y
 _atom_site_fract_z
 _atom_site_occupancy
  Zn  Zn1  1  0.50374000  0.50212700  0.88834800  1
  Zn  Zn2  1  0.50072600  0.50695400  0.11035500  1
  H  H1  1  0.20507600  0.94532800  0.12830200  1
  H  H2  1  0.81312100  0.08182900  0.86333600  1
  H  H3  1  0.26611800  0.68003600  0.85418900  1
  H  H4  1  0.72303100  0.30184100  0.15759000  1
  H  H5  1  0.17163000  0.13186500  0.84325400  1
  H  H6  1  0.82740400  0.88429800  0.15792300  1
  H  H7  1  0.28525900  0.28291200  0.16018200  1
  H  H8  1  0.72195000  0.72466400  0.84012900  1
  H  H9  1  0.29797200  0.25567000  0.84093900  1
  H  H10  1  0.70063800  0.76016400  0.15824800  1
  H  H11  1  0.15812500  0.15974600  0.16047300  1
  H  H12  1  0.84884000  0.84865600  0.84192600  1
  H  H13  1  0.00293400  0.79708900  0.98550100  1
  H  H14  1  0.00043800  0.21179900  0.01768600  1
  H  H15  1  0.36497100  0.51130900  0.25238500  1
  H  H16  1  0.63958600  0.49814000  0.74632800  1
  H  H17  1  0.63858900  0.50355000  0.25152400  1
  H  H18  1  0.36596000  0.50537000  0.74715500  1
  H  H19  1  0.71816600  0.50043900  0.40696900  1
  H  H20  1  0.28639400  0.50891500  0.59172900  1
  H  H21  1  0.71853600  0.49794400  0.59030300  1
  H  H22  1  0.28602500  0.51164300  0.40840000  1
  H  H23  1  0.25774400  0.81158500  0.26635200  1
  H  H24  1  0.50934300  0.89909100  0.37453900  1
  H  H25  1  0.56236700  0.91569000  0.20160300  1
  H  H26  1  0.46354000  0.88102900  0.06082000  1
  H  H27  1  0.55282700  0.12375300  0.90334400  1
  H  H28  1  0.53771400  0.14895900  0.58605100  1
  H  H29  1  0.68799800  0.22005000  0.58090100  1
  H  H30  1  0.77086500  0.24335900  0.73641900  1
  H  H31  1  0.13246000  0.96322800  0.77400800  1
  H  H32  1  0.97745500  0.74678100  0.59195500  1
  H  H33  1  0.00993500  0.58632100  0.70327400  1
  H  H34  1  0.10299700  0.61416700  0.85028400  1
  H  H35  1  0.77872400  0.05147600  0.25055900  1
  H  H36  1  0.96908500  0.18121100  0.45191400  1
  H  H37  1  0.01724200  0.31687500  0.32382600  1
  H  H38  1  0.94601000  0.32025700  0.15939700  1
  C  C1  1  0.31129300  0.74711000  0.99344100  1
  C  C2  1  0.69263600  0.26018300  0.00505900  1
  C  C3  1  0.08083000  0.94732900  0.99129000  1
  C  C4  1  0.92330500  0.06139300  0.01347500  1
  C  C5  1  0.21969200  0.88908700  0.06665100  1
  C  C6  1  0.79258400  0.13032300  0.92791800  1
  C  C7  1  0.25428400  0.74029600  0.91375900  1
  C  C8  1  0.74087400  0.25291000  0.09224700  1
  C  C9  1  0.29432700  0.82381400  0.07027100  1
  C  C10  1  0.71785500  0.19523700  0.92257900  1
  C  C11  1  0.16292300  0.88291100  0.98654700  1
  C  C12  1  0.84143500  0.12556400  0.01434400  1
  C  C13  1  0.18041600  0.80658900  0.90952800  1
  C  C14  1  0.81478000  0.18705100  0.09731700  1
  C  C15  1  0.30211100  0.27654300  0.00054700  1
  C  C16  1  0.70142700  0.73415100  0.99901600  1
  C  C17  1  0.07949600  0.06463500  0.00326500  1
  C  C18  1  0.92449300  0.94458600  0.00087400  1
  C  C19  1  0.19810600  0.16208000  0.91307900  1
  C  C20  1  0.80268200  0.85157500  0.08795700  1
  C  C21  1  0.26212200  0.24873900  0.08994800  1
  C  C22  1  0.74328400  0.76061600  0.91043800  1
  C  C23  1  0.26926700  0.23335100  0.91200000  1
  C  C24  1  0.73151500  0.78024500  0.08784800  1
  C  C25  1  0.15891700  0.13342400  0.00235600  1
  C  C26  1  0.84449100  0.87733300  0.99965800  1
  C  C27  1  0.19008300  0.17902200  0.09048900  1
  C  C28  1  0.81514800  0.83072500  0.91110800  1
  C  C29  1  0.00289300  0.88864000  0.99113700  1
  C  C30  1  0.00097200  0.12023000  0.01335000  1
  C  C31  1  0.62834500  0.65394000  0.99925800  1
  C  C32  1  0.37591700  0.35551000  0.99957600  1
  C  C33  1  0.62103100  0.34349200  0.00188100  1
  C  C34  1  0.38338200  0.66513400  0.99670900  1
  C  C35  1  0.42568100  0.50937800  0.29304200  1
  C  C36  1  0.57887700  0.49999900  0.70566500  1
  C  C37  1  0.57802800  0.50513600  0.29250100  1
  C  C38  1  0.42652800  0.50391800  0.70619000  1
  C  C39  1  0.57928900  0.50418200  0.39580300  1
  C  C40  1  0.42527100  0.50512900  0.60289200  1
  C  C41  1  0.50217700  0.50547100  0.44784200  1
  C  C42  1  0.50238500  0.50396200  0.55085700  1
  C  C43  1  0.42485300  0.50825800  0.39633300  1
  C  C44  1  0.57970800  0.50124200  0.60236900  1
  C  C45  1  0.65716600  0.50151400  0.44718800  1
  C  C46  1  0.34739500  0.50790400  0.55151000  1
  C  C47  1  0.65737400  0.50007200  0.55047600  1
  C  C48  1  0.34718700  0.50950800  0.44822400  1
  C  C49  1  0.35446500  0.84159900  0.15418500  1
  C  C50  1  0.32462500  0.83430700  0.25151800  1
  C  C51  1  0.38030500  0.85443900  0.33048400  1
  C  C52  1  0.46578900  0.88309500  0.31259600  1
  C  C53  1  0.49553600  0.89214800  0.21566700  1
  C  C54  1  0.43999000  0.87193400  0.13659800  1
  C  C55  1  0.66650000  0.18788300  0.83032900  1
  C  C56  1  0.58227700  0.14695300  0.83284300  1
  C  C57  1  0.53613300  0.13309600  0.74515800  1
  C  C58  1  0.57388600  0.16002000  0.65474400  1
  C  C59  1  0.65813100  0.19978400  0.65187100  1
  C  C60  1  0.70460400  0.21285500  0.73937500  1
  C  C61  1  0.12225100  0.79151700  0.82341800  1
  C  C62  1  0.10435400  0.88096100  0.76020000  1
  C  C63  1  0.05250000  0.86493000  0.67728200  1
  C  C64  1  0.01810900  0.75931000  0.65704000  1
  C  C65  1  0.03641400  0.66941400  0.71935300  1
  C  C66  1  0.08890500  0.68522500  0.80188800  1
  C  C67  1  0.86106100  0.18166100  0.19270100  1
  C  C68  1  0.83266700  0.10777000  0.26560300  1
  C  C69  1  0.87168200  0.10706700  0.35840400  1
  C  C70  1  0.93872300  0.18125600  0.37898700  1
  C  C71  1  0.96577800  0.25723700  0.30712600  1
  C  C72  1  0.92628800  0.25839800  0.21448500  1
  N  N1  1  0.50171600  0.50681500  0.24274300  1
  N  N2  1  0.50283500  0.50220000  0.75595900  1
  Cl  Cl1  1  0.34227100  0.84399300  0.45362300  1
  Cl  Cl2  1  0.43016100  0.07891900  0.74837300  1
  Cl  Cl3  1  0.03176500  0.97868700  0.59683600  1
  Cl  Cl4  1  0.83450400  0.01356900  0.45060400  1
  O  O1  1  0.59910800  0.61716800  0.08557000  1
  O  O2  1  0.40532800  0.39189600  0.91312500  1
  O  O3  1  0.59676300  0.61942400  0.91313400  1
  O  O4  1  0.40762700  0.38983700  0.08560600  1
  O  O5  1  0.59480800  0.38302000  0.91528500  1
  O  O6  1  0.40965300  0.62610900  0.08353900  1
  O  O7  1  0.59037700  0.38178700  0.08722900  1
  O  O8  1  0.41395400  0.62710400  0.91131400  1
