# generated using pymatgen
data_CuH9C22NO6
_symmetry_space_group_name_H-M   'P 1'
_cell_length_a   14.61420600
_cell_length_b   15.88106300
_cell_length_c   16.05490400
_cell_angle_alpha   89.99241600
_cell_angle_beta   90.00912400
_cell_angle_gamma   72.58860200
_symmetry_Int_Tables_number   1
_chemical_formula_structural   CuH9C22NO6
_chemical_formula_sum   'Cu2 H18 C44 N2 O12'
_cell_volume   3555.43854276
_cell_formula_units_Z   2
loop_
 _symmetry_equiv_pos_site_id
 _symmetry_equiv_pos_as_xyz
  1  'x, y, z'
loop_
 _atom_site_type_symbol
 _atom_site_label
 _atom_site_symmetry_multiplicity
 _atom_site_fract_x
 _atom_site_fract_y
 _atom_site_fract_z
 _atom_site_occupancy
  Cu  Cu1  1  0.59146900  0.50008400  0.49937100  1
  Cu  Cu2  1  0.40853100  0.49991600  0.50062900  1
  H  H1  1  0.74952200  0.92539300  0.46270700  1
  H  H2  1  0.25047800  0.07460700  0.53729300  1
  H  H3  1  0.55245800  0.77517400  0.49940800  1
  H  H4  1  0.44754200  0.22482600  0.50059200  1
  H  H5  1  0.26329900  0.77635500  0.50117000  1
  H  H6  1  0.73670100  0.22364500  0.49883000  1
  H  H7  1  0.64053500  0.84624000  0.45939500  1
  H  H8  1  0.35946500  0.15376000  0.54060500  1
  H  H9  1  0.64128100  0.49982800  0.08236000  1
  H  H10  1  0.35871900  0.50017100  0.91764000  1
  H  H11  1  0.05013000  0.60328600  0.59035000  1
  H  H12  1  0.94987000  0.39671300  0.40965000  1
  H  H13  1  0.88168500  0.60362800  0.58926000  1
  H  H14  1  0.11831500  0.39637200  0.41074000  1
  H  H15  1  0.86644100  0.09150400  0.47548900  1
  H  H16  1  0.13355900  0.90849500  0.52451100  1
  H  H17  1  0.73610200  0.49960000  0.96255000  1
  H  H18  1  0.26389900  0.50039900  0.03744900  1
  C  C1  1  0.49896100  0.50018200  0.34014800  1
  C  C2  1  0.50103900  0.49981700  0.65985200  1
  C  C3  1  0.55576000  0.33020000  0.49987700  1
  C  C4  1  0.44424000  0.66980000  0.50012300  1
  C  C5  1  0.58769100  0.23320700  0.49975400  1
  C  C6  1  0.41230900  0.76679300  0.50024600  1
  C  C7  1  0.71493800  0.09766600  0.49633700  1
  C  C8  1  0.28506200  0.90233400  0.50366300  1
  C  C9  1  0.68398100  0.18833800  0.49804300  1
  C  C10  1  0.31601900  0.81166100  0.50195700  1
  C  C11  1  0.52168800  0.18662900  0.50220800  1
  C  C12  1  0.47831200  0.81337000  0.49779200  1
  C  C13  1  0.55077700  0.09448300  0.50159000  1
  C  C14  1  0.44922300  0.90551700  0.49841000  1
  C  C15  1  0.64808300  0.05060800  0.49399000  1
  C  C16  1  0.35191700  0.94939100  0.50601100  1
  C  C17  1  0.48462300  0.04560200  0.50559800  1
  C  C18  1  0.51537700  0.95439800  0.49440200  1
  C  C19  1  0.61166300  0.91432500  0.47696500  1
  C  C20  1  0.38833700  0.08567500  0.52303500  1
  C  C21  1  0.67661700  0.96105200  0.47860600  1
  C  C22  1  0.32338300  0.03894800  0.52139400  1
  C  C23  1  0.58461100  0.49980900  0.95986300  1
  C  C24  1  0.41539000  0.50019000  0.04013700  1
  C  C25  1  0.50400400  0.49990500  0.91379700  1
  C  C26  1  0.49599600  0.50009500  0.08620300  1
  C  C27  1  0.42077200  0.50009200  0.95430600  1
  C  C28  1  0.57922800  0.49990700  0.04569400  1
  C  C29  1  0.50319700  0.49984800  0.82427700  1
  C  C30  1  0.49680300  0.50015100  0.17572300  1
  C  C31  1  0.49801000  0.50018000  0.25079200  1
  C  C32  1  0.50199000  0.49981900  0.74920800  1
  C  C33  1  0.93368400  0.55810700  0.55002700  1
  C  C34  1  0.06631700  0.44189300  0.44997300  1
  C  C35  1  0.90559500  0.50022900  0.49935100  1
  C  C36  1  0.09440500  0.49977100  0.50064900  1
  C  C37  1  0.97190400  0.44210900  0.44933400  1
  C  C38  1  0.02809600  0.55789000  0.55066600  1
  C  C39  1  0.80740500  0.50030500  0.49888800  1
  C  C40  1  0.19259500  0.49969500  0.50111200  1
  C  C41  1  0.81942200  0.05568700  0.49924400  1
  C  C42  1  0.18057800  0.94431300  0.50075600  1
  C  C43  1  0.67668800  0.49960400  0.92213500  1
  C  C44  1  0.32331300  0.50039600  0.07786500  1
  N  N1  1  0.27176100  0.49967600  0.50131300  1
  N  N2  1  0.72823900  0.50032400  0.49868700  1
  O  O1  1  0.57900800  0.49707000  0.37837900  1
  O  O2  1  0.42099300  0.50293000  0.62162100  1
  O  O3  1  0.41966300  0.50317100  0.37953800  1
  O  O4  1  0.58033700  0.49682900  0.62046200  1
  O  O5  1  0.62073600  0.37180800  0.49644300  1
  O  O6  1  0.37926400  0.62819100  0.50355700  1
  O  O7  1  0.46366800  0.37171800  0.50336100  1
  O  O8  1  0.53633200  0.62828100  0.49663900  1
  O  O9  1  0.85433800  0.98746700  0.53786400  1
  O  O10  1  0.14566200  0.01253300  0.46213600  1
  O  O11  1  0.68830600  0.49941200  0.84695900  1
  O  O12  1  0.31169400  0.50058800  0.15304100  1
