# generated using pymatgen
data_ZnH21C38(NO2)3
_symmetry_space_group_name_H-M   'P 1'
_cell_length_a   16.51378500
_cell_length_b   16.66449200
_cell_length_c   17.49565400
_cell_angle_alpha   98.83618000
_cell_angle_beta   90.71312400
_cell_angle_gamma   90.06516900
_symmetry_Int_Tables_number   1
_chemical_formula_structural   ZnH21C38(NO2)3
_chemical_formula_sum   'Zn2 H42 C76 N6 O12'
_cell_volume   4757.16218642
_cell_formula_units_Z   2
loop_
 _symmetry_equiv_pos_site_id
 _symmetry_equiv_pos_as_xyz
  1  'x, y, z'
loop_
 _atom_site_type_symbol
 _atom_site_label
 _atom_site_symmetry_multiplicity
 _atom_site_fract_x
 _atom_site_fract_y
 _atom_site_fract_z
 _atom_site_occupancy
  Zn  Zn1  1  0.50334000  0.51280300  0.08638800  1
  Zn  Zn2  1  0.49666400  0.49074900  0.91381600  1
  H  H1  1  0.91592800  0.72241200  0.05284600  1
  H  H2  1  0.08193000  0.27941400  0.94286700  1
  H  H3  1  0.30964500  0.92464400  0.01423400  1
  H  H4  1  0.68968200  0.08089800  0.99121200  1
  H  H5  1  0.31020100  0.08115200  0.01147900  1
  H  H6  1  0.68870500  0.92394700  0.99138000  1
  H  H7  1  0.92264100  0.27909600  0.93770500  1
  H  H8  1  0.07486000  0.72175600  0.05935600  1
  H  H9  1  0.99897200  0.07336000  0.03582200  1
  H  H10  1  0.00062800  0.93212200  0.96744100  1
  H  H11  1  0.76029000  0.83346700  0.11968600  1
  H  H12  1  0.22137600  0.18651200  0.87708900  1
  H  H13  1  0.69714000  0.64531900  0.88128200  1
  H  H14  1  0.31973400  0.34226100  0.12231200  1
  H  H15  1  0.79932800  0.75102200  0.88042700  1
  H  H16  1  0.21746100  0.23693900  0.12302500  1
  H  H17  1  0.20623100  0.79685500  0.13308500  1
  H  H18  1  0.76421500  0.17817300  0.86933900  1
  H  H19  1  0.30793200  0.69012200  0.13223900  1
  H  H20  1  0.66260900  0.28479200  0.86890800  1
  H  H21  1  0.33612900  0.68517500  0.88887600  1
  H  H22  1  0.70096200  0.35519800  0.11265100  1
  H  H23  1  0.23184100  0.78816800  0.89011300  1
  H  H24  1  0.80227400  0.24916800  0.11138000  1
  H  H25  1  0.65744900  0.72828700  0.12170100  1
  H  H26  1  0.32312200  0.29253500  0.87469000  1
  H  H27  1  0.70662300  0.49751900  0.31721400  1
  H  H28  1  0.29999200  0.43473500  0.66766300  1
  H  H29  1  0.69321900  0.51315900  0.70116700  1
  H  H30  1  0.30598000  0.52072800  0.30649200  1
  H  H31  1  0.70067700  0.52266700  0.56773700  1
  H  H32  1  0.29941100  0.50623900  0.43924200  1
  H  H33  1  0.70519000  0.48724400  0.44878300  1
  H  H34  1  0.30180900  0.44620900  0.53561000  1
  H  H35  1  0.38077900  0.52369200  0.19241500  1
  H  H36  1  0.61862300  0.49558600  0.81120700  1
  H  H37  1  0.78720100  0.51231600  0.12795700  1
  H  H38  1  0.83219200  0.57563500  0.21106100  1
  H  H39  1  0.79357300  0.62112200  0.13056400  1
  H  H40  1  0.22149500  0.44371400  0.87561100  1
  H  H41  1  0.16261200  0.49364100  0.80867000  1
  H  H42  1  0.20408000  0.55207500  0.89630500  1
  C  C1  1  0.25621000  0.96148900  0.01119100  1
  C  C2  1  0.74299300  0.04351600  0.99245200  1
  C  C3  1  0.25651500  0.04379100  0.01043200  1
  C  C4  1  0.74252500  0.96107800  0.99225800  1
  C  C5  1  0.17639600  0.06686200  0.00692100  1
  C  C6  1  0.82265600  0.93760500  0.99459700  1
  C  C7  1  0.17586800  0.93775500  0.00871000  1
  C  C8  1  0.82336900  0.06675200  0.99354900  1
  C  C9  1  0.15172500  0.14233100  0.00173900  1
  C  C10  1  0.84731200  0.86181800  0.99835900  1
  C  C11  1  0.06633200  0.16483600  0.99072600  1
  C  C12  1  0.93269400  0.83866800  0.00848600  1
  C  C13  1  0.04333600  0.23386900  0.96142300  1
  C  C14  1  0.95508400  0.76851600  0.03599100  1
  C  C15  1  0.96012000  0.23388000  0.95882600  1
  C  C16  1  0.03828400  0.76837000  0.03959200  1
  C  C17  1  0.93508700  0.16500200  0.98672600  1
  C  C18  1  0.06405900  0.83870000  0.01453800  1
  C  C19  1  0.84910700  0.14256800  0.99182900  1
  C  C20  1  0.15037800  0.86176700  0.01069900  1
  C  C21  1  0.74621600  0.79194400  0.06744700  1
  C  C22  1  0.24320000  0.22102000  0.93078400  1
  C  C23  1  0.68855300  0.73227200  0.06847300  1
  C  C24  1  0.30055500  0.28101100  0.92970100  1
  C  C25  1  0.67041000  0.67908000  0.00179000  1
  C  C26  1  0.32886700  0.32498600  0.99834100  1
  C  C27  1  0.71008400  0.68641900  0.93405900  1
  C  C28  1  0.29888100  0.30865900  0.06784900  1
  C  C29  1  0.76805200  0.74577400  0.93334100  1
  C  C30  1  0.24098600  0.24926200  0.06862100  1
  C  C31  1  0.78589800  0.79878900  0.99982700  1
  C  C32  1  0.21315200  0.20536000  0.00022600  1
  C  C33  1  0.23415900  0.77124600  0.07929600  1
  C  C34  1  0.75012900  0.21742700  0.92257900  1
  C  C35  1  0.29186500  0.71120400  0.07865900  1
  C  C36  1  0.69298600  0.27780500  0.92253800  1
  C  C37  1  0.32790200  0.67836300  0.00998300  1
  C  C38  1  0.67411200  0.32741500  0.99079700  1
  C  C39  1  0.30669400  0.70734400  0.94262200  1
  C  C40  1  0.71397100  0.31695500  0.05858300  1
  C  C41  1  0.24829600  0.76625500  0.94320700  1
  C  C42  1  0.77149200  0.25720800  0.05821600  1
  C  C43  1  0.21146600  0.79805100  0.01131100  1
  C  C44  1  0.78901300  0.20681900  0.99057900  1
  C  C45  1  0.60928900  0.61551500  0.00230800  1
  C  C46  1  0.39036700  0.38830900  0.99791900  1
  C  C47  1  0.38881900  0.61406300  0.00785600  1
  C  C48  1  0.61162000  0.38999800  0.99244000  1
  C  C49  1  0.57862400  0.52101500  0.22721200  1
  C  C50  1  0.42251600  0.47106500  0.77046000  1
  C  C51  1  0.43693900  0.52298000  0.22462500  1
  C  C52  1  0.56315100  0.48880400  0.77750700  1
  C  C53  1  0.50556700  0.51263900  0.34352900  1
  C  C54  1  0.49633700  0.48331300  0.65529200  1
  C  C55  1  0.57810700  0.51429100  0.30567600  1
  C  C56  1  0.42436400  0.46990900  0.69043900  1
  C  C57  1  0.64880800  0.50328200  0.34546400  1
  C  C58  1  0.35602600  0.45338800  0.64456100  1
  C  C59  1  0.43491100  0.51772900  0.30236900  1
  C  C60  1  0.56589000  0.49181400  0.69949200  1
  C  C61  1  0.57266100  0.49885600  0.54225200  1
  C  C62  1  0.42955500  0.49659300  0.45658400  1
  C  C63  1  0.42804400  0.48242900  0.53327600  1
  C  C64  1  0.57505300  0.50061000  0.46267200  1
  C  C65  1  0.49903200  0.48809100  0.57673200  1
  C  C66  1  0.50339900  0.50368600  0.42120800  1
  C  C67  1  0.64218300  0.50863800  0.58864500  1
  C  C68  1  0.35878100  0.50494200  0.41447200  1
  C  C69  1  0.63849700  0.50483100  0.66628700  1
  C  C70  1  0.36178300  0.51530700  0.33821300  1
  C  C71  1  0.64755400  0.49773000  0.42285900  1
  C  C72  1  0.35738200  0.46080800  0.56748300  1
  C  C73  1  0.70349300  0.58122400  0.20301800  1
  C  C74  1  0.78421700  0.57208100  0.16574700  1
  C  C75  1  0.28991900  0.51476300  0.80796100  1
  C  C76  1  0.21469400  0.50013600  0.84979200  1
  N  N1  1  0.12725500  0.00218400  0.00620900  1
  N  N2  1  0.87191400  0.00210700  0.99499500  1
  N  N3  1  0.00000600  0.12373600  0.00745000  1
  N  N4  1  0.99936100  0.88061900  0.99412800  1
  N  N5  1  0.50794000  0.52319700  0.18778300  1
  N  N6  1  0.49223800  0.47996600  0.81235900  1
  O  O1  1  0.57951900  0.58041200  0.93571600  1
  O  O2  1  0.42048200  0.42316000  0.06443700  1
  O  O3  1  0.58687700  0.59611800  0.06884500  1
  O  O4  1  0.41272700  0.40786900  0.93148800  1
  O  O5  1  0.41905900  0.59722900  0.07338000  1
  O  O6  1  0.58079100  0.40621800  0.92699300  1
  O  O7  1  0.41152300  0.57677100  0.93989300  1
  O  O8  1  0.58871300  0.42712300  0.06014300  1
  O  O9  1  0.64896100  0.52017200  0.18884900  1
  O  O10  1  0.68710200  0.64335900  0.24645000  1
  O  O11  1  0.35235500  0.46233600  0.80705100  1
  O  O12  1  0.29532400  0.57463000  0.77607400  1
