# generated using pymatgen
data_Zn3H19C37N5O12
_symmetry_space_group_name_H-M   'P 1'
_cell_length_a   30.85766000
_cell_length_b   31.04778100
_cell_length_c   24.72304500
_cell_angle_alpha   90.00000000
_cell_angle_beta   128.60827000
_cell_angle_gamma   90.00000000
_symmetry_Int_Tables_number   1
_chemical_formula_structural   Zn3H19C37N5O12
_chemical_formula_sum   'Zn12 H76 C148 N20 O48'
_cell_volume   18509.12233106
_cell_formula_units_Z   4
loop_
 _symmetry_equiv_pos_site_id
 _symmetry_equiv_pos_as_xyz
  1  'x, y, z'
loop_
 _atom_site_type_symbol
 _atom_site_label
 _atom_site_symmetry_multiplicity
 _atom_site_fract_x
 _atom_site_fract_y
 _atom_site_fract_z
 _atom_site_occupancy
  Zn  Zn1  1  0.78504300  0.71391700  0.49990900  1
  Zn  Zn2  1  0.21495700  0.71391700  0.50009100  1
  Zn  Zn3  1  0.28504300  0.21391700  0.49990900  1
  Zn  Zn4  1  0.71495700  0.21391700  0.50009100  1
  Zn  Zn5  1  0.71517800  0.78186200  0.50088500  1
  Zn  Zn6  1  0.28482100  0.78186200  0.49911500  1
  Zn  Zn7  1  0.21517800  0.28186200  0.50088500  1
  Zn  Zn8  1  0.78482100  0.28186200  0.49911500  1
  Zn  Zn9  1  0.46354000  0.49771200  0.42183900  1
  Zn  Zn10  1  0.53646000  0.49771200  0.57816100  1
  Zn  Zn11  1  0.96354000  0.99771200  0.42183900  1
  Zn  Zn12  1  0.03646000  0.99771200  0.57816100  1
  H  H1  1  0.59867800  0.80226600  0.27783800  1
  H  H2  1  0.40132200  0.80226600  0.72216200  1
  H  H3  1  0.09867800  0.30226600  0.27783800  1
  H  H4  1  0.90132200  0.30226600  0.72216200  1
  H  H5  1  0.53764500  0.80139600  0.15203700  1
  H  H6  1  0.46235500  0.80139600  0.84796300  1
  H  H7  1  0.03764500  0.30139600  0.15203700  1
  H  H8  1  0.96235500  0.30139600  0.84796300  1
  H  H9  1  0.68103700  0.69002700  0.28188500  1
  H  H10  1  0.31896300  0.69002700  0.71811500  1
  H  H11  1  0.18103700  0.19002700  0.28188500  1
  H  H12  1  0.81896300  0.19002700  0.71811500  1
  H  H13  1  0.83651400  0.88620600  0.56111700  1
  H  H14  1  0.16348600  0.88620600  0.43888400  1
  H  H15  1  0.33651400  0.38620600  0.56111700  1
  H  H16  1  0.66348600  0.38620600  0.43888400  1
  H  H17  1  0.89401300  0.94134400  0.56196700  1
  H  H18  1  0.10598700  0.94134400  0.43803300  1
  H  H19  1  0.39401300  0.44134400  0.56196700  1
  H  H20  1  0.60598700  0.44134400  0.43803300  1
  H  H21  1  0.87538300  0.85810200  0.36281400  1
  H  H22  1  0.12461700  0.85810200  0.63718600  1
  H  H23  1  0.37538300  0.35810200  0.36281400  1
  H  H24  1  0.62461700  0.35810200  0.63718600  1
  H  H25  1  0.94126600  0.83470300  0.44300100  1
  H  H26  1  0.05873400  0.83470300  0.55699900  1
  H  H27  1  0.44126600  0.33470300  0.44300100  1
  H  H28  1  0.55873400  0.33470300  0.55699900  1
  H  H29  1  0.82167600  0.80212100  0.36598800  1
  H  H30  1  0.17832400  0.80212100  0.63401200  1
  H  H31  1  0.32167600  0.30212100  0.36598800  1
  H  H32  1  0.67832400  0.30212100  0.63401200  1
  H  H33  1  0.88771100  0.77850500  0.44563500  1
  H  H34  1  0.11228900  0.77850500  0.55436500  1
  H  H35  1  0.38771100  0.27850500  0.44563500  1
  H  H36  1  0.61228900  0.27850500  0.55436500  1
  H  H37  1  0.79744500  0.77638300  0.72068400  1
  H  H38  1  0.20255500  0.77638300  0.27931600  1
  H  H39  1  0.29744500  0.27638300  0.72068400  1
  H  H40  1  0.70255500  0.27638300  0.27931600  1
  H  H41  1  0.85971500  0.77511100  0.84620000  1
  H  H42  1  0.14028500  0.77511100  0.15380000  1
  H  H43  1  0.35971500  0.27511100  0.84620000  1
  H  H44  1  0.64028500  0.27511100  0.15380000  1
  H  H45  1  0.98739300  0.72171600  0.84601300  1
  H  H46  1  0.01260700  0.72171600  0.15398700  1
  H  H47  1  0.48739300  0.22171600  0.84601300  1
  H  H48  1  0.51260700  0.22171600  0.15398700  1
  H  H49  1  0.92438600  0.72182000  0.72018900  1
  H  H50  1  0.07561400  0.72182000  0.27981100  1
  H  H51  1  0.42438600  0.22182000  0.72018900  1
  H  H52  1  0.57561400  0.22182000  0.27981100  1
  H  H53  1  0.65823200  0.68595600  0.58048900  1
  H  H54  1  0.34176800  0.68595600  0.41951100  1
  H  H55  1  0.15823200  0.18595600  0.58048900  1
  H  H56  1  0.84176800  0.18595600  0.41951100  1
  H  H57  1  0.60317900  0.62938600  0.58217500  1
  H  H58  1  0.39682100  0.62938600  0.41782500  1
  H  H59  1  0.10317900  0.12938600  0.58217500  1
  H  H60  1  0.89682100  0.12938600  0.41782500  1
  H  H61  1  0.62850500  0.52928600  0.43318000  1
  H  H62  1  0.37149500  0.52928600  0.56682000  1
  H  H63  1  0.12850500  0.02928600  0.43318000  1
  H  H64  1  0.87149500  0.02928600  0.56682000  1
  H  H65  1  0.56449200  0.56007500  0.36256400  1
  H  H66  1  0.43550800  0.56007500  0.63743600  1
  H  H67  1  0.06449200  0.06007500  0.36256400  1
  H  H68  1  0.93550800  0.06007500  0.63743600  1
  H  H69  1  0.68632600  0.58357800  0.43491100  1
  H  H70  1  0.31367400  0.58357800  0.56508900  1
  H  H71  1  0.18632600  0.08357800  0.43491100  1
  H  H72  1  0.81367400  0.08357800  0.56508900  1
  H  H73  1  0.62225300  0.61454900  0.36482600  1
  H  H74  1  0.37774700  0.61454900  0.63517400  1
  H  H75  1  0.12225300  0.11454900  0.36482600  1
  H  H76  1  0.87774700  0.11454900  0.63517400  1
  C  C1  1  0.80716300  0.80872800  0.49740700  1
  C  C2  1  0.19283700  0.80872800  0.50259400  1
  C  C3  1  0.30716300  0.30872800  0.49740700  1
  C  C4  1  0.69283700  0.30872800  0.50259400  1
  C  C5  1  0.68175200  0.74623800  0.36485500  1
  C  C6  1  0.31824700  0.74623800  0.63514600  1
  C  C7  1  0.18175200  0.24623800  0.36485500  1
  C  C8  1  0.81824700  0.24623800  0.63514600  1
  C  C9  1  0.69307900  0.68709200  0.50351200  1
  C  C10  1  0.30692100  0.68709200  0.49648800  1
  C  C11  1  0.19307900  0.18709200  0.50351200  1
  C  C12  1  0.80692100  0.18709200  0.49648800  1
  C  C13  1  0.81850800  0.74949200  0.63591100  1
  C  C14  1  0.18149200  0.74949200  0.36409000  1
  C  C15  1  0.31850800  0.24949200  0.63591100  1
  C  C16  1  0.68149200  0.24949200  0.36409000  1
  C  C17  1  0.60353200  0.77714600  0.25174400  1
  C  C18  1  0.39646800  0.77714600  0.74825600  1
  C  C19  1  0.10353200  0.27714600  0.25174400  1
  C  C20  1  0.89646800  0.27714600  0.74825600  1
  C  C21  1  0.56920100  0.77685800  0.18033200  1
  C  C22  1  0.43079900  0.77685800  0.81966800  1
  C  C23  1  0.06920100  0.27685800  0.18033200  1
  C  C24  1  0.93079900  0.27685800  0.81966800  1
  C  C25  1  0.57399600  0.74496700  0.14530400  1
  C  C26  1  0.42600400  0.74496700  0.85469600  1
  C  C27  1  0.07399600  0.24496700  0.14530400  1
  C  C28  1  0.92600400  0.24496700  0.85469600  1
  C  C29  1  0.61478600  0.71378000  0.18288500  1
  C  C30  1  0.38521400  0.71378000  0.81711500  1
  C  C31  1  0.11478600  0.21378000  0.18288500  1
  C  C32  1  0.88521400  0.21378000  0.81711500  1
  C  C33  1  0.64941800  0.71454600  0.25409900  1
  C  C34  1  0.35058200  0.71454600  0.74590100  1
  C  C35  1  0.14941800  0.21454600  0.25409900  1
  C  C36  1  0.85058200  0.21454600  0.74590100  1
  C  C37  1  0.64387100  0.74592600  0.28899600  1
  C  C38  1  0.35612900  0.74592600  0.71100400  1
  C  C39  1  0.14387100  0.24592600  0.28899600  1
  C  C40  1  0.85612900  0.24592600  0.71100400  1
  C  C41  1  0.46424400  0.74485000  0.93073200  1
  C  C42  1  0.53575600  0.74485000  0.06926800  1
  C  C43  1  0.96424400  0.24485000  0.93073200  1
  C  C44  1  0.03575600  0.24485000  0.06926800  1
  C  C45  1  0.85998100  0.83788700  0.46085700  1
  C  C46  1  0.14001900  0.83788700  0.53914300  1
  C  C47  1  0.35998100  0.33788700  0.46085700  1
  C  C48  1  0.64001900  0.33788700  0.53914300  1
  C  C49  1  0.83949300  0.84247800  0.49631800  1
  C  C50  1  0.16050700  0.84247800  0.50368200  1
  C  C51  1  0.33949300  0.34247800  0.49631800  1
  C  C52  1  0.66050700  0.34247800  0.50368200  1
  C  C53  1  0.85116700  0.88088700  0.53175800  1
  C  C54  1  0.14883300  0.88088700  0.46824200  1
  C  C55  1  0.35116700  0.38088700  0.53175800  1
  C  C56  1  0.64883300  0.38088700  0.46824200  1
  C  C57  1  0.88395900  0.91212500  0.53247400  1
  C  C58  1  0.11604100  0.91212500  0.46752600  1
  C  C59  1  0.38395900  0.41212500  0.53247400  1
  C  C60  1  0.61604100  0.41212500  0.46752600  1
  C  C61  1  0.90291500  0.90631700  0.49477800  1
  C  C62  1  0.09708500  0.90631700  0.50522200  1
  C  C63  1  0.40291500  0.40631700  0.49477800  1
  C  C64  1  0.59708500  0.40631700  0.50522200  1
  C  C65  1  0.88872900  0.86859600  0.45863600  1
  C  C66  1  0.11127100  0.86859600  0.54136500  1
  C  C67  1  0.38872900  0.36859600  0.45863600  1
  C  C68  1  0.61127100  0.36859600  0.54136500  1
  C  C69  1  0.89717200  0.84360200  0.41483100  1
  C  C70  1  0.10282800  0.84360200  0.58516900  1
  C  C71  1  0.39717200  0.34360200  0.41483100  1
  C  C72  1  0.60282800  0.34360200  0.58516900  1
  C  C73  1  0.86284700  0.80759200  0.41682000  1
  C  C74  1  0.13715200  0.80759200  0.58318000  1
  C  C75  1  0.36284700  0.30759200  0.41682000  1
  C  C76  1  0.63715200  0.30759200  0.58318000  1
  C  C77  1  0.83913900  0.76437000  0.74776600  1
  C  C78  1  0.16086100  0.76437000  0.25223400  1
  C  C79  1  0.33913900  0.26437000  0.74776600  1
  C  C80  1  0.66086100  0.26437000  0.25223400  1
  C  C81  1  0.87436700  0.76329900  0.81906500  1
  C  C82  1  0.12563200  0.76329900  0.18093500  1
  C  C83  1  0.37436700  0.26329900  0.81906500  1
  C  C84  1  0.62563200  0.26329900  0.18093500  1
  C  C85  1  0.92798000  0.74834100  0.85501600  1
  C  C86  1  0.07202000  0.74834100  0.14498400  1
  C  C87  1  0.42798000  0.24834100  0.85501600  1
  C  C88  1  0.57202000  0.24834100  0.14498400  1
  C  C89  1  0.94574600  0.73383700  0.81892400  1
  C  C90  1  0.05425400  0.73383700  0.18107600  1
  C  C91  1  0.44574600  0.23383700  0.81892400  1
  C  C92  1  0.55425400  0.23383700  0.18107600  1
  C  C93  1  0.90989800  0.73360800  0.74752800  1
  C  C94  1  0.09010200  0.73360800  0.25247200  1
  C  C95  1  0.40989800  0.23360800  0.74752800  1
  C  C96  1  0.59010200  0.23360800  0.25247200  1
  C  C97  1  0.85658300  0.74921500  0.71166400  1
  C  C98  1  0.14341700  0.74921500  0.28833600  1
  C  C99  1  0.35658300  0.24921500  0.71166400  1
  C  C100  1  0.64341700  0.24921500  0.28833600  1
  C  C101  1  0.03434600  0.74799700  0.06918000  1
  C  C102  1  0.96565400  0.74799700  0.93082000  1
  C  C103  1  0.53434600  0.24799700  0.06918000  1
  C  C104  1  0.46565400  0.24799700  0.93082000  1
  C  C105  1  0.64412000  0.61726200  0.46655400  1
  C  C106  1  0.35587900  0.61726200  0.53344600  1
  C  C107  1  0.14412000  0.11726200  0.46655400  1
  C  C108  1  0.85587900  0.11726200  0.53344600  1
  C  C109  1  0.66120600  0.65371400  0.50616100  1
  C  C110  1  0.33879400  0.65371400  0.49383900  1
  C  C111  1  0.16120600  0.15371400  0.50616100  1
  C  C112  1  0.83879400  0.15371400  0.49383900  1
  C  C113  1  0.64563200  0.65792100  0.54785500  1
  C  C114  1  0.35436800  0.65792100  0.45214500  1
  C  C115  1  0.14563200  0.15792100  0.54785500  1
  C  C116  1  0.85436800  0.15792100  0.45214500  1
  C  C117  1  0.61469800  0.62573300  0.54914400  1
  C  C118  1  0.38530200  0.62573300  0.45085600  1
  C  C119  1  0.11469800  0.12573300  0.54914400  1
  C  C120  1  0.88530200  0.12573300  0.45085600  1
  C  C121  1  0.59658300  0.59018000  0.50599300  1
  C  C122  1  0.40341700  0.59018000  0.49400700  1
  C  C123  1  0.09658300  0.09018000  0.50599300  1
  C  C124  1  0.90341700  0.09018000  0.49400700  1
  C  C125  1  0.61225700  0.58785000  0.46503200  1
  C  C126  1  0.38774300  0.58785000  0.53496800  1
  C  C127  1  0.11225700  0.08785000  0.46503200  1
  C  C128  1  0.88774300  0.08785000  0.53496800  1
  C  C129  1  0.60740700  0.56080600  0.41207500  1
  C  C130  1  0.39259300  0.56080600  0.58792500  1
  C  C131  1  0.10740700  0.06080600  0.41207500  1
  C  C132  1  0.89259300  0.06080600  0.58792500  1
  C  C133  1  0.64456200  0.59565900  0.41343900  1
  C  C134  1  0.35543800  0.59565900  0.58656100  1
  C  C135  1  0.14456200  0.09565900  0.41343900  1
  C  C136  1  0.85543800  0.09565900  0.58656100  1
  C  C137  1  0.43848500  0.55724400  0.49691900  1
  C  C138  1  0.56151500  0.55724400  0.50308200  1
  C  C139  1  0.93848500  0.05724400  0.49691900  1
  C  C140  1  0.06151500  0.05724400  0.50308200  1
  C  C141  1  0.93860200  0.93824500  0.49707400  1
  C  C142  1  0.06139800  0.93824500  0.50292600  1
  C  C143  1  0.43860200  0.43824500  0.49707400  1
  C  C144  1  0.56139800  0.43824500  0.50292600  1
  C  C145  1  0.62445600  0.68154500  0.14980200  1
  C  C146  1  0.37554400  0.68154500  0.85019800  1
  C  C147  1  0.12445600  0.18154500  0.14980200  1
  C  C148  1  0.87554400  0.18154500  0.85019800  1
  N  N1  1  0.51754100  0.70745500  0.03416000  1
  N  N2  1  0.48245900  0.70745500  0.96584000  1
  N  N3  1  0.01754100  0.20745500  0.03416000  1
  N  N4  1  0.98245900  0.20745500  0.96584000  1
  N  N5  1  0.48251600  0.78231600  0.96576600  1
  N  N6  1  0.51748400  0.78231600  0.03423400  1
  N  N7  1  0.98251600  0.28231600  0.96576600  1
  N  N8  1  0.01748400  0.28231600  0.03423400  1
  N  N9  1  0.02087100  0.74783400  0.96610100  1
  N  N10  1  0.97912900  0.74783400  0.03389900  1
  N  N11  1  0.52087100  0.24783400  0.96610100  1
  N  N12  1  0.47912900  0.24783400  0.03389900  1
  N  N13  1  0.05483100  0.74809300  0.03451600  1
  N  N14  1  0.94516900  0.74809300  0.96548400  1
  N  N15  1  0.55483100  0.24809300  0.03451600  1
  N  N16  1  0.44516900  0.24809300  0.96548400  1
  N  N17  1  0.63240300  0.65556000  0.12334900  1
  N  N18  1  0.36759700  0.65556000  0.87665100  1
  N  N19  1  0.13240300  0.15556000  0.12334900  1
  N  N20  1  0.86759700  0.15556000  0.87665100  1
  O  O1  1  0.81880500  0.76839600  0.49532200  1
  O  O2  1  0.18119500  0.76839600  0.50467800  1
  O  O3  1  0.31880500  0.26839600  0.49532200  1
  O  O4  1  0.68119500  0.26839600  0.50467800  1
  O  O5  1  0.76827200  0.82040100  0.50117300  1
  O  O6  1  0.23172800  0.82040100  0.49882700  1
  O  O7  1  0.26827200  0.32040100  0.50117300  1
  O  O8  1  0.73172800  0.32040100  0.49882700  1
  O  O9  1  0.72398600  0.71975200  0.39665900  1
  O  O10  1  0.27601400  0.71975200  0.60334100  1
  O  O11  1  0.22398600  0.21975200  0.39665900  1
  O  O12  1  0.77601400  0.21975200  0.60334100  1
  O  O13  1  0.67252600  0.77298100  0.39787300  1
  O  O14  1  0.32747400  0.77298100  0.60212700  1
  O  O15  1  0.17252600  0.27298100  0.39787300  1
  O  O16  1  0.82747400  0.27298100  0.60212700  1
  O  O17  1  0.73221200  0.67533700  0.50017100  1
  O  O18  1  0.26778800  0.67533700  0.49983000  1
  O  O19  1  0.23221200  0.17533700  0.50017100  1
  O  O20  1  0.76778800  0.17533700  0.49983000  1
  O  O21  1  0.68116500  0.72740500  0.50497100  1
  O  O22  1  0.31883500  0.72740500  0.49502900  1
  O  O23  1  0.18116500  0.22740500  0.50497100  1
  O  O24  1  0.81883500  0.22740500  0.49502900  1
  O  O25  1  0.82798400  0.72306500  0.60287800  1
  O  O26  1  0.17201600  0.72306500  0.39712200  1
  O  O27  1  0.32798400  0.22306500  0.60287800  1
  O  O28  1  0.67201600  0.22306500  0.39712200  1
  O  O29  1  0.77601700  0.77579700  0.60427600  1
  O  O30  1  0.22398300  0.77579700  0.39572500  1
  O  O31  1  0.27601700  0.27579700  0.60427600  1
  O  O32  1  0.72398300  0.27579700  0.39572500  1
  O  O33  1  0.42685800  0.54402600  0.43870500  1
  O  O34  1  0.57314200  0.54402600  0.56129500  1
  O  O35  1  0.92685800  0.04402600  0.43870500  1
  O  O36  1  0.07314200  0.04402600  0.56129500  1
  O  O37  1  0.47991900  0.54222900  0.55782900  1
  O  O38  1  0.52008100  0.54222900  0.44217100  1
  O  O39  1  0.97991900  0.04222900  0.55782900  1
  O  O40  1  0.02008100  0.04222900  0.44217100  1
  O  O41  1  0.92686300  0.95142500  0.43873900  1
  O  O42  1  0.07313700  0.95142500  0.56126200  1
  O  O43  1  0.42686300  0.45142500  0.43873900  1
  O  O44  1  0.57313700  0.45142500  0.56126200  1
  O  O45  1  0.98002200  0.95325300  0.55789600  1
  O  O46  1  0.01997800  0.95325300  0.44210400  1
  O  O47  1  0.48002200  0.45325300  0.55789600  1
  O  O48  1  0.51997800  0.45325300  0.44210400  1
