# Generated by REPEAT Assigner based on pymatgen
data_DB0-m2_o14_o14_f0_pcu.sym.18
_audit_creation_date              2022-05-24
_audit_creation_method            REPEAT_Assigner
_cell_length_a                    15.761948
_cell_length_b                    15.139043
_cell_length_c                    9.477968
_cell_angle_alpha                 90.000000
_cell_angle_beta                  89.982730
_cell_angle_gamma                 90.000000
_cell_volume                      2261.640411
_symmetry_space_group_name_H-M    P1
_symmetry_Int_Tables_number       1
loop_
    _symmetry_equiv_pos_site_id
    _symmetry_equiv_pos_as_xyz
    1  x,y,z
loop_
    _atom_site_type_symbol
    _atom_site_label
    _atom_site_fract_x
    _atom_site_fract_y
    _atom_site_fract_z
    _atom_type_partial_charge
    O   O1    0.402609  0.911980  0.620761  -0.314283
    O   O2    0.403037  0.089437  0.618238  -0.308907
    O   O3    0.903090  0.410875  0.619189  -0.305141
    O   O4    0.902513  0.588338  0.619769  -0.317309
    O   O5    0.404325  0.911196  0.377365  -0.468878
    O   O6    0.405074  0.089181  0.374963  -0.463241
    O   O7    0.904993  0.411112  0.375569  -0.462024
    O   O8    0.904446  0.589100  0.376747  -0.469780
    C   C1    0.378254  0.878933  0.499017  0.517700
    C   C2    0.379039  0.122160  0.496145  0.512375
    C   C3    0.879078  0.378152  0.496922  0.505433
    C   C4    0.878217  0.621390  0.498193  0.523786
    Cu  Cu1   0.491708  0.000600  0.640689  0.456405
    Cu  Cu2   0.991684  0.499903  0.640679  0.457851
    Cu  Cu3   0.493984  0.999682  0.358966  0.701968
    Cu  Cu4   0.994006  0.500443  0.358957  0.702152
    O   O9    0.576357  0.093678  0.619391  -0.363328
    O   O10   0.576101  0.907024  0.621907  -0.357085
    O   O11   0.075894  0.593552  0.620928  -0.358069
    O   O12   0.076518  0.406891  0.620368  -0.365727
    O   O13   0.579014  0.092872  0.381023  -0.450697
    O   O14   0.578032  0.905799  0.383417  -0.447256
    O   O15   0.078227  0.594234  0.382794  -0.449884
    O   O16   0.078861  0.407152  0.381617  -0.449885
    C   C5    0.605895  0.124714  0.501669  0.483442
    C   C6    0.605010  0.874743  0.504445  0.476848
    C   C7    0.105126  0.625487  0.503668  0.480465
    C   C8    0.105780  0.375514  0.502454  0.485409
    H   H1    0.270131  0.160169  0.288813  0.039380
    H   H2    0.269295  0.841470  0.291948  0.039420
    H   H3    0.769016  0.659002  0.291524  0.037805
    H   H4    0.770429  0.340271  0.289152  0.039723
    C   C9    0.355009  0.247907  0.725751  -0.101045
    C   C10   0.353394  0.753663  0.729348  -0.098503
    C   C11   0.853529  0.746410  0.728916  -0.100895
    C   C12   0.854909  0.252139  0.726084  -0.102426
    H   H5    0.420753  0.229998  0.712292  0.056604
    H   H6    0.419087  0.771902  0.716522  0.057723
    H   H7    0.919240  0.728302  0.715837  0.057374
    H   H8    0.920637  0.270172  0.712856  0.057457
    C   C13   0.330701  0.278308  0.855755  0.090320
    C   C14   0.328988  0.722620  0.858922  0.079259
    C   C15   0.829164  0.777079  0.858744  0.079302
    C   C16   0.830567  0.221373  0.855844  0.092065
    C   C17   0.746420  0.800592  0.880005  -0.269466
    C   C18   0.747728  0.198282  0.877214  -0.285508
    C   C19   0.247852  0.301267  0.877411  -0.285336
    C   C20   0.246259  0.698955  0.879870  -0.271825
    H   H9    0.724736  0.816874  0.984773  0.138860
    H   H10   0.726051  0.182040  0.981997  0.141356
    H   H11   0.226217  0.317206  0.982339  0.141801
    H   H12   0.224528  0.682357  0.984483  0.140399
    C   C21   0.691733  0.806241  0.767314  -0.000360
    C   C22   0.692915  0.193044  0.764629  0.012647
    C   C23   0.192993  0.306815  0.764924  0.007604
    C   C24   0.191631  0.693607  0.767066  0.000271
    H   H13   0.626754  0.820240  0.792862  0.070873
    H   H14   0.627872  0.179581  0.790409  0.069474
    H   H15   0.127960  0.320294  0.790786  0.071831
    H   H16   0.126642  0.679605  0.792512  0.070850
    C   C25   0.718415  0.784818  0.631286  0.015531
    C   C26   0.719645  0.214220  0.628511  0.011760
    C   C27   0.219636  0.285843  0.628695  0.016573
    C   C28   0.218402  0.715256  0.631164  0.018960
    C   C29   0.296613  0.241911  0.616223  0.104559
    C   C30   0.295252  0.759556  0.619419  0.097558
    C   C31   0.795296  0.740615  0.619104  0.104749
    C   C32   0.796595  0.258237  0.616454  0.103184
    C   C33   0.313623  0.192274  0.496106  -0.083900
    C   C34   0.312455  0.809240  0.499422  -0.080932
    C   C35   0.812435  0.691116  0.498836  -0.087113
    C   C36   0.813661  0.308057  0.496609  -0.079856
    C   C37   0.259967  0.199962  0.381945  -0.031473
    C   C38   0.258991  0.801638  0.384991  -0.030115
    C   C39   0.758789  0.698752  0.384682  -0.028971
    C   C40   0.760186  0.300399  0.382171  -0.030155
    C   C41   0.690642  0.756014  0.386731  0.005915
    C   C42   0.692155  0.242940  0.383836  0.002356
    C   C43   0.191846  0.257307  0.384078  0.006558
    C   C44   0.190936  0.744261  0.386556  0.005169
    C   C45   0.670152  0.802582  0.509193  -0.072820
    C   C46   0.671444  0.196492  0.506245  -0.073117
    C   C47   0.171273  0.303660  0.506705  -0.078913
    C   C48   0.170312  0.697584  0.508785  -0.073954
    H   H17   0.364913  0.000447  0.134602  0.136384
    H   H18   0.864913  0.498374  0.134629  0.137534
    C   C49   0.649799  0.998808  0.140087  -0.177909
    C   C50   0.149789  0.500300  0.140072  -0.173315
    H   H19   0.657179  0.997901  0.251209  0.140730
    H   H20   0.157181  0.501305  0.251189  0.139809
    C   C51   0.724740  0.999013  0.067785  -0.048844
    C   C52   0.224726  0.499782  0.067765  -0.054828
    C   C53   0.723606  0.999659  0.924764  0.328776
    C   C54   0.223586  0.499608  0.924742  0.334678
    C   C55   0.647735  0.000396  0.854524  -0.261298
    C   C56   0.147712  0.499712  0.854505  -0.267613
    H   H21   0.655672  0.001120  0.743865  0.067781
    H   H22   0.155648  0.500181  0.743843  0.068864
    C   C57   0.569392  0.000401  0.924424  0.225340
    C   C58   0.069371  0.499535  0.924415  0.229657
    C   C59   0.571290  0.999523  0.071925  0.162803
    C   C60   0.071275  0.499982  0.071915  0.159500
    N   N1    0.498002  0.998371  0.147279  -0.078808
    N   N2    0.997989  0.501415  0.147265  -0.077253
    C   C61   0.423965  0.000308  0.076684  -0.069610
    C   C62   0.923956  0.499003  0.076696  -0.071813
    C   C63   0.421234  0.001121  0.930523  0.057585
    C   C64   0.921214  0.498577  0.930534  0.058503
    N   N3    0.493574  0.002071  0.852729  -0.109264
    N   N4    0.993538  0.500165  0.852729  -0.110984
    Br  Br1   0.827458  0.999804  0.821696  -0.054939
    Br  Br2   0.327435  0.499677  0.821663  -0.055092
    Br  Br3   0.311044  0.002363  0.846804  -0.022045
    Br  Br4   0.811019  0.497863  0.846817  -0.022603
    Br  Br5   0.409493  0.279983  0.008241  -0.045845
    Br  Br6   0.407491  0.720812  0.011814  -0.043467
    Br  Br7   0.907767  0.778600  0.011502  -0.041190
    Br  Br8   0.909271  0.219404  0.008446  -0.047737
    Br  Br9   0.620194  0.755473  0.222345  -0.015131
    Br  Br10  0.621852  0.243142  0.219331  -0.013447
    Br  Br11  0.121310  0.257008  0.219822  -0.013589
    Br  Br12  0.120727  0.744725  0.221913  -0.015657
    Br  Br13  0.829918  0.998006  0.166951  -0.063938
    Br  Br14  0.329909  0.500184  0.166927  -0.062656
