# generated using pymatgen
data_ZnH33C38N10O11
_symmetry_space_group_name_H-M   'P 1'
_cell_length_a   15.08190900
_cell_length_b   13.90246700
_cell_length_c   19.36642500
_cell_angle_alpha   90.00000000
_cell_angle_beta   89.99543900
_cell_angle_gamma   90.00000000
_symmetry_Int_Tables_number   1
_chemical_formula_structural   ZnH33C38N10O11
_chemical_formula_sum   'Zn2 H66 C76 N20 O22'
_cell_volume   4060.66952218
_cell_formula_units_Z   2
loop_
 _symmetry_equiv_pos_site_id
 _symmetry_equiv_pos_as_xyz
  1  'x, y, z'
loop_
 _atom_site_type_symbol
 _atom_site_label
 _atom_site_symmetry_multiplicity
 _atom_site_fract_x
 _atom_site_fract_y
 _atom_site_fract_z
 _atom_site_occupancy
  Zn  Zn1  1  0.49931400  0.61414700  0.50052100  1
  Zn  Zn2  1  0.49900900  0.39528300  0.50007000  1
  H  H1  1  0.52795900  0.65727300  0.28071700  1
  H  H2  1  0.50255200  0.35064200  0.72020100  1
  H  H3  1  0.48420900  0.65707100  0.72022800  1
  H  H4  1  0.48559300  0.35338200  0.28018700  1
  H  H5  1  0.77334700  0.48974800  0.39740200  1
  H  H6  1  0.22511600  0.49928700  0.60390900  1
  H  H7  1  0.59600100  0.76400200  0.42381000  1
  H  H8  1  0.40142400  0.24539300  0.57612900  1
  H  H9  1  0.40246000  0.76421500  0.57735000  1
  H  H10  1  0.59555400  0.24505500  0.42296300  1
  H  H11  1  0.58924600  0.71321600  0.16060800  1
  H  H12  1  0.50937300  0.85631400  0.08621900  1
  H  H13  1  0.51351000  0.87256400  0.17901900  1
  H  H14  1  0.40852900  0.87960600  0.13409300  1
  H  H15  1  0.45819700  0.28141200  0.84194700  1
  H  H16  1  0.57149100  0.16212700  0.91243200  1
  H  H17  1  0.67054500  0.16320800  0.85963400  1
  H  H18  1  0.56339900  0.14380600  0.82003400  1
  H  H19  1  0.45377300  0.73243500  0.83187900  1
  H  H20  1  0.54753000  0.84081700  0.92549500  1
  H  H21  1  0.57294900  0.85909800  0.83496800  1
  H  H22  1  0.66065700  0.83008100  0.89518900  1
  H  H23  1  0.50607500  0.27320100  0.16799200  1
  H  H24  1  0.39796300  0.18816200  0.07127700  1
  H  H25  1  0.28802700  0.22272300  0.09949800  1
  H  H26  1  0.36662100  0.17478100  0.16110300  1
  H  H27  1  0.71311900  0.49536500  0.63819300  1
  H  H28  1  0.67338100  0.60342400  0.72373900  1
  H  H29  1  0.65366600  0.71101400  0.67303300  1
  H  H30  1  0.74336300  0.70721300  0.73505800  1
  H  H31  1  0.28508000  0.48593200  0.36308900  1
  H  H32  1  0.32616800  0.58913200  0.27490300  1
  H  H33  1  0.34501800  0.69966500  0.32242800  1
  H  H34  1  0.25586300  0.69191700  0.26013700  1
  H  H35  1  0.93716000  0.53985000  0.73014000  1
  H  H36  1  0.82230700  0.42660300  0.80296500  1
  H  H37  1  0.93875600  0.40268200  0.81781100  1
  H  H38  1  0.86528000  0.30577700  0.79285200  1
  H  H39  1  0.06126400  0.52206800  0.26962700  1
  H  H40  1  0.17832500  0.40386700  0.20243400  1
  H  H41  1  0.06213600  0.37847100  0.18752400  1
  H  H42  1  0.13547700  0.28392500  0.21699000  1
  H  H43  1  0.08630000  0.54700800  0.72216800  1
  H  H44  1  0.15072600  0.46246800  0.80951400  1
  H  H45  1  0.21814400  0.36272500  0.78135300  1
  H  H46  1  0.10439400  0.34255100  0.80690600  1
  H  H47  1  0.91210600  0.53169800  0.27785100  1
  H  H48  1  0.84911600  0.44182300  0.19278100  1
  H  H49  1  0.78163200  0.34374500  0.22365600  1
  H  H50  1  0.89558300  0.32225000  0.19921600  1
  H  H51  1  0.32442300  0.92650600  0.68206600  1
  H  H52  1  0.19137900  0.85295100  0.70229300  1
  H  H53  1  0.14967000  0.77986500  0.63241000  1
  H  H54  1  0.11741700  0.90482200  0.63890300  1
  H  H55  1  0.72817900  0.08338300  0.35981800  1
  H  H56  1  0.74949600  0.15277000  0.25414100  1
  H  H57  1  0.65730900  0.22196400  0.22136300  1
  H  H58  1  0.66700000  0.09586400  0.19999300  1
  H  H59  1  0.66980500  0.92509000  0.31660600  1
  H  H60  1  0.80322500  0.85320800  0.29493600  1
  H  H61  1  0.84767400  0.78201000  0.36479800  1
  H  H62  1  0.87817500  0.90729100  0.35664700  1
  H  H63  1  0.26513900  0.08318800  0.63525300  1
  H  H64  1  0.23805300  0.15455500  0.73932700  1
  H  H65  1  0.32742100  0.22697800  0.77297400  1
  H  H66  1  0.31904200  0.10162400  0.79685100  1
  C  C1  1  0.32583900  0.50496900  0.49607000  1
  C  C2  1  0.67249400  0.50442800  0.50462500  1
  C  C3  1  0.50470000  0.50519200  0.36511900  1
  C  C4  1  0.49375400  0.50418200  0.63549200  1
  C  C5  1  0.51726900  0.59041800  0.25349000  1
  C  C6  1  0.49999300  0.41855200  0.74728400  1
  C  C7  1  0.48891500  0.58935000  0.74735500  1
  C  C8  1  0.49486000  0.42066000  0.25319200  1
  C  C9  1  0.51457900  0.59149100  0.18224300  1
  C  C10  1  0.50467700  0.41831000  0.81849100  1
  C  C11  1  0.49433000  0.59037300  0.81846600  1
  C  C12  1  0.49179900  0.42095100  0.18198600  1
  C  C13  1  0.50236600  0.50651600  0.14585700  1
  C  C14  1  0.50107600  0.50441100  0.85510800  1
  C  C15  1  0.50630700  0.50536700  0.28934600  1
  C  C16  1  0.49319400  0.50390300  0.71130400  1
  C  C17  1  0.50154800  0.50469700  0.93145100  1
  C  C18  1  0.50294800  0.50657700  0.06991700  1
  C  C19  1  0.81319100  0.49435500  0.44358100  1
  C  C20  1  0.18523600  0.49996600  0.55763300  1
  C  C21  1  0.76945400  0.50358700  0.50515900  1
  C  C22  1  0.22890200  0.50428600  0.49575600  1
  C  C23  1  0.81657800  0.51243300  0.56591000  1
  C  C24  1  0.18176300  0.50772600  0.43477400  1
  C  C25  1  0.90930300  0.50395900  0.56518400  1
  C  C26  1  0.08908200  0.49915400  0.43586000  1
  C  C27  1  0.95316800  0.49846400  0.50197400  1
  C  C28  1  0.04523200  0.49854300  0.49919000  1
  C  C29  1  0.90481400  0.49430400  0.44130000  1
  C  C30  1  0.09361000  0.49935500  0.55992200  1
  C  C31  1  0.95902700  0.50052700  0.62614100  1
  C  C32  1  0.03941400  0.49101500  0.37512600  1
  C  C33  1  0.05067400  0.49824500  0.62308500  1
  C  C34  1  0.94777800  0.48887400  0.37825300  1
  C  C35  1  0.55383600  0.80546500  0.45761300  1
  C  C36  1  0.44423700  0.20393800  0.54281800  1
  C  C37  1  0.44463200  0.80557800  0.54348800  1
  C  C38  1  0.55275600  0.20377400  0.45640700  1
  C  C39  1  0.44255100  0.90519400  0.54346900  1
  C  C40  1  0.55309000  0.10414000  0.45513800  1
  C  C41  1  0.55515800  0.90507900  0.45688200  1
  C  C42  1  0.44362700  0.10430000  0.54413500  1
  C  C43  1  0.49878100  0.95506700  0.50008300  1
  C  C44  1  0.49856600  0.05429800  0.49983800  1
  C  C45  1  0.38544700  0.95496400  0.58687000  1
  C  C46  1  0.60808800  0.05431200  0.41014700  1
  C  C47  1  0.61112700  0.95470500  0.41251400  1
  C  C48  1  0.38773200  0.05462400  0.58856300  1
  C  C49  1  0.46078800  0.73797400  0.14525300  1
  C  C50  1  0.47396800  0.84328700  0.13553900  1
  C  C51  1  0.58953200  0.28833700  0.85139300  1
  C  C52  1  0.59927600  0.18265900  0.86149900  1
  C  C53  1  0.57598900  0.71293600  0.86880000  1
  C  C54  1  0.59009500  0.81738000  0.88192500  1
  C  C55  1  0.39147100  0.31904800  0.12854800  1
  C  C56  1  0.35903900  0.21984800  0.11421200  1
  C  C57  1  0.76637600  0.62862300  0.64235400  1
  C  C58  1  0.70512300  0.66469100  0.69684800  1
  C  C59  1  0.23217600  0.61892000  0.35491000  1
  C  C60  1  0.29392200  0.65178400  0.29975200  1
  C  C61  1  0.89898700  0.40331800  0.71203600  1
  C  C62  1  0.88016700  0.38332900  0.78613500  1
  C  C63  1  0.10035400  0.38751000  0.29346500  1
  C  C64  1  0.12029400  0.36182400  0.22045000  1
  C  C65  1  0.12123400  0.40787600  0.70810300  1
  C  C66  1  0.15030500  0.39332800  0.78099900  1
  C  C67  1  0.87793100  0.39327500  0.29588700  1
  C  C68  1  0.84942600  0.37442200  0.22336900  1
  C  C69  1  0.24912800  0.88070300  0.60269200  1
  C  C70  1  0.17232700  0.85298800  0.64700100  1
  C  C71  1  0.62366600  0.12540400  0.30264200  1
  C  C72  1  0.67801700  0.15044300  0.24085800  1
  C  C73  1  0.74776000  0.88191800  0.39518300  1
  C  C74  1  0.82372100  0.85452200  0.34990500  1
  C  C75  1  0.36645400  0.12792000  0.69482000  1
  C  C76  1  0.30892200  0.15424700  0.75455000  1
  N  N1  1  0.54798800  0.43857200  0.03510900  1
  N  N2  1  0.45616700  0.57233100  0.96644700  1
  N  N3  1  0.54748900  0.43790100  0.96684700  1
  N  N4  1  0.45695500  0.57335200  0.03468300  1
  N  N5  1  0.49947800  0.75801100  0.50077200  1
  N  N6  1  0.49877400  0.25140500  0.49977500  1
  N  N7  1  0.53142700  0.67859400  0.14727100  1
  N  N8  1  0.50840500  0.32905300  0.85298700  1
  N  N9  1  0.49438400  0.68027700  0.85239600  1
  N  N10  1  0.47673600  0.33333333  0.14706100  1
  N  N11  1  0.76964900  0.53386600  0.62715400  1
  N  N12  1  0.22856800  0.52513000  0.37284100  1
  N  N13  1  0.91755300  0.49383100  0.69147400  1
  N  N14  1  0.08097200  0.47936300  0.31017500  1
  N  N15  1  0.10067100  0.49673400  0.68487100  1
  N  N16  1  0.89783300  0.48350800  0.31656400  1
  N  N17  1  0.32776400  0.90428300  0.63147300  1
  N  N18  1  0.66309200  0.10488400  0.36351200  1
  N  N19  1  0.66810300  0.90385800  0.36746800  1
  N  N20  1  0.33015000  0.10536600  0.63317100  1
  O  O1  1  0.36718500  0.58798700  0.49722500  1
  O  O2  1  0.63110100  0.42146600  0.50305300  1
  O  O3  1  0.63136900  0.58759400  0.50387600  1
  O  O4  1  0.36700600  0.42191400  0.49713000  1
  O  O5  1  0.50364600  0.58804700  0.39763800  1
  O  O6  1  0.49521000  0.42134800  0.60296400  1
  O  O7  1  0.49507400  0.58730400  0.60330300  1
  O  O8  1  0.50285500  0.42212500  0.39729000  1
  O  O9  1  0.38600300  0.70560100  0.15071000  1
  O  O10  1  0.65514000  0.33800800  0.84239100  1
  O  O11  1  0.63845500  0.65751800  0.87258200  1
  O  O12  1  0.34048600  0.38681500  0.12409400  1
  O  O13  1  0.81443800  0.68513200  0.61206500  1
  O  O14  1  0.18402600  0.67720700  0.38331900  1
  O  O15  1  0.89721700  0.33787300  0.67014900  1
  O  O16  1  0.10206700  0.32550800  0.33797100  1
  O  O17  1  0.11644700  0.33888800  0.66940800  1
  O  O18  1  0.88280100  0.32659500  0.33660700  1
  O  O19  1  0.24035700  0.88226500  0.54011500  1
  O  O20  1  0.54311100  0.12273200  0.29768300  1
  O  O21  1  0.75813800  0.88471000  0.45758800  1
  O  O22  1  0.44673800  0.12644200  0.70208600  1
