# generated using pymatgen
data_Zn3H32(C2O)18
_symmetry_space_group_name_H-M   'P 1'
_cell_length_a   38.03788000
_cell_length_b   21.86833200
_cell_length_c   21.77789600
_cell_angle_alpha   90.00000000
_cell_angle_beta   122.79595700
_cell_angle_gamma   90.00000000
_symmetry_Int_Tables_number   1
_chemical_formula_structural   Zn3H32(C2O)18
_chemical_formula_sum   'Zn12 H128 C144 O72'
_cell_volume   15227.89106338
_cell_formula_units_Z   4
loop_
 _symmetry_equiv_pos_site_id
 _symmetry_equiv_pos_as_xyz
  1  'x, y, z'
loop_
 _atom_site_type_symbol
 _atom_site_label
 _atom_site_symmetry_multiplicity
 _atom_site_fract_x
 _atom_site_fract_y
 _atom_site_fract_z
 _atom_site_occupancy
  Zn  Zn1  1  0.99979200  0.92817400  0.99974500  1
  Zn  Zn2  1  0.49979200  0.42817400  0.99974500  1
  Zn  Zn3  1  0.99984800  0.06678700  0.99999600  1
  Zn  Zn4  1  0.49984800  0.56678700  0.99999600  1
  Zn  Zn5  1  0.49922800  0.99781900  0.56889400  1
  Zn  Zn6  1  0.50044800  0.99804900  0.43102100  1
  Zn  Zn7  1  0.99922800  0.49781900  0.56889400  1
  Zn  Zn8  1  0.00044800  0.49804900  0.43102100  1
  Zn  Zn9  1  0.95258700  0.99673200  0.45569600  1
  Zn  Zn10  1  0.04728800  0.99666400  0.54422500  1
  Zn  Zn11  1  0.45258700  0.49673200  0.45569600  1
  Zn  Zn12  1  0.54728800  0.49666400  0.54422500  1
  H  H1  1  0.28168900  0.95126700  0.37083900  1
  H  H2  1  0.71780500  0.95101100  0.62872900  1
  H  H3  1  0.78168900  0.45126700  0.37083900  1
  H  H4  1  0.21780500  0.45101100  0.62872900  1
  H  H5  1  0.21107600  0.06153700  0.28731800  1
  H  H6  1  0.78880200  0.06073100  0.71281300  1
  H  H7  1  0.71107600  0.56153700  0.28731800  1
  H  H8  1  0.28880200  0.56073100  0.71281300  1
  H  H9  1  0.27695000  0.05201600  0.35775700  1
  H  H10  1  0.72289100  0.05170600  0.64234800  1
  H  H11  1  0.77695000  0.55201600  0.35775700  1
  H  H12  1  0.22289100  0.55170600  0.64234800  1
  H  H13  1  0.21493600  0.95215500  0.12841600  1
  H  H14  1  0.78460000  0.95103100  0.87115900  1
  H  H15  1  0.71493600  0.45215500  0.12841600  1
  H  H16  1  0.28460000  0.45103100  0.87115900  1
  H  H17  1  0.21989600  0.03369400  0.12719300  1
  H  H18  1  0.77992000  0.03259300  0.87282400  1
  H  H19  1  0.71989600  0.53369400  0.12719300  1
  H  H20  1  0.27992000  0.53259300  0.87282400  1
  H  H21  1  0.28339900  0.93898300  0.20763100  1
  H  H22  1  0.71609100  0.93839100  0.79190700  1
  H  H23  1  0.78339900  0.43898300  0.20763100  1
  H  H24  1  0.21609100  0.43839100  0.79190700  1
  H  H25  1  0.21543100  0.90292700  0.22998300  1
  H  H26  1  0.78391300  0.90202200  0.76930200  1
  H  H27  1  0.71543100  0.40292700  0.22998300  1
  H  H28  1  0.28391300  0.40202200  0.76930200  1
  H  H29  1  0.28528400  0.90256600  0.30842400  1
  H  H30  1  0.71405900  0.90219800  0.69089900  1
  H  H31  1  0.78528400  0.40256600  0.30842400  1
  H  H32  1  0.21405900  0.40219800  0.69089900  1
  H  H33  1  0.29091200  0.01593800  0.19270600  1
  H  H34  1  0.70884600  0.01535200  0.80725500  1
  H  H35  1  0.79091200  0.51593800  0.19270600  1
  H  H36  1  0.20884600  0.51535200  0.80725500  1
  H  H37  1  0.96737700  0.08293200  0.16302600  1
  H  H38  1  0.03564900  0.08255500  0.83954100  1
  H  H39  1  0.46737700  0.58293200  0.16302600  1
  H  H40  1  0.53564900  0.58255500  0.83954100  1
  H  H41  1  0.03042100  0.91141300  0.33571900  1
  H  H42  1  0.96584800  0.91614000  0.66136100  1
  H  H43  1  0.53042100  0.41141300  0.33571900  1
  H  H44  1  0.46584800  0.41614000  0.66136100  1
  H  H45  1  0.02934600  0.90983300  0.22241800  1
  H  H46  1  0.96673400  0.91521700  0.77443300  1
  H  H47  1  0.52934600  0.40983300  0.22241800  1
  H  H48  1  0.46673400  0.41521700  0.77443300  1
  H  H49  1  0.45329900  0.19090700  0.38647000  1
  H  H50  1  0.54563500  0.19179400  0.61522200  1
  H  H51  1  0.95329900  0.69090700  0.38647000  1
  H  H52  1  0.04563500  0.69179400  0.61522200  1
  H  H53  1  0.95197700  0.80287400  0.38640900  1
  H  H54  1  0.04648100  0.80377800  0.61407900  1
  H  H55  1  0.45197700  0.30287400  0.38640900  1
  H  H56  1  0.54648100  0.30377800  0.61407900  1
  H  H57  1  0.91221200  0.03468800  0.21939800  1
  H  H58  1  0.90614700  0.11148900  0.18358900  1
  H  H59  1  0.90526200  0.09805600  0.26477800  1
  H  H60  1  0.08929900  0.02983300  0.78288100  1
  H  H61  1  0.09749900  0.10610000  0.82105600  1
  H  H62  1  0.09891200  0.09274800  0.74039200  1
  H  H63  1  0.41221200  0.53468800  0.21939800  1
  H  H64  1  0.40614700  0.61148900  0.18358900  1
  H  H65  1  0.40526200  0.59805600  0.26477800  1
  H  H66  1  0.58929900  0.52983300  0.78288100  1
  H  H67  1  0.59749900  0.60610000  0.82105600  1
  H  H68  1  0.59891200  0.59274800  0.74039200  1
  H  H69  1  0.52082500  0.80487000  0.39001300  1
  H  H70  1  0.57523400  0.79264500  0.42126000  1
  H  H71  1  0.55683900  0.86842600  0.42114900  1
  H  H72  1  0.47978300  0.80531000  0.60831800  1
  H  H73  1  0.42546500  0.79245900  0.57729000  1
  H  H74  1  0.44337500  0.86839600  0.57653000  1
  H  H75  1  0.02082500  0.30487000  0.39001300  1
  H  H76  1  0.07523400  0.29264500  0.42126000  1
  H  H77  1  0.05683900  0.36842600  0.42114900  1
  H  H78  1  0.97978300  0.30531000  0.60831800  1
  H  H79  1  0.92546500  0.29245900  0.57729000  1
  H  H80  1  0.94337500  0.36839600  0.57653000  1
  H  H81  1  0.01455200  0.19071600  0.38639700  1
  H  H82  1  0.04209100  0.11875900  0.41703300  1
  H  H83  1  0.06698900  0.18387800  0.40577900  1
  H  H84  1  0.98694600  0.19120200  0.61334400  1
  H  H85  1  0.95981400  0.11889400  0.58363000  1
  H  H86  1  0.93462900  0.18388300  0.59440900  1
  H  H87  1  0.51455200  0.69071600  0.38639700  1
  H  H88  1  0.54209100  0.61875900  0.41703300  1
  H  H89  1  0.56698900  0.68387800  0.40577900  1
  H  H90  1  0.48694600  0.69120200  0.61334400  1
  H  H91  1  0.45981400  0.61889400  0.58363000  1
  H  H92  1  0.43462900  0.68388300  0.59440900  1
  H  H93  1  0.22270600  0.85705700  0.32928600  1
  H  H94  1  0.16844400  0.87355700  0.25650900  1
  H  H95  1  0.18679500  0.88783600  0.35043900  1
  H  H96  1  0.77646600  0.85640200  0.66974100  1
  H  H97  1  0.83078600  0.87246800  0.74258600  1
  H  H98  1  0.81246900  0.88704200  0.64872700  1
  H  H99  1  0.72270600  0.35705700  0.32928600  1
  H  H100  1  0.66844400  0.37355700  0.25650900  1
  H  H101  1  0.68679500  0.38783600  0.35043900  1
  H  H102  1  0.27646600  0.35640200  0.66974100  1
  H  H103  1  0.33078600  0.37246800  0.74258600  1
  H  H104  1  0.31246900  0.38704200  0.64872700  1
  H  H105  1  0.21720200  0.16318200  0.28859500  1
  H  H106  1  0.16421500  0.13473400  0.22319900  1
  H  H107  1  0.18653800  0.19446700  0.19836600  1
  H  H108  1  0.78303500  0.16240900  0.71210000  1
  H  H109  1  0.83592300  0.13352800  0.77732600  1
  H  H110  1  0.81381600  0.19333000  0.80249900  1
  H  H111  1  0.71720200  0.66318200  0.28859500  1
  H  H112  1  0.66421500  0.63473400  0.22319900  1
  H  H113  1  0.68653800  0.69446700  0.19836600  1
  H  H114  1  0.28303500  0.66240900  0.71210000  1
  H  H115  1  0.33592300  0.63352800  0.77732600  1
  H  H116  1  0.31381600  0.69333000  0.80249900  1
  H  H117  1  0.27061500  0.11177900  0.19778000  1
  H  H118  1  0.32684600  0.10169200  0.26275100  1
  H  H119  1  0.30258800  0.17431800  0.24904200  1
  H  H120  1  0.72945900  0.11109700  0.80267200  1
  H  H121  1  0.67319300  0.10142800  0.73766200  1
  H  H122  1  0.69768700  0.17390400  0.75174900  1
  H  H123  1  0.77061500  0.61177900  0.19778000  1
  H  H124  1  0.82684600  0.60169200  0.26275100  1
  H  H125  1  0.80258800  0.67431800  0.24904200  1
  H  H126  1  0.22945900  0.61109700  0.80267200  1
  H  H127  1  0.17319300  0.60142800  0.73766200  1
  H  H128  1  0.19768700  0.67390400  0.75174900  1
  C  C1  1  0.99826400  0.99604600  0.11844100  1
  C  C2  1  0.00134400  0.99887700  0.88129500  1
  C  C3  1  0.49826400  0.49604600  0.11844100  1
  C  C4  1  0.50134400  0.49887700  0.88129500  1
  C  C5  1  0.08162500  0.99862600  0.07995100  1
  C  C6  1  0.91803600  0.99635300  0.91979500  1
  C  C7  1  0.58162500  0.49862600  0.07995100  1
  C  C8  1  0.41803600  0.49635300  0.91979500  1
  C  C9  1  0.22497300  0.94544700  0.26293500  1
  C  C10  1  0.77451000  0.94466200  0.73658000  1
  C  C11  1  0.72497300  0.44544700  0.26293500  1
  C  C12  1  0.27451000  0.44466200  0.73658000  1
  C  C13  1  0.22419700  0.05928900  0.25271600  1
  C  C14  1  0.77568100  0.05847800  0.74741700  1
  C  C15  1  0.72419700  0.55928900  0.25271600  1
  C  C16  1  0.27568100  0.55847800  0.74741700  1
  C  C17  1  0.27167600  0.05803300  0.30287500  1
  C  C18  1  0.72819700  0.05758000  0.69727000  1
  C  C19  1  0.77167600  0.55803300  0.30287500  1
  C  C20  1  0.22819700  0.55758000  0.69727000  1
  C  C21  1  0.37307600  0.99795900  0.37604100  1
  C  C22  1  0.62660700  0.99808500  0.62384700  1
  C  C23  1  0.87307600  0.49795900  0.37604100  1
  C  C24  1  0.12660700  0.49808500  0.62384700  1
  C  C25  1  0.20997000  0.99945100  0.21029300  1
  C  C26  1  0.78970500  0.99847200  0.78951200  1
  C  C27  1  0.70997000  0.49945100  0.21029300  1
  C  C28  1  0.28970500  0.49847200  0.78951200  1
  C  C29  1  0.27246000  0.94653900  0.31325700  1
  C  C30  1  0.72703000  0.94611200  0.68629200  1
  C  C31  1  0.77246000  0.44653900  0.31325700  1
  C  C32  1  0.22703000  0.44611200  0.68629200  1
  C  C33  1  0.28956600  0.99912200  0.29138700  1
  C  C34  1  0.71011500  0.99873800  0.70846400  1
  C  C35  1  0.78956600  0.49912200  0.29138700  1
  C  C36  1  0.21011500  0.49873800  0.70846400  1
  C  C37  1  0.27516400  0.98669100  0.21206900  1
  C  C38  1  0.72448700  0.98606400  0.78771900  1
  C  C39  1  0.77516400  0.48669100  0.21206900  1
  C  C40  1  0.22448700  0.48606400  0.78771900  1
  C  C41  1  0.22807800  0.99339800  0.16331100  1
  C  C42  1  0.77159400  0.99241700  0.83648800  1
  C  C43  1  0.72807800  0.49339800  0.16331100  1
  C  C44  1  0.27159400  0.49241700  0.83648800  1
  C  C45  1  0.33537300  0.99836700  0.33835300  1
  C  C46  1  0.66430800  0.99829700  0.66152000  1
  C  C47  1  0.83537300  0.49836700  0.33835300  1
  C  C48  1  0.16430800  0.49829700  0.66152000  1
  C  C49  1  0.16421700  0.99869600  0.16345200  1
  C  C50  1  0.83545100  0.99734100  0.83632400  1
  C  C51  1  0.66421700  0.49869600  0.16345200  1
  C  C52  1  0.33545100  0.49734100  0.83632400  1
  C  C53  1  0.12653700  0.99845700  0.12513400  1
  C  C54  1  0.87312800  0.99672100  0.87462400  1
  C  C55  1  0.62653700  0.49845700  0.12513400  1
  C  C56  1  0.37312800  0.49672100  0.87462400  1
  C  C57  1  0.98086000  0.04480800  0.20039100  1
  C  C58  1  0.02071400  0.04549800  0.80096500  1
  C  C59  1  0.48086000  0.54480800  0.20039100  1
  C  C60  1  0.52071400  0.54549800  0.80096500  1
  C  C61  1  0.97960400  0.04407000  0.26245700  1
  C  C62  1  0.02208300  0.04423500  0.73901000  1
  C  C63  1  0.47960400  0.54407000  0.26245700  1
  C  C64  1  0.52208300  0.54423500  0.73901000  1
  C  C65  1  0.99799800  0.99646200  0.31152600  1
  C  C66  1  0.00183200  0.99806900  0.68838000  1
  C  C67  1  0.49799800  0.49646200  0.31152600  1
  C  C68  1  0.50183200  0.49806900  0.68838000  1
  C  C69  1  0.01622800  0.94877700  0.29735800  1
  C  C70  1  0.98153000  0.95238100  0.70087600  1
  C  C71  1  0.51622800  0.44877700  0.29735800  1
  C  C72  1  0.48153000  0.45238100  0.70087600  1
  C  C73  1  0.01532400  0.94780700  0.23333600  1
  C  C74  1  0.98232500  0.95172900  0.76480000  1
  C  C75  1  0.51532400  0.44780700  0.23333600  1
  C  C76  1  0.48232500  0.45172900  0.76480000  1
  C  C77  1  0.99802000  0.99614900  0.18511800  1
  C  C78  1  0.00157600  0.99862500  0.81461000  1
  C  C79  1  0.49802000  0.49614900  0.18511800  1
  C  C80  1  0.50157600  0.49862500  0.81461000  1
  C  C81  1  0.49947900  0.18422000  0.50088300  1
  C  C82  1  0.99947900  0.68422000  0.50088300  1
  C  C83  1  0.50005100  0.87813500  0.49871800  1
  C  C84  1  0.00005100  0.37813500  0.49871800  1
  C  C85  1  0.41802000  0.99775100  0.41952600  1
  C  C86  1  0.58166600  0.99804100  0.58037400  1
  C  C87  1  0.91802000  0.49775100  0.41952600  1
  C  C88  1  0.08166600  0.49804100  0.58037400  1
  C  C89  1  0.49962900  0.11749200  0.50120500  1
  C  C90  1  0.99962900  0.61749200  0.50120500  1
  C  C91  1  0.99906000  0.87717300  0.49980000  1
  C  C92  1  0.49906000  0.37717300  0.49980000  1
  C  C93  1  0.99819200  0.99632300  0.37845000  1
  C  C94  1  0.00167100  0.99739700  0.62144400  1
  C  C95  1  0.49819200  0.49632300  0.37845000  1
  C  C96  1  0.50167100  0.49739700  0.62144400  1
  C  C97  1  0.00080500  0.11660300  0.50014200  1
  C  C98  1  0.50080500  0.61660300  0.50014200  1
  C  C99  1  0.53087100  0.77951100  0.49615600  1
  C  C100  1  0.46982900  0.77929800  0.50241100  1
  C  C101  1  0.03087100  0.27951100  0.49615600  1
  C  C102  1  0.96982900  0.27929800  0.50241100  1
  C  C103  1  0.03106100  0.21612500  0.49637800  1
  C  C104  1  0.97003000  0.21591600  0.50292400  1
  C  C105  1  0.53106100  0.71612500  0.49637800  1
  C  C106  1  0.47003000  0.71591600  0.50292400  1
  C  C107  1  0.00062400  0.18397300  0.49977900  1
  C  C108  1  0.50062400  0.68397300  0.49977900  1
  C  C109  1  0.50024400  0.81108300  0.49907300  1
  C  C110  1  0.00024400  0.31108300  0.49907300  1
  C  C111  1  0.47368900  0.21557700  0.43663800  1
  C  C112  1  0.52513400  0.21607500  0.56479600  1
  C  C113  1  0.97368900  0.71557700  0.43663800  1
  C  C114  1  0.02513400  0.71607500  0.56479600  1
  C  C115  1  0.97271100  0.77859300  0.43672000  1
  C  C116  1  0.02584600  0.77909800  0.56404100  1
  C  C117  1  0.47271100  0.27859300  0.43672000  1
  C  C118  1  0.52584600  0.27909800  0.56404100  1
  C  C119  1  0.99921100  0.81044900  0.50020800  1
  C  C120  1  0.49921100  0.31044900  0.50020800  1
  C  C121  1  0.91943800  0.08368500  0.23401500  1
  C  C122  1  0.08376400  0.07929500  0.76982800  1
  C  C123  1  0.41943800  0.58368500  0.23401500  1
  C  C124  1  0.58376400  0.57929500  0.76982800  1
  C  C125  1  0.55349700  0.81936100  0.42982500  1
  C  C126  1  0.44701700  0.81931700  0.56838500  1
  C  C127  1  0.05349700  0.31936100  0.42982500  1
  C  C128  1  0.94701700  0.31931700  0.56838500  1
  C  C129  1  0.04555300  0.16907300  0.42260800  1
  C  C130  1  0.95605100  0.16914800  0.57752000  1
  C  C131  1  0.54555300  0.66907300  0.42260800  1
  C  C132  1  0.45605100  0.66914800  0.57752000  1
  C  C133  1  0.19583500  0.88864000  0.30984800  1
  C  C134  1  0.80344000  0.88780500  0.68933400  1
  C  C135  1  0.69583500  0.38864000  0.30984800  1
  C  C136  1  0.30344000  0.38780500  0.68933400  1
  C  C137  1  0.19376800  0.15180900  0.23058400  1
  C  C138  1  0.80643300  0.15078200  0.77004500  1
  C  C139  1  0.69376800  0.65180900  0.23058400  1
  C  C140  1  0.30643300  0.65078200  0.77004500  1
  C  C141  1  0.29797500  0.12455600  0.25162500  1
  C  C142  1  0.70213600  0.12412500  0.74890000  1
  C  C143  1  0.79797500  0.62455600  0.25162500  1
  C  C144  1  0.20213600  0.62412500  0.74890000  1
  O  O1  1  0.99795100  0.94319000  0.08976000  1
  O  O2  1  0.99966600  0.94618300  0.90834700  1
  O  O3  1  0.49795100  0.44319000  0.08976000  1
  O  O4  1  0.49966600  0.44618300  0.90834700  1
  O  O5  1  0.99915000  0.04881000  0.09066700  1
  O  O6  1  0.00251300  0.05173000  0.91075700  1
  O  O7  1  0.49915000  0.54881000  0.09066700  1
  O  O8  1  0.50251300  0.55173000  0.91075700  1
  O  O9  1  0.06197500  0.94591100  0.06145600  1
  O  O10  1  0.93728900  0.94342500  0.94070300  1
  O  O11  1  0.56197500  0.44591100  0.06145600  1
  O  O12  1  0.43728900  0.44342500  0.94070300  1
  O  O13  1  0.06234300  0.05155600  0.06014300  1
  O  O14  1  0.93770200  0.04902900  0.93723200  1
  O  O15  1  0.56234300  0.55155600  0.06014300  1
  O  O16  1  0.43770200  0.54902900  0.93723200  1
  O  O17  1  0.50048000  0.90691000  0.55198400  1
  O  O18  1  0.49947300  0.90661800  0.44519000  1
  O  O19  1  0.00048000  0.40691000  0.55198400  1
  O  O20  1  0.99947300  0.40661800  0.44519000  1
  O  O21  1  0.43721600  0.99948200  0.49095000  1
  O  O22  1  0.56247100  0.99697100  0.50893700  1
  O  O23  1  0.93721600  0.49948200  0.49095000  1
  O  O24  1  0.06247100  0.49697100  0.50893700  1
  O  O25  1  0.43778800  0.99596600  0.38553500  1
  O  O26  1  0.56189800  0.99906900  0.61438300  1
  O  O27  1  0.93778800  0.49596600  0.38553500  1
  O  O28  1  0.06189800  0.49906900  0.61438300  1
  O  O29  1  0.50074200  0.08921700  0.55536700  1
  O  O30  1  0.49867400  0.08892500  0.44730800  1
  O  O31  1  0.00074200  0.58921700  0.55536700  1
  O  O32  1  0.99867400  0.58892500  0.44730800  1
  O  O33  1  0.96288500  0.90537000  0.46295200  1
  O  O34  1  0.03512200  0.90579200  0.53611800  1
  O  O35  1  0.46288500  0.40537000  0.46295200  1
  O  O36  1  0.53512200  0.40579200  0.53611800  1
  O  O37  1  0.96214800  0.99583100  0.37286100  1
  O  O38  1  0.03766900  0.99954000  0.62694900  1
  O  O39  1  0.46214800  0.49583100  0.37286100  1
  O  O40  1  0.53766900  0.49954000  0.62694900  1
  O  O41  1  0.03439400  0.99664200  0.44099400  1
  O  O42  1  0.96551500  0.99467600  0.55893100  1
  O  O43  1  0.53439400  0.49664200  0.44099400  1
  O  O44  1  0.46551500  0.49467600  0.55893100  1
  O  O45  1  0.96481100  0.08764300  0.46586200  1
  O  O46  1  0.03692800  0.08805200  0.53485200  1
  O  O47  1  0.46481100  0.58764300  0.46586200  1
  O  O48  1  0.53692800  0.58805200  0.53485200  1
  O  O49  1  0.96266400  0.09239400  0.27763100  1
  O  O50  1  0.04090000  0.09096800  0.72546800  1
  O  O51  1  0.46266400  0.59239400  0.27763100  1
  O  O52  1  0.54090000  0.59096800  0.72546800  1
  O  O53  1  0.56364900  0.81076100  0.50128600  1
  O  O54  1  0.43688300  0.81026700  0.49700100  1
  O  O55  1  0.06364900  0.31076100  0.50128600  1
  O  O56  1  0.93688300  0.31026700  0.49700100  1
  O  O57  1  0.06228800  0.18568700  0.49544500  1
  O  O58  1  0.93906400  0.18524900  0.50445000  1
  O  O59  1  0.56228800  0.68568700  0.49544500  1
  O  O60  1  0.43906400  0.68524900  0.50445000  1
  O  O61  1  0.20706400  0.94838100  0.30457900  1
  O  O62  1  0.79241400  0.94759200  0.69492800  1
  O  O63  1  0.70706400  0.44838100  0.30457900  1
  O  O64  1  0.29241400  0.44759200  0.69492800  1
  O  O65  1  0.20991700  0.10897100  0.20447100  1
  O  O66  1  0.79013800  0.10797800  0.79593100  1
  O  O67  1  0.70991700  0.60897100  0.20447100  1
  O  O68  1  0.29013800  0.60797800  0.79593100  1
  O  O69  1  0.29190200  0.11422300  0.30883900  1
  O  O70  1  0.70816800  0.11388900  0.69162200  1
  O  O71  1  0.79190200  0.61422300  0.30883900  1
  O  O72  1  0.20816800  0.61388900  0.69162200  1
