# Generated by REPEAT Assigner based on pymatgen
data_DB0-m3_o540_o4_f0_fsc.sym.16
_audit_creation_date              2022-05-24
_audit_creation_method            REPEAT_Assigner
_cell_length_a                    9.283589
_cell_length_b                    8.546903
_cell_length_c                    23.308570
_cell_angle_alpha                 90.000000
_cell_angle_beta                  93.922964
_cell_angle_gamma                 90.000000
_cell_volume                      1845.106763
_symmetry_space_group_name_H-M    P1
_symmetry_Int_Tables_number       1
loop_
    _symmetry_equiv_pos_site_id
    _symmetry_equiv_pos_as_xyz
    1  x,y,z
loop_
    _atom_site_type_symbol
    _atom_site_label
    _atom_site_fract_x
    _atom_site_fract_y
    _atom_site_fract_z
    _atom_type_partial_charge
    C   C1   0.897113  0.086728  0.788590  0.430111
    C   C2   0.084493  0.903851  0.793010  0.457794
    O   O1   0.800403  0.173623  0.757139  -0.489387
    O   O2   0.180624  0.817869  0.766134  -0.489188
    N   N1   0.990372  0.995643  0.761997  -0.177200
    C   C3   0.998092  0.859507  0.670598  -0.278121
    C   C4   0.999035  0.140253  0.671825  -0.283618
    C   C5   0.021878  0.861730  0.612932  -0.004257
    C   C6   0.022042  0.140919  0.613932  -0.040254
    C   C7   0.994154  0.998769  0.700896  0.338343
    C   C8   0.994201  0.995978  0.880516  0.131112
    C   C9   0.898517  0.088413  0.848043  -0.109766
    C   C10  0.086745  0.902199  0.852350  -0.141421
    C   C11  0.804283  0.182248  0.875071  -0.038427
    C   C12  0.182713  0.807976  0.883508  -0.027227
    C   C13  0.041693  0.002012  0.585962  -0.127948
    H   H1   0.992358  0.250151  0.694395  0.157012
    H   H2   0.983434  0.748916  0.691939  0.148777
    H   H3   0.727519  0.255480  0.850676  0.123173
    H   H4   0.255966  0.732329  0.862431  0.116851
    C   C14  0.961442  0.998179  0.414112  -0.112530
    C   C15  0.907901  0.096735  0.028044  0.052834
    C   C16  0.100355  0.905999  0.032305  0.052955
    C   C17  0.006023  0.002358  0.059772  0.017207
    C   C18  0.816544  0.192306  0.057701  -0.197624
    C   C19  0.197614  0.814825  0.066151  -0.210398
    C   C20  0.821080  0.192056  0.116622  -0.032213
    C   C21  0.199627  0.817920  0.125072  -0.037207
    C   C22  0.917111  0.097919  0.147782  -0.131042
    C   C23  0.105361  0.911735  0.152097  -0.105847
    C   C24  0.009670  0.004152  0.119620  0.119647
    C   C25  0.106722  0.913408  0.211550  0.417966
    C   C26  0.919342  0.096278  0.207118  0.423225
    N   N2   0.013462  0.004508  0.238137  -0.126848
    C   C27  0.005580  0.140650  0.329532  -0.233957
    C   C28  0.004636  0.859944  0.328301  -0.223466
    C   C29  0.981436  0.138408  0.387166  0.006869
    C   C30  0.981281  0.859323  0.386165  -0.003023
    C   C31  0.009635  0.001401  0.299234  0.236834
    O   O3   0.823148  0.182204  0.233982  -0.479636
    O   O4   0.203368  0.826454  0.243006  -0.513869
    C   C32  0.903507  0.094098  0.967832  0.041597
    C   C33  0.095920  0.903315  0.972092  0.050966
    C   C34  0.997834  0.997740  0.940364  0.014393
    C   C35  0.806306  0.185340  0.933989  -0.197904
    C   C36  0.187205  0.807666  0.942431  -0.200287
    H   H5   0.020356  0.251263  0.308223  0.146098
    H   H6   0.011415  0.750035  0.305742  0.153029
    H   H7   0.747771  0.267638  0.137695  0.112093
    H   H8   0.276408  0.744704  0.149469  0.121957
    H   H9   0.738664  0.270664  0.037441  0.136572
    H   H10  0.275682  0.738208  0.049281  0.140534
    H   H11  0.728308  0.262036  0.950856  0.138356
    H   H12  0.264958  0.729165  0.962690  0.137260
    H   H13  0.063335  0.003311  0.541242  0.116711
    H   H14  0.939537  0.996870  0.458808  0.106330
    O   O5   0.135277  0.670594  0.557258  -0.735605
    O   O6   0.135511  0.332387  0.558334  -0.737226
    O   O7   0.887663  0.664456  0.561284  -0.731788
    O   O8   0.887937  0.338415  0.562291  -0.675428
    C   C37  0.015543  0.720073  0.577914  0.875189
    C   C38  0.015926  0.283717  0.579396  0.850531
    O   O9   0.867668  0.668107  0.441808  -0.592491
    O   O10  0.867883  0.329365  0.442861  -0.640178
    O   O11  0.115367  0.661969  0.437826  -0.636058
    O   O12  0.115653  0.335498  0.438855  -0.628542
    C   C39  0.987329  0.716632  0.420727  0.692499
    C   C40  0.987712  0.279968  0.422210  0.714390
    Zn  Zn1  0.841064  0.500058  0.500868  0.993543
    Zn  Zn2  0.161954  0.500141  0.499205  1.048804
    C   C41  0.423726  0.499573  0.451702  0.038565
    N   N3   0.351242  0.500190  0.499241  0.018450
    C   C42  0.433005  0.500683  0.549615  -0.050989
    H   H15  0.381260  0.501186  0.589772  0.168962
    C   C43  0.584112  0.500579  0.550503  -0.134147
    H   H16  0.647013  0.501088  0.591278  0.196921
    N   N4   0.651860  0.500022  0.500944  0.037952
    C   C44  0.565652  0.499684  0.452473  0.105261
    C   C45  0.568546  0.499225  0.389092  0.538636
    C   C46  0.399299  0.498988  0.388047  -0.210063
    H   H17  0.349090  0.609144  0.371352  0.096470
    H   H18  0.349398  0.388415  0.371611  0.044248
    N   N5   0.628467  0.641112  0.366126  -0.727161
    H   H19  0.587484  0.735816  0.388155  0.266891
    H   H20  0.590963  0.649820  0.322981  0.281025
    N   N6   0.628994  0.357239  0.366421  -0.588703
    H   H21  0.592147  0.348203  0.323214  0.253400
    H   H22  0.587775  0.262636  0.388428  0.232698
