# generated using pymatgen
data_ZnH7C11N3O4
_symmetry_space_group_name_H-M   'P 1'
_cell_length_a   8.56759500
_cell_length_b   13.45990300
_cell_length_c   9.19028200
_cell_angle_alpha   90.00000000
_cell_angle_beta   90.00000000
_cell_angle_gamma   90.00000000
_symmetry_Int_Tables_number   1
_chemical_formula_structural   ZnH7C11N3O4
_chemical_formula_sum   'Zn2 H14 C22 N6 O8'
_cell_volume   1059.81410830
_cell_formula_units_Z   2
loop_
 _symmetry_equiv_pos_site_id
 _symmetry_equiv_pos_as_xyz
  1  'x, y, z'
loop_
 _atom_site_type_symbol
 _atom_site_label
 _atom_site_symmetry_multiplicity
 _atom_site_fract_x
 _atom_site_fract_y
 _atom_site_fract_z
 _atom_site_occupancy
  Zn  Zn1  1  0.50002500  0.50219400  0.83965600  1
  Zn  Zn2  1  0.49997000  0.49781800  0.16034200  1
  H  H1  1  0.24964800  0.83742300  0.98514700  1
  H  H2  1  0.75032200  0.16258900  0.01532900  1
  H  H3  1  0.24964000  0.16257200  0.01513500  1
  H  H4  1  0.75028600  0.83743000  0.98533500  1
  H  H5  1  0.99998100  0.56966500  0.04591100  1
  H  H6  1  0.99996400  0.43030300  0.95387600  1
  H  H7  1  0.40116800  0.28315300  0.62996400  1
  H  H8  1  0.59990100  0.28348100  0.63012400  1
  H  H9  1  0.59892000  0.71684800  0.37010000  1
  H  H10  1  0.40017000  0.71655900  0.36996300  1
  H  H11  1  0.40114500  0.72001400  0.61973900  1
  H  H12  1  0.59990300  0.71968600  0.61990400  1
  H  H13  1  0.59907500  0.28010500  0.38036800  1
  H  H14  1  0.40032400  0.28031800  0.38020700  1
  C  C1  1  0.13941300  0.69552200  0.00465700  1
  C  C2  1  0.86054800  0.30447500  0.99533900  1
  C  C3  1  0.13941900  0.30446900  0.99522100  1
  C  C4  1  0.86055000  0.69552400  0.00477200  1
  C  C5  1  0.14032700  0.79753600  0.99111100  1
  C  C6  1  0.85964800  0.20247100  0.00908600  1
  C  C7  1  0.14033600  0.20246100  0.00896300  1
  C  C8  1  0.85962600  0.79753700  0.99122900  1
  C  C9  1  0.99997800  0.84873100  0.99163500  1
  C  C10  1  0.99999100  0.15126900  0.00842400  1
  C  C11  1  0.99998400  0.64721600  0.02204600  1
  C  C12  1  0.99997200  0.35276200  0.97780400  1
  C  C13  1  0.99997000  0.95529000  0.99678300  1
  C  C14  1  0.99997000  0.04470900  0.00331300  1
  C  C15  1  0.50007700  0.41436700  0.57740200  1
  C  C16  1  0.49993500  0.58567600  0.42261500  1
  C  C17  1  0.50005900  0.58771300  0.57331700  1
  C  C18  1  0.49997600  0.41233500  0.42670400  1
  C  C19  1  0.71884700  0.63502100  0.00177900  1
  C  C20  1  0.28113500  0.36498600  0.99821500  1
  C  C21  1  0.71883300  0.36498100  0.99832600  1
  C  C22  1  0.28113500  0.63502200  0.00166900  1
  N  N1  1  0.49991200  0.49799500  0.35131700  1
  N  N2  1  0.50009000  0.50204400  0.64868700  1
  N  N3  1  0.50034000  0.32388600  0.65797400  1
  N  N4  1  0.49971500  0.67615600  0.34205900  1
  N  N5  1  0.50032900  0.67991600  0.64961200  1
  N  N6  1  0.49983400  0.32012800  0.35043500  1
  O  O1  1  0.66785400  0.59931000  0.12564100  1
  O  O2  1  0.33214400  0.40069400  0.87434000  1
  O  O3  1  0.33421000  0.39486500  0.12513300  1
  O  O4  1  0.66578800  0.60514000  0.87487800  1
  O  O5  1  0.66789100  0.40070200  0.87444200  1
  O  O6  1  0.33210000  0.59930500  0.12554000  1
  O  O7  1  0.33425500  0.60515100  0.87477800  1
  O  O8  1  0.66573500  0.39485500  0.12523300  1
