# generated using pymatgen
data_CuH20C31(NO3)2
_symmetry_space_group_name_H-M   'P 1'
_cell_length_a   17.67783900
_cell_length_b   16.22438700
_cell_length_c   23.30666900
_cell_angle_alpha   90.00000000
_cell_angle_beta   90.01326300
_cell_angle_gamma   90.00000000
_symmetry_Int_Tables_number   1
_chemical_formula_structural   CuH20C31(NO3)2
_chemical_formula_sum   'Cu2 H40 C62 N4 O12'
_cell_volume   6684.63453016
_cell_formula_units_Z   2
loop_
 _symmetry_equiv_pos_site_id
 _symmetry_equiv_pos_as_xyz
  1  'x, y, z'
loop_
 _atom_site_type_symbol
 _atom_site_label
 _atom_site_symmetry_multiplicity
 _atom_site_fract_x
 _atom_site_fract_y
 _atom_site_fract_z
 _atom_site_occupancy
  Cu  Cu1  1  0.50040500  0.57455100  0.50074700  1
  Cu  Cu2  1  0.50079000  0.40980600  0.49960100  1
  H  H1  1  0.31480400  0.48609300  0.94404000  1
  H  H2  1  0.68240700  0.53769300  0.05622900  1
  H  H3  1  0.48328000  0.36837000  0.21283700  1
  H  H4  1  0.47269900  0.36570600  0.78669100  1
  H  H5  1  0.48417000  0.36431400  0.31756000  1
  H  H6  1  0.47311800  0.36301000  0.68184300  1
  H  H7  1  0.51500200  0.62614500  0.32125900  1
  H  H8  1  0.53281400  0.61882200  0.67987300  1
  H  H9  1  0.51425400  0.62863100  0.21681700  1
  H  H10  1  0.53319600  0.61987100  0.78418800  1
  H  H11  1  0.87732300  0.62350100  0.50382700  1
  H  H12  1  0.12400500  0.36080800  0.49614900  1
  H  H13  1  0.12442700  0.62284400  0.50505000  1
  H  H14  1  0.87683400  0.36149800  0.49563500  1
  H  H15  1  0.73918400  0.62471500  0.50346300  1
  H  H16  1  0.26198500  0.35964800  0.49632200  1
  H  H17  1  0.26226200  0.62349200  0.50527500  1
  H  H18  1  0.73887700  0.36088700  0.49521200  1
  H  H19  1  0.58336600  0.85737300  0.56677700  1
  H  H20  1  0.41628000  0.12775000  0.43407600  1
  H  H21  1  0.42039800  0.85587100  0.43235100  1
  H  H22  1  0.58148300  0.12775200  0.56694400  1
  H  H23  1  0.58225600  0.70583500  0.56697700  1
  H  H24  1  0.41802800  0.27899000  0.43422000  1
  H  H25  1  0.42086700  0.70473000  0.43421700  1
  H  H26  1  0.58149500  0.27918600  0.56548900  1
  H  H27  1  0.28875600  0.54393600  0.09623300  1
  H  H28  1  0.21548900  0.55519400  0.98000000  1
  H  H29  1  0.28075300  0.63270400  0.00702000  1
  H  H30  1  0.19619400  0.60713300  0.04625800  1
  H  H31  1  0.22924600  0.41346200  0.01156900  1
  H  H32  1  0.18378400  0.45024800  0.07612700  1
  H  H33  1  0.27005000  0.39080400  0.08075400  1
  H  H34  1  0.69827500  0.59130400  0.90282400  1
  H  H35  1  0.76993000  0.62084400  0.01786300  1
  H  H36  1  0.69139100  0.68240600  0.99112400  1
  H  H37  1  0.77797300  0.67413300  0.95083800  1
  H  H38  1  0.77950000  0.47764100  0.98893000  1
  H  H39  1  0.81794500  0.52141400  0.92384100  1
  H  H40  1  0.74355800  0.44516100  0.92015700  1
  C  C1  1  0.35517000  0.49151900  0.50081700  1
  C  C2  1  0.64603300  0.49283500  0.49946900  1
  C  C3  1  0.49971100  0.49358800  0.38987900  1
  C  C4  1  0.50161000  0.49088500  0.61046100  1
  C  C5  1  0.56793400  0.50528000  0.88140800  1
  C  C6  1  0.43242700  0.49132100  0.11874200  1
  C  C7  1  0.43609100  0.49132900  0.88104100  1
  C  C8  1  0.56295600  0.51567800  0.11924500  1
  C  C9  1  0.43442300  0.49585700  0.94010200  1
  C  C10  1  0.56407800  0.51729500  0.06010000  1
  C  C11  1  0.50038900  0.50781300  0.97035600  1
  C  C12  1  0.49781700  0.50906800  0.02971700  1
  C  C13  1  0.56846400  0.51699400  0.94099300  1
  C  C14  1  0.42968300  0.50089600  0.05904200  1
  C  C15  1  0.36617200  0.49261400  0.96849700  1
  C  C16  1  0.63129800  0.53005700  0.03165100  1
  C  C17  1  0.36207200  0.50073500  0.02741800  1
  C  C18  1  0.63415900  0.53542300  0.97251200  1
  C  C19  1  0.49009100  0.42488300  0.23684600  1
  C  C20  1  0.48600400  0.42116600  0.76305200  1
  C  C21  1  0.49086000  0.42284200  0.29602500  1
  C  C22  1  0.48655600  0.41979500  0.70382300  1
  C  C23  1  0.49947700  0.49499300  0.32699700  1
  C  C24  1  0.50267500  0.49081200  0.67332100  1
  C  C25  1  0.50791100  0.56891900  0.29816300  1
  C  C26  1  0.51948300  0.56262400  0.70259900  1
  C  C27  1  0.50769700  0.57062300  0.23908200  1
  C  C28  1  0.52015300  0.56340900  0.76164000  1
  C  C29  1  0.49843700  0.49880500  0.20830200  1
  C  C30  1  0.50295800  0.49301600  0.79201500  1
  C  C31  1  0.84653700  0.56600000  0.50196700  1
  C  C32  1  0.15469700  0.41835200  0.49823300  1
  C  C33  1  0.15490300  0.56515500  0.50322700  1
  C  C34  1  0.84629900  0.41915900  0.49736500  1
  C  C35  1  0.76852800  0.56634200  0.50173900  1
  C  C36  1  0.23269700  0.41802800  0.49835200  1
  C  C37  1  0.23287200  0.56516300  0.50336200  1
  C  C38  1  0.76832800  0.41917500  0.49711900  1
  C  C39  1  0.72897900  0.49283100  0.49936800  1
  C  C40  1  0.27225000  0.49152500  0.50092600  1
  C  C41  1  0.88539100  0.49248200  0.49984400  1
  C  C42  1  0.11580800  0.49183400  0.50067200  1
  C  C43  1  0.96652000  0.49225500  0.50018200  1
  C  C44  1  0.03466000  0.49203700  0.50043200  1
  C  C45  1  0.54699200  0.82417800  0.53752200  1
  C  C46  1  0.45324000  0.16051500  0.46314200  1
  C  C47  1  0.45609300  0.82344100  0.46249700  1
  C  C48  1  0.54541900  0.16057900  0.53726900  1
  C  C49  1  0.54617800  0.73915600  0.53757100  1
  C  C50  1  0.45438700  0.24549100  0.46328900  1
  C  C51  1  0.45651900  0.73853000  0.46362200  1
  C  C52  1  0.54525500  0.24553800  0.53638300  1
  C  C53  1  0.50121200  0.86663700  0.50000100  1
  C  C54  1  0.49952100  0.11771400  0.50009200  1
  C  C55  1  0.50055100  0.95505100  0.49991200  1
  C  C56  1  0.49993400  0.02929900  0.49995700  1
  C  C57  1  0.28486000  0.51681600  0.05299000  1
  C  C58  1  0.24195300  0.58177000  0.01893400  1
  C  C59  1  0.23905800  0.43772000  0.05540800  1
  C  C60  1  0.70706000  0.56663600  0.94635200  1
  C  C61  1  0.73823600  0.64031300  0.97912900  1
  C  C62  1  0.76578300  0.49833000  0.94480400  1
  N  N1  1  0.50226000  0.49550300  0.85308200  1
  N  N2  1  0.49797600  0.50148100  0.14723200  1
  N  N3  1  0.50004300  0.69776000  0.50167100  1
  N  N4  1  0.50121900  0.28658100  0.49883100  1
  O  O1  1  0.39055700  0.56233100  0.50329800  1
  O  O2  1  0.61063000  0.42201400  0.49721300  1
  O  O3  1  0.61039400  0.56351500  0.50208800  1
  O  O4  1  0.39078900  0.42083400  0.49807800  1
  O  O5  1  0.50230200  0.56396000  0.41731300  1
  O  O6  1  0.49864700  0.42042700  0.58307500  1
  O  O7  1  0.50393800  0.56195900  0.58400800  1
  O  O8  1  0.49751700  0.42232800  0.41628200  1
  O  O9  1  0.63218300  0.49734800  0.85126000  1
  O  O10  1  0.37147200  0.46783200  0.14891200  1
  O  O11  1  0.37166100  0.48330100  0.85094600  1
  O  O12  1  0.62714000  0.52573100  0.14935700  1
