# Generated by REPEAT Assigner based on pymatgen
data_DB0-m3_o490_o158_f0_fsc.sym.66_sqe
_audit_creation_date              2022-05-24
_audit_creation_method            REPEAT_Assigner
_cell_length_a                    13.415254
_cell_length_b                    8.581466
_cell_length_c                    10.640881
_cell_angle_alpha                 90.000000
_cell_angle_beta                  97.943853
_cell_angle_gamma                 90.000000
_cell_volume                      1213.250143
_symmetry_space_group_name_H-M    P1
_symmetry_Int_Tables_number       1
loop_
    _symmetry_equiv_pos_site_id
    _symmetry_equiv_pos_as_xyz
    1  x,y,z
loop_
    _atom_site_type_symbol
    _atom_site_label
    _atom_site_fract_x
    _atom_site_fract_y
    _atom_site_fract_z
    _atom_type_partial_charge
    C   C1   0.046731  0.007974  0.689225  -0.082642
    C   C2   0.951368  0.004384  0.309627  -0.067614
    C   C3   0.040426  0.147336  0.751769  -0.265153
    C   C4   0.959397  0.864869  0.247873  -0.304134
    C   C5   0.968971  0.143622  0.252015  -0.197501
    C   C6   0.030853  0.868527  0.747525  -0.185738
    C   C7   0.026332  0.145600  0.878270  0.098408
    C   C8   0.975474  0.866223  0.122099  0.115776
    C   C9   0.991353  0.143838  0.128856  0.179900
    C   C10  0.010885  0.867952  0.871673  0.163463
    C   C11  0.030260  0.281872  0.946558  0.002448
    C   C12  0.974712  0.729290  0.054961  0.014406
    C   C13  0.013797  0.280946  0.071331  -0.338165
    C   C14  0.992060  0.730168  0.930559  -0.269971
    C   C15  0.010345  0.006277  0.937760  -0.014555
    C   C16  0.991422  0.005562  0.062576  -0.019865
    H   H1   0.050645  0.388838  0.904373  0.016267
    H   H2   0.956664  0.621378  0.097722  0.005487
    H   H3   0.019066  0.388652  0.122920  0.243130
    H   H4   0.991070  0.621751  0.880425  0.193156
    H   H5   0.056234  0.008638  0.590184  0.116404
    H   H6   0.940152  0.003937  0.408101  0.112581
    O   O1   0.936115  0.337511  0.635978  -0.647758
    O   O2   0.063319  0.674618  0.363768  -0.667722
    O   O3   0.068701  0.338178  0.367316  -0.645298
    O   O4   0.930572  0.673457  0.632855  -0.612370
    O   O5   0.107504  0.347907  0.630234  -0.755180
    O   O6   0.892344  0.665068  0.370151  -0.779611
    O   O7   0.897429  0.338088  0.373178  -0.734305
    O   O8   0.102013  0.674425  0.626099  -0.721927
    C   C17  0.028521  0.290127  0.674634  0.938102
    C   C18  0.971135  0.722474  0.325403  1.010478
    C   C19  0.977968  0.284267  0.330443  0.806775
    C   C20  0.021472  0.727747  0.669230  0.782192
    Zn  Zn1  0.110246  0.509449  0.493047  0.983192
    Zn  Zn2  0.889232  0.502628  0.506589  0.972663
    C   C21  0.700105  0.509766  0.400507  -0.280111
    C   C22  0.299883  0.533409  0.597564  -0.296914
    N   N1   0.759265  0.498065  0.513522  0.199612
    N   N2   0.240197  0.513981  0.485578  0.203203
    C   C23  0.717671  0.484043  0.621940  -0.297804
    C   C24  0.281536  0.488057  0.378013  -0.321591
    C   C25  0.613744  0.485143  0.617794  0.141961
    C   C26  0.385391  0.483449  0.382200  0.154356
    C   C27  0.554094  0.500937  0.502808  -0.041878
    C   C28  0.445521  0.505527  0.496070  -0.070278
    C   C29  0.596909  0.512935  0.393872  0.143449
    C   C30  0.403185  0.531216  0.603959  0.174024
    C   C31  0.563747  0.463410  0.733932  -0.090400
    C   C32  0.434406  0.448594  0.267186  -0.069524
    C   C33  0.469806  0.563669  0.724995  -0.021328
    C   C34  0.531346  0.540656  0.271387  -0.040732
    H   H7   0.613953  0.496229  0.821400  0.064238
    H   H8   0.452166  0.322457  0.265576  0.028443
    H   H9   0.385343  0.480653  0.178652  0.041491
    H   H10  0.541716  0.339415  0.740376  0.024394
    H   H11  0.492363  0.688070  0.726835  0.037502
    H   H12  0.570823  0.505456  0.190950  0.046775
    H   H13  0.512790  0.666497  0.263056  0.044941
    H   H14  0.429451  0.539270  0.807029  0.042109
    H   H15  0.733586  0.519546  0.314227  0.205644
    H   H16  0.266894  0.550408  0.683498  0.203286
    C   C35  0.781726  0.469335  0.744020  0.684526
    O   O9   0.809895  0.586146  0.803624  -0.478776
    N   N3   0.799857  0.319604  0.800823  -0.506520
    H   H17  0.767094  0.318388  0.884291  0.227691
    H   H18  0.762546  0.237575  0.738824  0.225236
    C   C36  0.217563  0.459451  0.257270  0.779013
    O   O10  0.171332  0.566427  0.200913  -0.532977
    N   N4   0.214738  0.308211  0.201209  -0.503932
    H   H19  0.240790  0.318036  0.113534  0.225573
    H   H20  0.264602  0.237353  0.259729  0.209978
