# generated using pymatgen
data_FeH12C25ClO8
_symmetry_space_group_name_H-M   'P 1'
_cell_length_a   15.32750000
_cell_length_b   9.33695400
_cell_length_c   16.20691000
_cell_angle_alpha   92.06382200
_cell_angle_beta   103.01908000
_cell_angle_gamma   107.43585200
_symmetry_Int_Tables_number   1
_chemical_formula_structural   FeH12C25ClO8
_chemical_formula_sum   'Fe2 H24 C50 Cl2 O16'
_cell_volume   2142.54538468
_cell_formula_units_Z   2
loop_
 _symmetry_equiv_pos_site_id
 _symmetry_equiv_pos_as_xyz
  1  'x, y, z'
loop_
 _atom_site_type_symbol
 _atom_site_label
 _atom_site_symmetry_multiplicity
 _atom_site_fract_x
 _atom_site_fract_y
 _atom_site_fract_z
 _atom_site_occupancy
  Fe  Fe1  1  0.47483900  0.97990900  0.81033300  1
  Fe  Fe2  1  0.48431400  0.96497500  0.18181700  1
  H  H1  1  0.78613900  0.06322200  0.20502400  1
  H  H2  1  0.94057100  0.09523200  0.17858500  1
  H  H3  1  0.81289500  0.98898300  0.91191300  1
  H  H4  1  0.04218600  0.09377700  0.08832500  1
  H  H5  1  0.94533000  0.98376600  0.90051900  1
  H  H6  1  0.21589400  0.05097600  0.79643600  1
  H  H7  1  0.14548600  0.97519200  0.07506600  1
  H  H8  1  0.58054400  0.23848800  0.56095200  1
  H  H9  1  0.53991400  0.16375300  0.42490700  1
  H  H10  1  0.58009000  0.84829900  0.46990700  1
  H  H11  1  0.46571200  0.10167700  0.54795100  1
  H  H12  1  0.41359500  0.12770400  0.41062300  1
  H  H13  1  0.46641300  0.81172300  0.57275600  1
  H  H14  1  0.45329500  0.79648200  0.44119200  1
  H  H15  1  0.44882300  0.42397300  0.76785600  1
  H  H16  1  0.49391600  0.50810900  0.21767400  1
  H  H17  1  0.58401100  0.03294700  0.64908900  1
  H  H18  1  0.86181100  0.02778100  0.75725600  1
  H  H19  1  0.82516200  0.77734400  0.68058500  1
  H  H20  1  0.66771100  0.65189800  0.58965700  1
  H  H21  1  0.06019100  0.96476900  0.70149200  1
  H  H22  1  0.93945900  0.31207000  0.63270000  1
  H  H23  1  0.97712600  0.40980400  0.78376200  1
  H  H24  1  0.05758600  0.28809100  0.89367900  1
  C  C1  1  0.79175600  0.04792400  0.14022200  1
  C  C2  1  0.87917200  0.06475300  0.12529200  1
  C  C3  1  0.88834700  0.03919500  0.04372900  1
  C  C4  1  0.80810800  0.00167400  0.97669800  1
  C  C5  1  0.71993400  0.98489000  0.99105900  1
  C  C6  1  0.71143500  0.00447500  0.07404500  1
  C  C7  1  0.98391600  0.05398300  0.03233900  1
  C  C8  1  0.00147300  0.02072600  0.95773200  1
  C  C9  1  0.11728000  0.05058700  0.87061100  1
  C  C10  1  0.19805000  0.02954100  0.85661100  1
  C  C11  1  0.26292400  0.99944000  0.92135100  1
  C  C12  1  0.24689800  0.98831700  0.00220800  1
  C  C13  1  0.16150300  0.99602500  0.01427100  1
  C  C14  1  0.09630000  0.02723300  0.94882900  1
  C  C15  1  0.45516200  0.17948100  0.69537600  1
  C  C16  1  0.35201000  0.00173100  0.90307900  1
  C  C17  1  0.63926600  0.95922700  0.91676700  1
  C  C18  1  0.47328000  0.70450100  0.73624700  1
  C  C19  1  0.48916500  0.23565300  0.25785300  1
  C  C20  1  0.31837400  0.97196100  0.07599600  1
  C  C21  1  0.61940500  0.97019100  0.09485700  1
  C  C22  1  0.50996900  0.76515200  0.29508000  1
  C  C23  1  0.45929700  0.44089200  0.70479400  1
  C  C24  1  0.46290400  0.32037800  0.65673300  1
  C  C25  1  0.47580700  0.33439200  0.57538300  1
  C  C26  1  0.50377000  0.21570000  0.53466100  1
  C  C27  1  0.48500200  0.20807600  0.43929200  1
  C  C28  1  0.47139800  0.58018900  0.67502000  1
  C  C29  1  0.48469000  0.59596900  0.59211900  1
  C  C30  1  0.48528100  0.47112200  0.54211600  1
  C  C31  1  0.49839500  0.48290400  0.45504100  1
  C  C32  1  0.49347400  0.35537500  0.40391300  1
  C  C33  1  0.49263000  0.36330300  0.31747700  1
  C  C34  1  0.51556300  0.75040700  0.56423400  1
  C  C35  1  0.51409900  0.75899800  0.47113400  1
  C  C36  1  0.50785200  0.61875900  0.42066400  1
  C  C37  1  0.50487400  0.62499300  0.33485400  1
  C  C38  1  0.49582700  0.49815300  0.28417200  1
  C  C39  1  0.61357700  0.83155200  0.61543000  1
  C  C40  1  0.63621100  0.97563200  0.65551600  1
  C  C41  1  0.72591600  0.04721300  0.70516500  1
  C  C42  1  0.79292200  0.97441000  0.71570000  1
  C  C43  1  0.77189900  0.83319300  0.67340700  1
  C  C44  1  0.68270400  0.76238000  0.62264000  1
  C  C45  1  0.06176200  0.11499300  0.80535500  1
  C  C46  1  0.04157800  0.06180000  0.72022900  1
  C  C47  1  0.99718100  0.13197800  0.65842300  1
  C  C48  1  0.97371800  0.25660700  0.68121900  1
  C  C49  1  0.99448500  0.31096700  0.76591400  1
  C  C50  1  0.03843700  0.24053600  0.82786900  1
  Cl  Cl1  1  0.75356000  0.22825100  0.75768400  1
  Cl  Cl2  1  0.97163900  0.06383400  0.55076200  1
  O  O1  1  0.51735500  0.17612600  0.76518500  1
  O  O2  1  0.42751400  0.11771400  0.93544100  1
  O  O3  1  0.38023500  0.06110500  0.66594200  1
  O  O4  1  0.35176200  0.90892600  0.84009000  1
  O  O5  1  0.56426000  0.99367500  0.92395300  1
  O  O6  1  0.64719300  0.92143300  0.84077900  1
  O  O7  1  0.46938500  0.83585700  0.71292600  1
  O  O8  1  0.47609600  0.68139800  0.81607800  1
  O  O9  1  0.47980900  0.09865500  0.27954900  1
  O  O10  1  0.49732900  0.26044400  0.18032900  1
  O  O11  1  0.39632300  0.94856800  0.06700900  1
  O  O12  1  0.30681500  0.99026300  0.15302100  1
  O  O13  1  0.58166600  0.88788600  0.32497800  1
  O  O14  1  0.60848000  0.05420500  0.15617000  1
  O  O15  1  0.44841000  0.76440100  0.22388100  1
  O  O16  1  0.55166000  0.84530200  0.05966200  1
