# generated using pymatgen
data_Zn2H16C37(NO5)2
_symmetry_space_group_name_H-M   'P 1'
_cell_length_a   12.54484200
_cell_length_b   13.71277000
_cell_length_c   14.53292200
_cell_angle_alpha   89.99210800
_cell_angle_beta   103.06306500
_cell_angle_gamma   86.65027000
_symmetry_Int_Tables_number   1
_chemical_formula_structural   Zn2H16C37(NO5)2
_chemical_formula_sum   'Zn2 H16 C37 N2 O10'
_cell_volume   2430.93359544
_cell_formula_units_Z   1
loop_
 _symmetry_equiv_pos_site_id
 _symmetry_equiv_pos_as_xyz
  1  'x, y, z'
loop_
 _atom_site_type_symbol
 _atom_site_label
 _atom_site_symmetry_multiplicity
 _atom_site_fract_x
 _atom_site_fract_y
 _atom_site_fract_z
 _atom_site_occupancy
  Zn  Zn1  1  0.38288500  0.47716900  0.48107200  1
  Zn  Zn2  1  0.62362300  0.52050700  0.52244200  1
  H  H1  1  0.74610300  0.89591200  0.45511200  1
  H  H2  1  0.80408000  0.04695400  0.51357700  1
  H  H3  1  0.42449800  0.16628800  0.49417400  1
  H  H4  1  0.25455300  0.76485500  0.49613700  1
  H  H5  1  0.31939600  0.06029900  0.51181700  1
  H  H6  1  0.19680300  0.93424700  0.50782600  1
  H  H7  1  0.61235200  0.77751600  0.42804100  1
  H  H8  1  0.24497900  0.34329500  0.35575300  1
  H  H9  1  0.87390700  0.32998000  0.34305800  1
  H  H10  1  0.05247900  0.30514700  0.31905700  1
  H  H11  1  0.18961200  0.55217400  0.55066600  1
  H  H12  1  0.75149000  0.65222000  0.64522400  1
  H  H13  1  0.07746100  0.62414100  0.61630700  1
  H  H14  1  0.94068200  0.69948600  0.68783500  1
  H  H15  1  0.74499500  0.40864300  0.42044900  1
  H  H16  1  0.86622500  0.31345000  0.67283800  1
  C  C1  1  0.45011200  0.68748500  0.48784000  1
  C  C2  1  0.51003900  0.50216100  0.68286600  1
  C  C3  1  0.55688100  0.31019300  0.51570600  1
  C  C4  1  0.49609900  0.49616400  0.32053100  1
  C  C5  1  0.51124000  0.50245200  0.78185800  1
  C  C6  1  0.50934900  0.50172800  0.86440100  1
  C  C7  1  0.50507600  0.50017400  0.96067100  1
  C  C8  1  0.50091300  0.49864300  0.04270100  1
  C  C9  1  0.49666500  0.49700600  0.13897500  1
  C  C10  1  0.49481900  0.49613700  0.22152600  1
  C  C11  1  0.72037800  0.07370700  0.50954500  1
  C  C12  1  0.58913200  0.20410200  0.51943800  1
  C  C13  1  0.31174400  0.81945300  0.49118100  1
  C  C14  1  0.27863900  0.91551900  0.49867500  1
  C  C15  1  0.35014700  0.98774000  0.49988500  1
  C  C16  1  0.45597900  0.96557400  0.48828400  1
  C  C17  1  0.48767700  0.86784100  0.47528000  1
  C  C18  1  0.53257100  0.03780800  0.49326600  1
  C  C19  1  0.63867600  0.00940400  0.48921600  1
  C  C20  1  0.66502300  0.91593500  0.46540700  1
  C  C21  1  0.58892700  0.84700300  0.45404900  1
  C  C22  1  0.50756300  0.13757200  0.50225400  1
  C  C23  1  0.69829700  0.16886500  0.53224300  1
  C  C24  1  0.41694900  0.79350000  0.48214700  1
  C  C25  1  0.08028800  0.36028100  0.37066400  1
  C  C26  1  0.81185400  0.61668000  0.61195000  1
  C  C27  1  0.91814700  0.64343200  0.63594800  1
  C  C28  1  0.99600500  0.59940700  0.59421400  1
  C  C29  1  0.96719400  0.52739200  0.52731400  1
  C  C30  1  0.85800000  0.50244100  0.50498000  1
  C  C31  1  0.04361700  0.47939800  0.48217300  1
  C  C32  1  0.00822200  0.40885000  0.41596100  1
  C  C33  1  0.90089100  0.38549800  0.39447500  1
  C  C34  1  0.82703500  0.43124100  0.43876300  1
  C  C35  1  0.15464600  0.49872500  0.50052700  1
  C  C36  1  0.18829700  0.38156800  0.39117700  1
  C  C37  1  0.79332400  0.22569100  0.57277900  1
  N  N1  1  0.22357000  0.44982500  0.45519300  1
  N  N2  1  0.78244900  0.54714800  0.54749900  1
  O  O1  1  0.37225900  0.62522800  0.47534100  1
  O  O2  1  0.55454400  0.65851200  0.51014600  1
  O  O3  1  0.41759600  0.48528700  0.62380600  1
  O  O4  1  0.60070400  0.51808700  0.65605300  1
  O  O5  1  0.45216000  0.33899100  0.49581400  1
  O  O6  1  0.63367800  0.37260400  0.52706200  1
  O  O7  1  0.40629500  0.47852400  0.34761400  1
  O  O8  1  0.58765600  0.51484000  0.37952600  1
  O  O9  1  0.87780100  0.21280400  0.54512400  1
  O  O10  1  0.79286400  0.28377400  0.65129900  1
