# Generated by REPEAT Assigner based on pymatgen
data_DB0-m2_o4_o6_f0_nbo.sym.42
_audit_creation_date              2022-05-24
_audit_creation_method            REPEAT_Assigner
_cell_length_a                    30.780602
_cell_length_b                    30.389240
_cell_length_c                    22.212938
_cell_angle_alpha                 90.000000
_cell_angle_beta                  46.136938
_cell_angle_gamma                 90.000000
_cell_volume                      14980.868705
_symmetry_space_group_name_H-M    P1
_symmetry_Int_Tables_number       1
loop_
    _symmetry_equiv_pos_site_id
    _symmetry_equiv_pos_as_xyz
    1  x,y,z
loop_
    _atom_site_type_symbol
    _atom_site_label
    _atom_site_fract_x
    _atom_site_fract_y
    _atom_site_fract_z
    _atom_type_partial_charge
    O   O1    0.176979  0.232101  0.502444  -0.614708
    O   O2    0.823021  0.232101  0.497556  -0.614715
    O   O3    0.676979  0.732101  0.502444  -0.614708
    O   O4    0.323021  0.732101  0.497556  -0.614713
    O   O5    0.238182  0.178583  0.484561  -0.594976
    O   O6    0.761818  0.178583  0.515439  -0.594980
    O   O7    0.738182  0.678583  0.484561  -0.594974
    O   O8    0.261818  0.678583  0.515439  -0.594987
    C   C1    0.194067  0.191011  0.491577  0.681395
    C   C2    0.805933  0.191011  0.508423  0.681378
    C   C3    0.694067  0.691011  0.491577  0.681374
    C   C4    0.305933  0.691011  0.508423  0.681398
    O   O9    0.283261  0.281420  0.382148  -0.634617
    O   O10   0.716739  0.281420  0.617851  -0.634625
    O   O11   0.783261  0.781420  0.382148  -0.634629
    O   O12   0.216739  0.781420  0.617851  -0.634631
    O   O13   0.340320  0.229044  0.376205  -0.614766
    O   O14   0.659680  0.229044  0.623795  -0.614768
    O   O15   0.840320  0.729044  0.376205  -0.614714
    O   O16   0.159680  0.729044  0.623795  -0.614762
    C   C5    0.330078  0.255204  0.340277  0.824015
    C   C6    0.669922  0.255204  0.659723  0.823995
    C   C7    0.830078  0.755204  0.340277  0.823972
    C   C8    0.169922  0.755204  0.659723  0.823985
    Cu  Cu1   0.217320  0.281174  0.503705  0.994361
    Cu  Cu2   0.782680  0.281174  0.496295  0.994393
    Cu  Cu3   0.717320  0.781174  0.503705  0.994358
    Cu  Cu4   0.282680  0.781174  0.496295  0.994418
    Cu  Cu5   0.281478  0.218597  0.496479  0.996476
    Cu  Cu6   0.718522  0.218597  0.503520  0.996497
    Cu  Cu7   0.781478  0.718597  0.496479  0.996483
    Cu  Cu8   0.218522  0.718597  0.503520  0.996477
    O   O17   0.262881  0.321609  0.510939  -0.565361
    O   O18   0.737119  0.321609  0.489061  -0.565386
    O   O19   0.762881  0.821609  0.510939  -0.565354
    O   O20   0.237119  0.821609  0.489061  -0.565379
    O   O21   0.319484  0.267415  0.502724  -0.551711
    O   O22   0.680516  0.267415  0.497276  -0.551711
    O   O23   0.819484  0.767415  0.502724  -0.551672
    O   O24   0.180516  0.767415  0.497276  -0.551720
    O   O25   0.162197  0.274705  0.624577  -0.607700
    O   O26   0.837803  0.274705  0.375423  -0.607759
    O   O27   0.662197  0.774705  0.624577  -0.607673
    O   O28   0.337803  0.774705  0.375423  -0.607726
    O   O29   0.216042  0.218871  0.618111  -0.612084
    O   O30   0.783959  0.218871  0.381889  -0.612086
    O   O31   0.716042  0.718871  0.618111  -0.612094
    O   O32   0.283959  0.718871  0.381889  -0.612071
    C   C9    0.303882  0.308740  0.510360  0.761955
    C   C10   0.696118  0.308740  0.489640  0.761947
    C   C11   0.803882  0.808740  0.510360  0.761923
    C   C12   0.196118  0.808740  0.489640  0.761947
    C   C13   0.168214  0.244032  0.659843  0.822993
    C   C14   0.831786  0.244032  0.340157  0.823046
    C   C15   0.668214  0.744032  0.659843  0.822927
    C   C16   0.331786  0.744032  0.340157  0.823057
    H   H1    0.461713  0.189540  0.076747  0.151015
    H   H2    0.538287  0.189540  0.923253  0.151013
    H   H3    0.961713  0.689540  0.076747  0.151017
    H   H4    0.038287  0.689540  0.923253  0.151013
    C   C17   0.521442  0.220345  0.956994  -0.187324
    C   C18   0.478558  0.220345  0.043006  -0.187324
    C   C19   0.021442  0.720345  0.956994  -0.187312
    C   C20   0.978558  0.720345  0.043006  -0.187333
    C   C21   0.542899  0.259603  0.913920  0.265839
    C   C22   0.457101  0.259603  0.086080  0.265828
    C   C23   0.042899  0.759603  0.913920  0.265823
    C   C24   0.957101  0.759603  0.086080  0.265840
    C   C25   0.521482  0.298936  0.956915  -0.181220
    C   C26   0.478519  0.298936  0.043085  -0.181219
    C   C27   0.021482  0.798936  0.956915  -0.181213
    C   C28   0.978519  0.798936  0.043085  -0.181228
    H   H5    0.538349  0.329728  0.923128  0.145189
    H   H6    0.461651  0.329728  0.076872  0.145188
    H   H7    0.038349  0.829728  0.923128  0.145191
    H   H8    0.961651  0.829728  0.076872  0.145191
    C   C29   0.587574  0.259191  0.824344  -0.101684
    C   C30   0.412426  0.259191  0.175656  -0.101683
    C   C31   0.087574  0.759191  0.824344  -0.101667
    C   C32   0.912426  0.759191  0.175656  -0.101728
    C   C33   0.374867  0.257880  0.250844  -0.207047
    C   C34   0.625133  0.257880  0.749156  -0.207044
    C   C35   0.874867  0.757880  0.250844  -0.207011
    C   C36   0.125133  0.757880  0.749156  -0.207065
    C   C37   0.101972  0.161786  0.532069  0.115772
    C   C38   0.898028  0.161786  0.467930  0.115762
    C   C39   0.601972  0.661786  0.532069  0.115782
    C   C40   0.398028  0.661786  0.467930  0.115807
    C   C41   0.161812  0.157337  0.488530  -0.118688
    C   C42   0.838188  0.157337  0.511470  -0.118704
    C   C43   0.661812  0.657337  0.488530  -0.118663
    C   C44   0.338188  0.657337  0.511470  -0.118724
    C   C45   0.189757  0.118684  0.443451  -0.160577
    C   C46   0.810243  0.118684  0.556549  -0.160548
    C   C47   0.689757  0.618684  0.443451  -0.160588
    C   C48   0.310243  0.618684  0.556549  -0.160548
    H   H9    0.236956  0.113370  0.407628  0.144267
    H   H10   0.763044  0.113370  0.592372  0.144261
    H   H11   0.736956  0.613370  0.407628  0.144275
    H   H12   0.263044  0.613370  0.592372  0.144259
    C   C49   0.157584  0.086684  0.442740  -0.047386
    C   C50   0.842416  0.086684  0.557260  -0.047421
    C   C51   0.657584  0.586684  0.442740  -0.047393
    C   C52   0.342416  0.586684  0.557260  -0.047425
    H   H13   0.180213  0.056891  0.407032  0.121221
    H   H14   0.819787  0.056891  0.592968  0.121221
    H   H15   0.680213  0.556891  0.407032  0.121219
    H   H16   0.319787  0.556891  0.592968  0.121233
    C   C53   0.096466  0.092093  0.490278  -0.295763
    C   C54   0.903534  0.092093  0.509722  -0.295698
    C   C55   0.596466  0.592093  0.490278  -0.295725
    C   C56   0.403534  0.592093  0.509722  -0.295703
    C   C57   0.070763  0.130465  0.534594  0.220318
    C   C58   0.929237  0.130465  0.465406  0.220329
    C   C59   0.570763  0.630465  0.534594  0.220285
    C   C60   0.429237  0.630465  0.465406  0.220271
    C   C61   0.012842  0.154701  0.592582  -0.208366
    C   C62   0.987158  0.154701  0.407418  -0.208389
    C   C63   0.512842  0.654701  0.592582  -0.208398
    C   C64   0.487158  0.654701  0.407418  -0.208417
    C   C65   0.049468  0.191440  0.590160  -0.125929
    C   C66   0.950532  0.191440  0.409839  -0.125884
    C   C67   0.549468  0.691440  0.590160  -0.125912
    C   C68   0.450532  0.691440  0.409839  -0.125884
    H   H17   0.996957  0.164637  0.562502  0.080791
    H   H18   0.003043  0.164637  0.437498  0.080792
    H   H19   0.496957  0.664637  0.562502  0.080803
    H   H20   0.503043  0.664637  0.437498  0.080806
    H   H21   0.979400  0.138355  0.654277  0.095636
    H   H22   0.020600  0.138355  0.345723  0.095637
    H   H23   0.479400  0.638355  0.654277  0.095651
    H   H24   0.520600  0.638355  0.345723  0.095653
    H   H25   0.053721  0.222037  0.559203  0.084125
    H   H26   0.946280  0.222037  0.440797  0.084111
    H   H27   0.553721  0.722037  0.559203  0.084124
    H   H28   0.446280  0.722037  0.440797  0.084112
    H   H29   0.036614  0.195410  0.650436  0.064894
    H   H30   0.963386  0.195410  0.349564  0.064883
    H   H31   0.536614  0.695410  0.650436  0.064889
    H   H32   0.463386  0.695410  0.349564  0.064885
    H   H33   0.107909  0.239146  0.921690  0.139875
    H   H34   0.892091  0.239146  0.078310  0.139917
    H   H35   0.607909  0.739146  0.921690  0.139887
    H   H36   0.392091  0.739146  0.078310  0.139921
    C   C69   0.017948  0.238877  0.042194  -0.195460
    C   C70   0.982052  0.238877  0.957806  -0.195306
    C   C71   0.517948  0.738877  0.042194  -0.195460
    C   C72   0.482052  0.738877  0.957806  -0.195347
    H   H37   0.031991  0.239140  0.075302  0.148229
    H   H38   0.968009  0.239140  0.924697  0.148177
    H   H39   0.531991  0.739140  0.075302  0.148232
    H   H40   0.468009  0.739140  0.924697  0.148188
    C   C73   0.957475  0.239003  0.086050  0.263242
    C   C74   0.042525  0.239003  0.913950  0.263074
    C   C75   0.457475  0.739003  0.086050  0.263254
    C   C76   0.542525  0.739003  0.913950  0.263159
    C   C77   0.939512  0.238879  0.043882  -0.168029
    C   C78   0.060488  0.238879  0.956118  -0.167893
    C   C79   0.439512  0.738879  0.043882  -0.168034
    C   C80   0.560488  0.738879  0.956118  -0.167937
    C   C81   0.913236  0.240206  0.175568  -0.103704
    C   C82   0.086764  0.240206  0.824432  -0.103592
    C   C83   0.413236  0.740206  0.175568  -0.103666
    C   C84   0.586764  0.740206  0.824432  -0.103681
    C   C85   0.123932  0.241690  0.749277  -0.201531
    C   C86   0.876068  0.241690  0.250723  -0.201461
    C   C87   0.623932  0.741690  0.749277  -0.201464
    C   C88   0.376068  0.741690  0.250723  -0.201516
    C   C89   0.362029  0.376902  0.460978  0.180258
    C   C90   0.637971  0.376902  0.539021  0.180235
    C   C91   0.862029  0.876902  0.460978  0.180262
    C   C92   0.137971  0.876902  0.539021  0.180255
    C   C93   0.334987  0.342361  0.515899  -0.314383
    C   C94   0.665013  0.342361  0.484101  -0.314310
    C   C95   0.834987  0.842361  0.515899  -0.314362
    C   C96   0.165013  0.842361  0.484101  -0.314352
    C   C97   0.341523  0.340791  0.572315  0.094309
    C   C98   0.658477  0.340791  0.427685  0.094179
    C   C99   0.841523  0.840791  0.572315  0.094304
    C   C100  0.158477  0.840791  0.427685  0.094208
    C   C101  0.375421  0.373234  0.569079  -0.132152
    C   C102  0.624579  0.373234  0.430921  -0.132136
    C   C103  0.875421  0.873234  0.569079  -0.132147
    C   C104  0.124579  0.873234  0.430921  -0.132122
    H   H41   0.379899  0.372277  0.613156  0.159802
    H   H42   0.620101  0.372277  0.386843  0.159732
    H   H43   0.879899  0.872277  0.613156  0.159810
    H   H44   0.120101  0.872277  0.386843  0.159728
    C   C105  0.403297  0.406825  0.510315  -0.287129
    C   C106  0.596703  0.406825  0.489685  -0.287029
    C   C107  0.903297  0.906825  0.510315  -0.287148
    C   C108  0.096703  0.906825  0.489685  -0.287066
    C   C109  0.395122  0.406878  0.457117  0.220172
    C   C110  0.604878  0.406878  0.542882  0.220138
    C   C111  0.895122  0.906878  0.457117  0.220177
    C   C112  0.104878  0.906878  0.542882  0.220138
    C   C113  0.411207  0.430785  0.385723  -0.165976
    C   C114  0.588793  0.430785  0.614277  -0.165991
    C   C115  0.911207  0.930785  0.385723  -0.165981
    C   C116  0.088793  0.930785  0.614277  -0.165962
    C   C117  0.372636  0.395212  0.389868  -0.194641
    C   C118  0.627364  0.395212  0.610131  -0.194606
    C   C119  0.872636  0.895212  0.389868  -0.194659
    C   C120  0.127364  0.895212  0.610131  -0.194636
    H   H45   0.390932  0.464114  0.403449  0.086242
    H   H46   0.609068  0.464114  0.596551  0.086245
    H   H47   0.890932  0.964114  0.403449  0.086253
    H   H48   0.109068  0.964114  0.596551  0.086241
    H   H49   0.459941  0.428437  0.328376  0.088075
    H   H50   0.540059  0.428437  0.671624  0.088078
    H   H51   0.959941  0.928437  0.328376  0.088075
    H   H52   0.040059  0.928437  0.671624  0.088071
    H   H53   0.330943  0.408666  0.409463  0.089425
    H   H54   0.669057  0.408666  0.590537  0.089416
    H   H55   0.830943  0.908666  0.409463  0.089424
    H   H56   0.169057  0.908666  0.590537  0.089420
    H   H57   0.399897  0.372866  0.335130  0.092915
    H   H58   0.600103  0.372866  0.664870  0.092908
    H   H59   0.899897  0.872866  0.335130  0.092923
    H   H60   0.100103  0.872866  0.664870  0.092911
    O   O33   0.568355  0.446040  0.428028  -0.613013
    O   O34   0.431645  0.446040  0.571972  -0.613081
    O   O35   0.068355  0.946040  0.428028  -0.613026
    O   O36   0.931645  0.946040  0.571972  -0.613120
    O   O37   0.523665  0.464738  0.562386  -0.642949
    O   O38   0.476335  0.464738  0.437613  -0.642946
    O   O39   0.023665  0.964738  0.562386  -0.642948
    O   O40   0.976335  0.964738  0.437613  -0.642922
    C   C121  0.561108  0.440766  0.493659  0.830792
    C   C122  0.438892  0.440766  0.506340  0.830866
    C   C123  0.061108  0.940766  0.493659  0.830853
    C   C124  0.938892  0.940766  0.506340  0.830885
    O   O41   0.087849  0.034430  0.426048  -0.629290
    O   O42   0.912151  0.034430  0.573952  -0.629182
    O   O43   0.587849  0.534430  0.426048  -0.629284
    O   O44   0.412151  0.534430  0.573952  -0.629304
    O   O45   0.004123  0.053206  0.564442  -0.627158
    O   O46   0.995877  0.053206  0.435558  -0.627070
    O   O47   0.504123  0.553206  0.564442  -0.627145
    O   O48   0.495877  0.553206  0.435558  -0.627116
    C   C125  0.061105  0.058329  0.493704  0.821785
    C   C126  0.938895  0.058329  0.506296  0.821590
    C   C127  0.561105  0.558329  0.493704  0.821734
    C   C128  0.438895  0.558329  0.506296  0.821737
    Cu  Cu9   0.538178  0.499624  0.418935  0.967995
    Cu  Cu10  0.461823  0.499624  0.581065  0.967992
    Cu  Cu11  0.038178  0.999624  0.418935  0.967934
    Cu  Cu12  0.961823  0.999624  0.581065  0.967984
    C   C129  0.311526  0.307161  0.638410  0.550910
    O   O49   0.266856  0.287923  0.663250  -0.437634
    O   O50   0.332039  0.299050  0.676849  -0.571332
    H   H61   0.305931  0.275947  0.721820  0.409866
    C   C130  0.688474  0.307161  0.361590  0.551049
    O   O51   0.733144  0.287923  0.336749  -0.437683
    O   O52   0.667961  0.299050  0.323151  -0.571264
    H   H62   0.694069  0.275947  0.278179  0.409798
    C   C131  0.811526  0.807161  0.638410  0.550907
    O   O53   0.766856  0.787923  0.663250  -0.437641
    O   O54   0.832039  0.799050  0.676849  -0.571327
    H   H63   0.805931  0.775947  0.721820  0.409864
    C   C132  0.188474  0.807161  0.361590  0.551014
    O   O55   0.233144  0.787923  0.336749  -0.437664
    O   O56   0.167961  0.799050  0.323151  -0.571257
    H   H64   0.194069  0.775947  0.278179  0.409796
