# Generated by REPEAT Assigner based on pymatgen
data_DB0-m2_o7_o28_f0_pcu.sym.111_sqe
_audit_creation_date              2022-05-24
_audit_creation_method            REPEAT_Assigner
_cell_length_a                    17.678275
_cell_length_b                    16.219575
_cell_length_c                    23.381335
_cell_angle_alpha                 90.000000
_cell_angle_beta                  90.013221
_cell_angle_gamma                 90.000000
_cell_volume                      6704.226003
_symmetry_space_group_name_H-M    P1
_symmetry_Int_Tables_number       1
loop_
    _symmetry_equiv_pos_site_id
    _symmetry_equiv_pos_as_xyz
    1  x,y,z
loop_
    _atom_site_type_symbol
    _atom_site_label
    _atom_site_fract_x
    _atom_site_fract_y
    _atom_site_fract_z
    _atom_type_partial_charge
    O   O1   0.389759  0.569774  0.502204  -0.654958
    O   O2   0.610331  0.430065  0.497667  -0.648244
    O   O3   0.609583  0.571573  0.504036  -0.584570
    O   O4   0.390498  0.428528  0.495557  -0.593103
    C   C1   0.354648  0.499071  0.498796  0.668536
    C   C2   0.645493  0.500880  0.501301  0.651393
    O   O5   0.503734  0.573419  0.418031  -0.512367
    O   O6   0.496315  0.426778  0.581650  -0.505688
    O   O7   0.501322  0.567915  0.584184  -0.596754
    O   O8   0.499130  0.431905  0.415490  -0.597946
    C   C3   0.502655  0.503656  0.389751  0.612852
    C   C4   0.498008  0.496357  0.610095  0.601831
    Cu  Cu1  0.499394  0.582314  0.501146  1.006360
    Cu  Cu2  0.500634  0.417667  0.498350  0.999383
    C   C5   0.546476  0.448391  0.881739  0.415884
    C   C6   0.453616  0.551686  0.118288  0.417012
    N   N1   0.499857  0.499727  0.853107  -0.156401
    N   N2   0.500352  0.500331  0.146843  -0.159246
    C   C7   0.453467  0.551434  0.881640  0.430380
    C   C8   0.546630  0.448580  0.118286  0.432849
    C   C9   0.453062  0.552503  0.940812  -0.101101
    C   C10  0.546884  0.447470  0.059147  -0.100560
    C   C11  0.500051  0.500123  0.970500  0.088293
    C   C12  0.499817  0.499872  0.029510  0.087166
    C   C13  0.547162  0.447798  0.940879  -0.066425
    C   C14  0.452755  0.552263  0.059135  -0.067277
    C   C15  0.405577  0.605016  0.970493  -0.077104
    C   C16  0.594440  0.395053  0.029455  -0.078316
    C   C17  0.405372  0.604877  0.029411  -0.095537
    C   C18  0.594623  0.395279  0.970556  -0.095418
    O   O9   0.593430  0.398690  0.852517  -0.494763
    O   O10  0.406633  0.601271  0.147591  -0.494298
    O   O11  0.406144  0.600638  0.852324  -0.484382
    O   O12  0.593882  0.399250  0.147548  -0.485662
    H   H1   0.368023  0.646760  0.948406  0.136250
    H   H2   0.632114  0.353413  0.051552  0.136792
    H   H3   0.367888  0.646743  0.051503  0.145475
    H   H4   0.632218  0.353584  0.948423  0.145646
    C   C19  0.522060  0.572288  0.236390  -0.207789
    C   C20  0.478043  0.427648  0.763437  -0.205279
    H   H5   0.538560  0.626216  0.212331  0.165372
    H   H6   0.461544  0.373618  0.787349  0.165479
    C   C21  0.523256  0.574809  0.295279  0.043572
    C   C22  0.476607  0.425321  0.704539  0.038833
    C   C23  0.503098  0.505056  0.326657  -0.043899
    C   C24  0.497081  0.495064  0.673215  -0.037556
    C   C25  0.482776  0.434009  0.297665  -0.104664
    C   C26  0.517171  0.566131  0.702416  -0.103025
    H   H7   0.466166  0.379298  0.320869  0.141168
    H   H8   0.533525  0.621262  0.679565  0.140695
    C   C27  0.481858  0.432265  0.238642  -0.169122
    C   C28  0.518167  0.567737  0.761327  -0.172272
    H   H9   0.464769  0.376840  0.216327  0.152029
    H   H10  0.534983  0.623585  0.783250  0.153134
    C   C29  0.501399  0.501512  0.207862  0.250125
    C   C30  0.498912  0.498374  0.792064  0.248627
    C   C31  0.846001  0.573711  0.504304  -0.247692
    C   C32  0.153960  0.426322  0.495611  -0.246435
    C   C33  0.154480  0.573070  0.502027  -0.290517
    C   C34  0.845496  0.426910  0.497843  -0.292550
    H   H11  0.876934  0.631095  0.506755  0.152212
    H   H12  0.123015  0.369028  0.492932  0.151652
    H   H13  0.124081  0.630792  0.504381  0.160764
    H   H14  0.875801  0.369033  0.495211  0.161353
    C   C35  0.768009  0.574261  0.504632  -0.099470
    C   C36  0.231929  0.425658  0.495343  -0.098454
    C   C37  0.232473  0.572780  0.501857  -0.015799
    C   C38  0.767532  0.427241  0.498087  -0.016701
    H   H15  0.738719  0.632482  0.507317  0.135195
    H   H16  0.260954  0.367234  0.492605  0.135240
    H   H17  0.262074  0.631011  0.504375  0.102246
    H   H18  0.737922  0.369042  0.495482  0.103076
    C   C39  0.728371  0.500914  0.501455  -0.047878
    C   C40  0.271684  0.499053  0.498591  -0.055758
    C   C41  0.884747  0.500176  0.500793  0.368183
    C   C42  0.115265  0.499851  0.499050  0.367188
    C   C43  0.965936  0.500056  0.500121  -0.185336
    C   C44  0.034103  0.500017  0.499585  -0.185095
    C   C45  0.545691  0.832212  0.538592  -0.327078
    C   C46  0.453791  0.167534  0.461215  -0.336575
    C   C47  0.452060  0.830925  0.465739  -0.377052
    C   C48  0.547490  0.169176  0.534001  -0.391698
    H   H19  0.582788  0.865198  0.567265  0.165806
    H   H20  0.416335  0.133367  0.433366  0.168766
    H   H21  0.414907  0.863399  0.436642  0.180284
    H   H22  0.584108  0.137556  0.563747  0.183511
    C   C49  0.545236  0.747246  0.538762  0.124199
    C   C50  0.454317  0.252744  0.460983  0.120264
    C   C51  0.452840  0.745897  0.467013  0.249318
    C   C52  0.546683  0.253952  0.532804  0.267517
    H   H23  0.582129  0.714016  0.567371  0.100200
    H   H24  0.417550  0.285726  0.431943  0.105363
    H   H25  0.415999  0.711794  0.438518  0.061924
    H   H26  0.583417  0.288168  0.561074  0.054384
    N   N3   0.499151  0.705466  0.503735  -0.230507
    N   N4   0.501065  0.294449  0.496518  -0.233951
    C   C53  0.498923  0.874442  0.501740  0.411347
    C   C54  0.500737  0.125556  0.498017  0.427328
    C   C55  0.499826  0.962882  0.500520  -0.164860
    C   C56  0.500245  0.037144  0.499398  -0.174590
    C   C57  0.548653  0.649878  0.321703  0.324566
    N   N5   0.569198  0.710391  0.342819  -0.435442
    C   C58  0.451370  0.350188  0.678107  0.326844
    N   N6   0.431005  0.289530  0.657091  -0.436701
