# Generated by REPEAT Assigner based on pymatgen
data_DB0-m9_o1_o4_f0_sra.sym.6
_audit_creation_date              2022-05-24
_audit_creation_method            REPEAT_Assigner
_cell_length_a                    6.827792
_cell_length_b                    13.902555
_cell_length_c                    16.056609
_cell_angle_alpha                 89.990129
_cell_angle_beta                  90.006003
_cell_angle_gamma                 90.006480
_cell_volume                      1524.153580
_symmetry_space_group_name_H-M    P1
_symmetry_Int_Tables_number       1
loop_
    _symmetry_equiv_pos_site_id
    _symmetry_equiv_pos_as_xyz
    1  x,y,z
loop_
    _atom_site_type_symbol
    _atom_site_label
    _atom_site_fract_x
    _atom_site_fract_y
    _atom_site_fract_z
    _atom_type_partial_charge
    O   O1   0.514337  0.582212  0.409429  -0.520059
    O   O2   0.171495  0.600746  0.585329  -0.385012
    O   O3   0.014026  0.420070  0.589876  -0.539860
    C   C1   0.346430  0.617134  0.616629  0.413838
    O   O4   0.171756  0.600689  0.414310  -0.569746
    O   O5   0.014217  0.420011  0.409717  -0.453726
    C   C2   0.346541  0.616420  0.382690  0.556897
    O   O6   0.514048  0.582923  0.589591  -0.427857
    O   O7   0.339891  0.443291  0.499854  -0.523198
    V   V1   0.065451  0.512804  0.499809  1.400413
    O   O8   0.671720  0.401549  0.414567  -0.475020
    C   C3   0.846514  0.385514  0.382952  0.468094
    O   O9   0.671344  0.402320  0.585573  -0.519315
    C   C4   0.845957  0.386212  0.616880  0.590210
    V   V2   0.565434  0.489830  0.499756  1.360312
    O   O10  0.840081  0.559342  0.499721  -0.475293
    C   C5   0.028269  0.287397  0.718028  0.050707
    C   C6   0.854478  0.317908  0.685487  -0.112250
    C   C7   0.685951  0.280372  0.720680  -0.100504
    H   H1   0.545382  0.302509  0.697275  0.083350
    C   C8   0.697577  0.214376  0.785912  -0.124008
    H   H2   0.566495  0.185107  0.813278  0.117151
    C   C9   0.877428  0.185372  0.816447  -0.113932
    C   C10  0.039663  0.224665  0.779883  0.049523
    C   C11  0.256066  0.222400  0.780442  -0.040843
    C   C12  0.242181  0.296466  0.707413  -0.002814
    H   H3   0.312015  0.151141  0.760495  0.038585
    H   H4   0.316260  0.253648  0.838617  0.068511
    H   H5   0.289566  0.266932  0.646450  0.073603
    H   H6   0.293983  0.369585  0.724206  0.030398
    C   C13  0.047066  0.227338  0.216072  -0.166129
    H   H7   0.187449  0.209322  0.189145  0.148175
    C   C14  0.036349  0.292909  0.280423  -0.115417
    H   H8   0.168402  0.326189  0.303865  0.110205
    C   C15  0.857353  0.316082  0.314871  0.065036
    C   C16  0.689034  0.273537  0.284880  -0.155644
    H   H9   0.548643  0.291586  0.311783  0.137841
    C   C17  0.699754  0.207959  0.220535  -0.118645
    H   H10  0.567694  0.174706  0.197071  0.111672
    C   C18  0.878741  0.184810  0.186067  0.075454
    C   C19  0.188975  0.728148  0.715508  0.113195
    C   C20  0.199689  0.793016  0.780399  -0.214558
    H   H11  0.067613  0.825939  0.804165  0.141679
    C   C21  0.378717  0.815946  0.814968  0.111556
    C   C22  0.547074  0.773911  0.784514  -0.220580
    H   H12  0.687503  0.791787  0.811488  0.147968
    C   C23  0.536334  0.709016  0.719649  -0.124477
    H   H13  0.668363  0.676036  0.695914  0.147495
    C   C24  0.357319  0.686081  0.685085  0.063339
    C   C25  0.188900  0.727432  0.284442  -0.149407
    H   H14  0.048569  0.709473  0.311460  0.145330
    C   C26  0.199683  0.792588  0.219918  -0.138897
    H   H15  0.067765  0.825806  0.196279  0.116645
    C   C27  0.378800  0.815439  0.185549  0.099496
    C   C28  0.547230  0.773214  0.215581  -0.173199
    H   H16  0.687570  0.791211  0.188590  0.147601
    C   C29  0.536446  0.708057  0.280107  -0.123302
    H   H17  0.668376  0.674877  0.303773  0.120108
    C   C30  0.357333  0.685232  0.314494  0.056291
    O   O11  0.221986  0.918844  0.910680  -0.510376
    O   O12  0.564394  0.900299  0.085928  -0.516200
    O   O13  0.721823  0.080975  0.091168  -0.487243
    C   C31  0.389601  0.884438  0.117494  0.477721
    O   O14  0.564575  0.901013  0.914870  -0.524664
    O   O15  0.722017  0.081770  0.911051  -0.527290
    C   C32  0.389621  0.884753  0.883529  0.539415
    O   O16  0.221804  0.918751  0.090856  -0.482944
    O   O17  0.396147  0.058110  0.000880  -0.536634
    V   V3   0.670621  0.988613  0.000743  1.464755
    O   O18  0.064691  0.099624  0.915089  -0.540629
    C   C33  0.889687  0.115910  0.884069  0.611292
    O   O19  0.064284  0.099629  0.086154  -0.518476
    C   C34  0.889529  0.115533  0.117869  0.490779
    V   V4   0.170616  0.011743  0.000668  1.456540
    O   O20  0.896040  0.942142  0.000587  -0.542529
    Cl  Cl1  0.961565  0.699212  0.671777  -0.130502
