data_DB0-m29_o92_o550_f0_pts.sym.7_repeat
_audit_creation_date              2024-02-23
_audit_creation_method            'Materials Studio'
_symmetry_space_group_name_H-M    'P1'
_symmetry_Int_Tables_number       1
_symmetry_cell_setting            triclinic
loop_
_symmetry_equiv_pos_as_xyz
  x,y,z
_cell_length_a                    16.2925
_cell_length_b                    22.4410
_cell_length_c                    12.9801
_cell_angle_alpha                 116.5183
_cell_angle_beta                  91.7122
_cell_angle_gamma                 77.5401
loop_
_atom_site_label
_atom_site_type_symbol
_atom_site_fract_x
_atom_site_fract_y
_atom_site_fract_z
_atom_site_U_iso_or_equiv
_atom_site_adp_type
_atom_site_occupancy
H1     H     0.19962   0.31280   0.32663   0.00000  Uiso   1.00
C1     C     0.23825   0.96255   0.11866   0.00000  Uiso   1.00
C2     C     0.19999   0.90882   0.09023   0.00000  Uiso   1.00
C3     C     0.11390   0.92063   0.10412   0.00000  Uiso   1.00
C4     C     0.06559   0.98622   0.14650   0.00000  Uiso   1.00
C5     C     0.10330   0.04113   0.17556   0.00000  Uiso   1.00
C6     C     0.19027   0.02918   0.16134   0.00000  Uiso   1.00
C7     C     0.05478   0.10757   0.21877   0.00000  Uiso   1.00
C8     C     0.09318   0.16199   0.24714   0.00000  Uiso   1.00
C9     C     0.18013   0.15003   0.23277   0.00000  Uiso   1.00
C10    C     0.22868   0.08361   0.18984   0.00000  Uiso   1.00
C11    C     0.04518   0.22862   0.29009   0.00000  Uiso   1.00
C12    C     0.08328   0.28241   0.31736   0.00000  Uiso   1.00
C13    C     0.16950   0.27055   0.30393   0.00000  Uiso   1.00
C14    C     0.21779   0.20495   0.26176   0.00000  Uiso   1.00
H2     H     0.30609   0.95021   0.10552   0.00000  Uiso   1.00
H3     H     0.23780   0.85722   0.05683   0.00000  Uiso   1.00
H4     H     0.08401   0.87832   0.08183   0.00000  Uiso   1.00
H5     H     0.99829   0.99250   0.15644   0.00000  Uiso   1.00
H6     H     0.97739   0.24095   0.30428   0.00000  Uiso   1.00
H7     H     0.28510   0.19869   0.25217   0.00000  Uiso   1.00
C15    C     0.36618   0.05941   0.08504   0.00000  Uiso   1.00
H8     H     0.33311   0.06011   0.01200   0.00000  Uiso   1.00
C16    C     0.45309   0.04987   0.08313   0.00000  Uiso   1.00
C17    C     0.49353   0.04941   0.17789   0.00000  Uiso   1.00
H9     H     0.56080   0.04480   0.18014   0.00000  Uiso   1.00
C18    C     0.44806   0.06572   0.27797   0.00000  Uiso   1.00
C19    C     0.36160   0.07715   0.28128   0.00000  Uiso   1.00
H10    H     0.32544   0.09182   0.36074   0.00000  Uiso   1.00
C20    C     0.32078   0.07142   0.18373   0.00000  Uiso   1.00
C21    C     0.92172   0.11472   0.12794   0.00000  Uiso   1.00
H11    H     0.95773   0.10041   0.04855   0.00000  Uiso   1.00
C22    C     0.83525   0.12625   0.13150   0.00000  Uiso   1.00
C23    C     0.78991   0.14214   0.23146   0.00000  Uiso   1.00
H12    H     0.72264   0.14668   0.22928   0.00000  Uiso   1.00
C24    C     0.83052   0.14120   0.32583   0.00000  Uiso   1.00
C25    C     0.91746   0.13131   0.32351   0.00000  Uiso   1.00
H13    H     0.95066   0.13010   0.39615   0.00000  Uiso   1.00
C26    C     0.96270   0.11978   0.22505   0.00000  Uiso   1.00
O1     O     0.69929   0.14573   0.40769   0.00000  Uiso   1.00
C27    C     0.78089   0.13967   0.41676   0.00000  Uiso   1.00
O2     O     0.76058   0.98679   0.37113   0.00000  Uiso   1.00
O3     O     0.81817   0.11954   0.49045   0.00000  Uiso   1.00
O4     O     0.70012   0.04863   0.55373   0.00000  Uiso   1.00
C28    C     0.75354   0.99490   0.47732   0.00000  Uiso   1.00
Fe1    Fe    0.63965   0.11088   0.49211   0.00000  Uiso   1.00
O5     O     0.56931   0.05210   0.37922   0.00000  Uiso   1.00
O6     O     0.46380   0.14710   0.46781   0.00000  Uiso   1.00
C29    C     0.49148   0.08553   0.38384   0.00000  Uiso   1.00
O7     O     0.58387   0.19831   0.62812   0.00000  Uiso   1.00
O8     O     0.52391   0.12491   0.65946   0.00000  Uiso   1.00
C30    C     0.53525   0.18691   0.69300   0.00000  Uiso   1.00
O9     O     0.69833   0.99448   0.78206   0.00000  Uiso   1.00
O10    O     0.75964   0.06711   0.75028   0.00000  Uiso   1.00
C31    C     0.74731   0.00541   0.71690   0.00000  Uiso   1.00
O11    O     0.71430   0.14070   0.03028   0.00000  Uiso   1.00
O12    O     0.81867   0.04488   0.94218   0.00000  Uiso   1.00
C32    C     0.79179   0.10672   0.02571   0.00000  Uiso   1.00
O13    O     0.46569   0.06962   0.91641   0.00000  Uiso   1.00
O14    O     0.58259   0.14442   0.85684   0.00000  Uiso   1.00
C33    C     0.52678   0.19676   0.93190   0.00000  Uiso   1.00
O15    O     0.58396   0.04760   0.00371   0.00000  Uiso   1.00
C34    C     0.50284   0.05146   0.99235   0.00000  Uiso   1.00
O16    O     0.51802   0.20404   0.03734   0.00000  Uiso   1.00
Fe2    Fe    0.64324   0.08215   0.91831   0.00000  Uiso   1.00
C35    C     0.24723   0.41250   0.82920   0.00000  Uiso   1.00
O17    O     0.21050   0.37306   0.85737   0.00000  Uiso   1.00
N1     N     0.33175   0.40390   0.82739   0.00000  Uiso   1.00
C36    C     0.36953   0.44198   0.79656   0.00000  Uiso   1.00
C37    C     0.43725   0.29751   0.76939   0.00000  Uiso   1.00
C38    C     0.48272   0.24498   0.79047   0.00000  Uiso   1.00
C39    C     0.42039   0.30427   0.98455   0.00000  Uiso   1.00
C40    C     0.37323   0.35521   0.96109   0.00000  Uiso   1.00
C41    C     0.38171   0.35223   0.85344   0.00000  Uiso   1.00
C42    C     0.23576   0.49938   0.76654   0.00000  Uiso   1.00
C43    C     0.19842   0.46022   0.79891   0.00000  Uiso   1.00
C44    C     0.11248   0.46788   0.79858   0.00000  Uiso   1.00
C45    C     0.32209   0.49007   0.76602   0.00000  Uiso   1.00
C46    C     0.47560   0.24843   0.90018   0.00000  Uiso   1.00
H14    H     0.41316   0.30898   0.07050   0.00000  Uiso   1.00
H15    H     0.33028   0.39797   0.02815   0.00000  Uiso   1.00
H16    H     0.08130   0.43710   0.82148   0.00000  Uiso   1.00
C47    C     0.80431   0.94285   0.50853   0.00000  Uiso   1.00
C48    C     0.05147   0.60625   0.71003   0.00000  Uiso   1.00
C49    C     0.17854   0.63037   0.66238   0.00000  Uiso   1.00
C50    C     0.09111   0.64196   0.67050   0.00000  Uiso   1.00
C51    C     0.96354   0.62206   0.72171   0.00000  Uiso   1.00
C52    C     0.91693   0.66996   0.69181   0.00000  Uiso   1.00
C53    C     0.95620   0.70384   0.64978   0.00000  Uiso   1.00
C54    C     0.04288   0.68987   0.63909   0.00000  Uiso   1.00
C55    C     0.08069   0.72470   0.59717   0.00000  Uiso   1.00
C56    C     0.03210   0.77301   0.56805   0.00000  Uiso   1.00
N2     N     0.94721   0.78631   0.57993   0.00000  Uiso   1.00
C57    C     0.90895   0.75224   0.61980   0.00000  Uiso   1.00
C58    C     0.84434   0.89439   0.63984   0.00000  Uiso   1.00
C59    C     0.79884   0.94698   0.61890   0.00000  Uiso   1.00
C60    C     0.85736   0.88593   0.42299   0.00000  Uiso   1.00
C61    C     0.90401   0.83459   0.44590   0.00000  Uiso   1.00
C62    C     0.89769   0.83849   0.55455   0.00000  Uiso   1.00
O18    O     0.82434   0.76470   0.62883   0.00000  Uiso   1.00
C63    C     0.10020   0.55635   0.73775   0.00000  Uiso   1.00
C64    C     0.18744   0.54699   0.73453   0.00000  Uiso   1.00
C65    C     0.22687   0.58467   0.69938   0.00000  Uiso   1.00
C66    C     0.06404   0.51489   0.76819   0.00000  Uiso   1.00
H17    H     0.84066   0.89857   0.72592   0.00000  Uiso   1.00
H18    H     0.84903   0.68045   0.70297   0.00000  Uiso   1.00
H19    H     0.92717   0.59984   0.75674   0.00000  Uiso   1.00
H20    H     0.99791   0.51564   0.76733   0.00000  Uiso   1.00
O19    O     0.45372   0.43362   0.79681   0.00000  Uiso   1.00
C67    C     0.36077   0.52919   0.73561   0.00000  Uiso   1.00
H21    H     0.44232   0.29409   0.68398   0.00000  Uiso   1.00
H22    H     0.42822   0.52414   0.73651   0.00000  Uiso   1.00
C68    C     0.21541   0.66469   0.61621   0.00000  Uiso   1.00
C69    C     0.16712   0.71122   0.58469   0.00000  Uiso   1.00
O20    O     0.06972   0.80850   0.53124   0.00000  Uiso   1.00
C70    C     0.31412   0.57598   0.70336   0.00000  Uiso   1.00
H23    H     0.28220   0.65620   0.60008   0.00000  Uiso   1.00
H24    H     0.86313   0.88056   0.33641   0.00000  Uiso   1.00
H25    H     0.19883   0.73662   0.54986   0.00000  Uiso   1.00
H26    H     0.94483   0.79084   0.37760   0.00000  Uiso   1.00
H27    H     0.34966   0.60550   0.68451   0.00000  Uiso   1.00
O21    O     0.03549   0.34785   0.36233   0.00000  Uiso   1.00
C71    C     0.02340   0.36314   0.26901   0.00000  Uiso   1.00
H28    H     0.03102   0.31546   0.18679   0.00000  Uiso   1.00
H29    H     0.06984   0.39228   0.26702   0.00000  Uiso   1.00
H30    H     0.95870   0.39448   0.27877   0.00000  Uiso   1.00
