# Generated by REPEAT Assigner based on pymatgen
data_DB0-m3_o9_o29_f0_pcu.sym.11
_audit_creation_date              2022-05-24
_audit_creation_method            REPEAT_Assigner
_cell_length_a                    27.485127
_cell_length_b                    27.640547
_cell_length_c                    9.581131
_cell_angle_alpha                 90.008103
_cell_angle_beta                  90.006234
_cell_angle_gamma                 90.000000
_cell_volume                      7278.823105
_symmetry_space_group_name_H-M    P1
_symmetry_Int_Tables_number       1
loop_
    _symmetry_equiv_pos_site_id
    _symmetry_equiv_pos_as_xyz
    1  x,y,z
loop_
    _atom_site_type_symbol
    _atom_site_label
    _atom_site_fract_x
    _atom_site_fract_y
    _atom_site_fract_z
    _atom_type_partial_charge
    O   O1   0.486616  0.430981  0.642159  -0.861451
    O   O2   0.513236  0.569319  0.358174  -0.856418
    O   O3   0.500465  0.426431  0.404094  -0.562543
    O   O4   0.499404  0.573875  0.596321  -0.565041
    C   C1   0.494059  0.405780  0.526091  0.820101
    C   C2   0.505802  0.594529  0.474267  0.819471
    O   O5   0.422736  0.506934  0.599498  -0.615506
    O   O6   0.577120  0.493412  0.400933  -0.622336
    O   O7   0.433148  0.504663  0.360549  -0.537716
    O   O8   0.566711  0.495652  0.639902  -0.539905
    C   C3   0.405357  0.507725  0.472442  0.505860
    C   C4   0.594507  0.492753  0.527998  0.516441
    Zn  Zn1  0.493505  0.503839  0.656556  1.108264
    Zn  Zn2  0.506351  0.496465  0.343861  1.108198
    C   C5   0.561122  0.564894  0.146685  -0.853682
    C   C6   0.438881  0.434929  0.853948  -0.858090
    C   C7   0.601619  0.579909  0.071315  0.559244
    C   C8   0.398574  0.419529  0.929442  0.553064
    C   C9   0.636339  0.608608  0.132616  -0.398791
    C   C10  0.363931  0.390766  0.868000  -0.399495
    H   H1   0.595123  0.602126  0.456630  0.151137
    H   H2   0.404647  0.398559  0.543788  0.152964
    C   C11  0.633254  0.616977  0.272957  0.005338
    C   C12  0.366859  0.382784  0.727452  0.006960
    H   H3   0.663693  0.632572  0.328481  0.130710
    H   H4   0.336400  0.367250  0.671876  0.132334
    C   C13  0.176206  0.476701  0.381050  0.444311
    C   C14  0.824750  0.519745  0.630448  0.439583
    O   O9   0.201837  0.440990  0.320622  -0.539157
    O   O10  0.800084  0.553175  0.703692  -0.537593
    N   N1   0.199746  0.515011  0.435609  -0.178736
    N   N2   0.800245  0.484583  0.563067  -0.172989
    C   C15  0.174748  0.550562  0.499625  0.422939
    C   C16  0.824414  0.451436  0.486737  0.418404
    C   C17  0.274224  0.513365  0.569498  -0.218548
    C   C18  0.725656  0.491145  0.430738  -0.227042
    C   C19  0.324061  0.511320  0.578313  -0.089943
    C   C20  0.675828  0.493165  0.422423  -0.081279
    C   C21  0.329720  0.514006  0.329800  -0.177347
    C   C22  0.670207  0.484202  0.669716  -0.164760
    C   C23  0.279457  0.515472  0.321169  -0.198899
    C   C24  0.720490  0.482330  0.677856  -0.209835
    C   C25  0.251612  0.515120  0.441389  0.318755
    C   C26  0.748339  0.485685  0.557927  0.323728
    C   C27  0.100029  0.508173  0.461574  0.117661
    C   C28  0.900077  0.490406  0.537332  0.107243
    C   C29  0.126135  0.472899  0.393142  -0.143091
    C   C30  0.874880  0.523011  0.618457  -0.136618
    C   C31  0.102343  0.433008  0.341807  -0.037536
    C   C32  0.899791  0.559333  0.685237  -0.047594
    C   C33  0.124727  0.547587  0.513285  -0.116173
    C   C34  0.874443  0.453968  0.472943  -0.110347
    C   C35  0.352258  0.511263  0.458642  0.087157
    C   C36  0.647640  0.489862  0.541670  0.071731
    H   H5   0.351032  0.514991  0.235255  0.157964
    H   H6   0.648897  0.480837  0.763893  0.156116
    H   H7   0.262050  0.517189  0.220093  0.148243
    H   H8   0.737867  0.477724  0.778218  0.151304
    H   H9   0.121883  0.404290  0.289749  0.121120
    H   H10  0.881284  0.584796  0.752334  0.123369
    C   C37  0.550250  0.588969  0.271963  1.410087
    C   C38  0.449734  0.411114  0.728336  1.421312
    C   C39  0.974960  0.460661  0.439005  0.021193
    C   C40  0.024757  0.538912  0.554277  0.053001
    C   C41  0.974944  0.532935  0.580174  0.043670
    C   C42  0.025622  0.464062  0.424777  0.073029
    C   C43  0.950179  0.494585  0.519143  0.032185
    C   C44  0.049953  0.503767  0.479899  0.010272
    C   C45  0.948107  0.424259  0.374033  -0.184158
    C   C46  0.050162  0.579638  0.599644  -0.209912
    C   C47  0.898665  0.421031  0.391202  -0.057863
    C   C48  0.099430  0.583692  0.579825  -0.051959
    H   H11  0.537994  0.623196  0.231442  -0.151168
    H   H12  0.462124  0.376839  0.768302  -0.151425
    C   C49  0.479319  0.538245  0.066472  0.009584
    C   C50  0.520602  0.461571  0.934349  0.019922
    H   H13  0.462846  0.569375  0.115471  0.099778
    H   H14  0.537070  0.430438  0.885327  0.097209
    O   O11  0.799542  0.415898  0.422854  -0.526523
    O   O12  0.198810  0.588858  0.551673  -0.529293
    C   C51  0.052912  0.428499  0.357352  -0.220838
    C   C52  0.949093  0.564184  0.667134  -0.193185
    H   H15  0.659631  0.497969  0.320638  0.122463
    H   H16  0.340240  0.509205  0.680880  0.120889
    H   H17  0.746974  0.494731  0.336473  0.156608
    H   H18  0.252814  0.512374  0.664115  0.155682
    H   H19  0.879456  0.392455  0.337499  0.125357
    H   H20  0.117605  0.615664  0.618440  0.125291
    H   H21  0.963509  0.397957  0.304419  0.127047
    H   H22  0.033207  0.610199  0.648949  0.141190
    H   H23  0.037856  0.395358  0.317978  0.142527
    H   H24  0.965721  0.592684  0.726604  0.127471
    H   H25  0.668201  0.619727  0.074755  0.159013
    H   H26  0.332188  0.379364  0.925948  0.158827
    C   C53  0.540811  0.176980  0.492777  0.411801
    C   C54  0.458628  0.823647  0.497017  0.393488
    O   O13  0.581818  0.202208  0.469602  -0.528273
    O   O14  0.416965  0.798647  0.510796  -0.523894
    N   N3   0.498845  0.200724  0.516736  -0.095624
    N   N4   0.501097  0.799714  0.483827  -0.089504
    C   C55  0.457228  0.176007  0.537206  0.414812
    C   C56  0.543261  0.824363  0.473952  0.404701
    C   C57  0.470308  0.277566  0.423995  -0.237536
    C   C58  0.528324  0.722678  0.579187  -0.246992
    C   C59  0.469321  0.327410  0.426706  -0.037101
    C   C60  0.529450  0.672842  0.575961  -0.028447
    C   C61  0.524518  0.327350  0.619004  0.510620
    C   C62  0.476160  0.673057  0.379379  0.519904
    C   C63  0.525809  0.277450  0.615497  -0.372690
    C   C64  0.475113  0.722960  0.382455  -0.382727
    C   C65  0.498243  0.252354  0.519080  0.290273
    C   C66  0.501607  0.748032  0.481461  0.300442
    C   C67  0.499484  0.100915  0.508964  0.108429
    C   C68  0.500526  0.899586  0.491298  0.083657
    C   C69  0.541596  0.126913  0.488540  -0.126456
    C   C70  0.457862  0.873720  0.500262  -0.100511
    C   C71  0.584249  0.102817  0.461700  -0.033413
    C   C72  0.414479  0.897983  0.512007  -0.046299
    C   C73  0.457077  0.125950  0.533693  -0.133773
    C   C74  0.543463  0.874415  0.478165  -0.116364
    C   C75  0.495119  0.352524  0.526931  -0.372582
    C   C76  0.504702  0.647794  0.473463  -0.383758
    H   H27  0.548223  0.258095  0.689532  0.185322
    H   H28  0.453640  0.742290  0.306111  0.187679
    H   H29  0.617734  0.122182  0.442568  0.122650
    H   H30  0.380278  0.878782  0.516579  0.124936
    C   C77  0.543753  0.975300  0.483219  0.042964
    C   C78  0.456552  0.025141  0.522569  0.059500
    C   C79  0.456532  0.974534  0.512317  0.041293
    C   C80  0.543220  0.026033  0.482097  0.058325
    C   C81  0.500269  0.949976  0.495586  0.040792
    C   C82  0.499756  0.050527  0.504557  0.020651
    C   C83  0.586890  0.948936  0.473368  -0.199017
    C   C84  0.414355  0.051283  0.551782  -0.208513
    C   C85  0.586581  0.899323  0.470224  -0.042210
    C   C86  0.414711  0.100880  0.556542  -0.033571
    C   C87  0.471272  0.469649  0.923778  0.666322
    C   C88  0.528662  0.530178  0.077003  0.668922
    C   C89  0.592640  0.601709  0.344123  -0.553229
    C   C90  0.407305  0.398460  0.656264  -0.558638
    O   O15  0.585225  0.800117  0.456829  -0.523348
    O   O16  0.415866  0.200242  0.563819  -0.525944
    C   C91  0.585150  0.053207  0.457871  -0.212812
    C   C92  0.413660  0.947575  0.517217  -0.201944
    H   H31  0.550588  0.653509  0.653052  0.134597
    H   H32  0.447415  0.346704  0.351318  0.135377
    H   H33  0.548204  0.741744  0.659550  0.165566
    H   H34  0.449448  0.258347  0.346014  0.163600
    H   H35  0.620981  0.880607  0.462376  0.123397
    H   H36  0.381018  0.119443  0.579009  0.122552
    H   H37  0.622417  0.965040  0.470998  0.134620
    H   H38  0.379875  0.034938  0.575112  0.136796
    H   H39  0.619830  0.037763  0.432023  0.139016
    H   H40  0.377968  0.963254  0.521988  0.136595
    N   N5   0.451588  0.507829  0.990896  -0.597679
    N   N6   0.548323  0.491968  0.009979  -0.603611
    O   O17  0.607828  0.566020  0.935662  -0.551426
    H   H41  0.635907  0.543627  0.938504  0.369133
    O   O18  0.392401  0.433212  0.065228  -0.548168
    H   H42  0.363474  0.454506  0.063064  0.368370
    O   O19  0.553125  0.351716  0.712063  -0.555167
    H   H43  0.584621  0.355765  0.663311  0.370886
    O   O20  0.448167  0.648799  0.284561  -0.557185
    H   H44  0.416298  0.644860  0.331367  0.371881
