# generated using pymatgen
data_CuH15C23NO4
_symmetry_space_group_name_H-M   'P 1'
_cell_length_a   9.54925000
_cell_length_b   10.99355700
_cell_length_c   17.48635600
_cell_angle_alpha   90.00339800
_cell_angle_beta   86.20378700
_cell_angle_gamma   89.99979000
_symmetry_Int_Tables_number   1
_chemical_formula_structural   CuH15C23NO4
_chemical_formula_sum   'Cu2 H30 C46 N2 O8'
_cell_volume   1831.69371487
_cell_formula_units_Z   2
loop_
 _symmetry_equiv_pos_site_id
 _symmetry_equiv_pos_as_xyz
  1  'x, y, z'
loop_
 _atom_site_type_symbol
 _atom_site_label
 _atom_site_symmetry_multiplicity
 _atom_site_fract_x
 _atom_site_fract_y
 _atom_site_fract_z
 _atom_site_occupancy
  Cu  Cu1  1  0.35984600  0.50191600  0.50063800  1
  Cu  Cu2  1  0.64014600  0.49823500  0.49932300  1
  H  H1  1  0.72932300  0.42536000  0.25636700  1
  H  H2  1  0.27069100  0.57483500  0.74358800  1
  H  H3  1  0.61923600  0.40630000  0.99960800  1
  H  H4  1  0.38080700  0.59393000  0.00035200  1
  H  H5  1  0.26077900  0.58808400  0.88268000  1
  H  H6  1  0.73924300  0.41212700  0.11727400  1
  H  H7  1  0.32366500  0.55329000  0.11790500  1
  H  H8  1  0.67634500  0.44687000  0.88205200  1
  H  H9  1  0.96578400  0.91052300  0.55123100  1
  H  H10  1  0.03421000  0.08958100  0.44870000  1
  H  H11  1  0.30635400  0.79548400  0.40117300  1
  H  H12  1  0.69373400  0.20467500  0.59875700  1
  H  H13  1  0.08477600  0.89306100  0.38671600  1
  H  H14  1  0.91522700  0.10699100  0.61327100  1
  H  H15  1  0.20711800  0.18862100  0.51830900  1
  H  H16  1  0.79285800  0.81156700  0.48157200  1
  H  H17  1  0.84559800  0.77919500  0.69046600  1
  H  H18  1  0.15438800  0.22096900  0.30948000  1
  H  H19  1  0.76418500  0.33537300  0.39581000  1
  H  H20  1  0.23579700  0.66474100  0.60417100  1
  H  H21  1  0.89920700  0.22143200  0.30743400  1
  H  H22  1  0.10078200  0.77875200  0.69250900  1
  H  H23  1  0.26371900  0.33196900  0.39964000  1
  H  H24  1  0.73626000  0.66817800  0.60032100  1
  H  H25  1  0.78608500  0.36498600  0.77968500  1
  H  H26  1  0.69057900  0.33160000  0.69808400  1
  H  H27  1  0.78555900  0.47472200  0.70452100  1
  H  H28  1  0.21392700  0.63518900  0.22028400  1
  H  H29  1  0.21445200  0.52540500  0.29541500  1
  H  H30  1  0.30941100  0.66852300  0.30189600  1
  C  C1  1  0.50495000  0.73594000  0.49306000  1
  C  C2  1  0.49504400  0.26421100  0.50690300  1
  C  C3  1  0.48386600  0.50039000  0.64794500  1
  C  C4  1  0.51612500  0.49975800  0.35201600  1
  C  C5  1  0.47865200  0.50089300  0.73279600  1
  C  C6  1  0.52135000  0.49926700  0.26716200  1
  C  C7  1  0.59170900  0.46239000  0.77372000  1
  C  C8  1  0.40830100  0.53777700  0.22623300  1
  C  C9  1  0.58499300  0.47157200  0.85261400  1
  C  C10  1  0.41501800  0.52859700  0.14733900  1
  C  C11  1  0.46654600  0.51593700  0.89267800  1
  C  C12  1  0.53347400  0.48426100  0.10727200  1
  C  C13  1  0.35419100  0.55229000  0.85238500  1
  C  C14  1  0.64582200  0.44790100  0.14756700  1
  C  C15  1  0.35969300  0.54408200  0.77339000  1
  C  C16  1  0.64031600  0.45609800  0.22656400  1
  C  C17  1  0.45836400  0.53029800  0.97685100  1
  C  C18  1  0.54166500  0.46991900  0.02310000  1
  C  C19  1  0.28871900  0.88177600  0.42875100  1
  C  C20  1  0.71131900  0.11836600  0.57119500  1
  C  C21  1  0.16377500  0.93833500  0.41789900  1
  C  C22  1  0.83623600  0.06176800  0.58205800  1
  C  C23  1  0.13668100  0.04897300  0.45103900  1
  C  C24  1  0.86332200  0.95114700  0.54889600  1
  C  C25  1  0.24004600  0.10847000  0.48716900  1
  C  C26  1  0.75996000  0.89168900  0.51274500  1
  C  C27  1  0.37442900  0.05952700  0.48923800  1
  C  C28  1  0.62557900  0.94062600  0.51071000  1
  C  C29  1  0.39095100  0.93727100  0.46974700  1
  C  C30  1  0.60906600  0.06288100  0.53020400  1
  C  C31  1  0.48930200  0.12711900  0.51268000  1
  C  C32  1  0.51070400  0.87303200  0.48727700  1
  C  C33  1  0.87304500  0.34798700  0.39919100  1
  C  C34  1  0.12694000  0.65216100  0.60077100  1
  C  C35  1  0.95053000  0.27893500  0.34720300  1
  C  C36  1  0.04945800  0.72124200  0.65274300  1
  C  C37  1  0.09187800  0.27891200  0.34827500  1
  C  C38  1  0.90810900  0.72125500  0.65167200  1
  C  C39  1  0.15477300  0.34757100  0.40138700  1
  C  C40  1  0.84521100  0.65259200  0.59856200  1
  C  C41  1  0.08070600  0.42727600  0.45194900  1
  C  C42  1  0.91928100  0.57288600  0.54800300  1
  C  C43  1  0.93337400  0.42616300  0.45091800  1
  C  C44  1  0.06661300  0.57398600  0.54904200  1
  C  C45  1  0.72079000  0.40565600  0.73626700  1
  C  C46  1  0.27921600  0.59449200  0.26369100  1
  N  N1  1  0.14880300  0.50240200  0.50051400  1
  N  N2  1  0.85118400  0.49774700  0.49944700  1
  O  O1  1  0.38305800  0.67884200  0.50039200  1
  O  O2  1  0.61692800  0.32131000  0.49957100  1
  O  O3  1  0.62186100  0.67483400  0.49404100  1
  O  O4  1  0.37813400  0.32531800  0.50591900  1
  O  O5  1  0.36710700  0.49967500  0.61221700  1
  O  O6  1  0.63288300  0.50046700  0.38774400  1
  O  O7  1  0.60625100  0.50415100  0.61055800  1
  O  O8  1  0.39373700  0.49600000  0.38940300  1
