# Generated by REPEAT Assigner based on pymatgen
data_DB0-m9_o3_o6_f0_sra.sym.27
_audit_creation_date              2022-05-24
_audit_creation_method            REPEAT_Assigner
_cell_length_a                    27.260200
_cell_length_b                    6.818000
_cell_length_c                    22.981603
_cell_angle_alpha                 90.000000
_cell_angle_beta                  100.540205
_cell_angle_gamma                 90.000000
_cell_volume                      4199.290221
_symmetry_space_group_name_H-M    P1
_symmetry_Int_Tables_number       1
loop_
    _symmetry_equiv_pos_site_id
    _symmetry_equiv_pos_as_xyz
    1  x,y,z
loop_
    _atom_site_type_symbol
    _atom_site_label
    _atom_site_fract_x
    _atom_site_fract_y
    _atom_site_fract_z
    _atom_type_partial_charge
    O  O1   0.300655  0.613924  0.207113  -0.436381
    O  O2   0.699488  0.390706  0.792743  -0.446078
    O  O3   0.199345  0.113923  0.292887  -0.436386
    O  O4   0.800512  0.890706  0.707257  -0.446057
    O  O5   0.192200  0.267509  0.181466  -0.506287
    O  O6   0.807590  0.737275  0.818704  -0.529102
    O  O7   0.307800  0.767508  0.318534  -0.506297
    O  O8   0.692411  0.237275  0.681295  -0.529095
    C  C1   0.172924  0.448247  0.172974  0.563095
    C  C2   0.826994  0.556661  0.827146  0.577809
    C  C3   0.327076  0.948247  0.327026  0.563059
    C  C4   0.673006  0.056662  0.672854  0.577814
    O  O9   0.293194  0.268337  0.189888  -0.365445
    O  O10  0.706591  0.736645  0.810199  -0.352463
    O  O11  0.206806  0.768337  0.310111  -0.365449
    O  O12  0.793409  0.236645  0.689801  -0.352424
    O  O13  0.307270  0.115139  0.301841  -0.452202
    O  O14  0.692613  0.889725  0.698207  -0.433537
    O  O15  0.192730  0.615139  0.198159  -0.452233
    O  O16  0.807387  0.389724  0.801793  -0.433526
    C  C5   0.313652  0.443284  0.185072  0.367884
    C  C6   0.686326  0.560941  0.814852  0.322427
    C  C7   0.186348  0.943284  0.314928  0.367904
    C  C8   0.813674  0.060941  0.685148  0.322388
    O  O17  0.254995  0.436599  0.286167  -0.514040
    O  O18  0.745171  0.568265  0.713752  -0.510400
    O  O19  0.245006  0.936599  0.213833  -0.514025
    O  O20  0.754829  0.068265  0.786247  -0.510405
    V  V1   0.247868  0.164129  0.240556  1.351355
    V  V2   0.751963  0.840694  0.759557  1.412278
    V  V3   0.252132  0.664128  0.259443  1.351546
    V  V4   0.748037  0.340694  0.740443  1.412207
    C  C9   0.875655  0.875470  0.639894  -0.148432
    C  C10  0.120769  0.121935  0.355772  -0.140672
    C  C11  0.624345  0.375470  0.860106  -0.148540
    C  C12  0.379231  0.621935  0.144228  -0.140663
    H  H1   0.866969  0.747799  0.664009  0.128359
    H  H2   0.127412  0.246716  0.329326  0.090884
    H  H3   0.633031  0.247799  0.835991  0.128390
    H  H4   0.372588  0.746717  0.170674  0.090877
    C  C13  0.911022  0.860921  0.603481  -0.045758
    C  C14  0.084750  0.135420  0.391276  0.021041
    C  C15  0.588979  0.360921  0.896519  -0.045630
    C  C16  0.415250  0.635420  0.108724  0.021048
    H  H5   0.929374  0.721988  0.600619  0.080200
    H  H6   0.064085  0.270396  0.391467  0.037203
    H  H7   0.570626  0.221988  0.899381  0.080156
    H  H8   0.435915  0.770397  0.108533  0.037205
    C  C17  0.923149  0.022087  0.572058  -0.043819
    C  C18  0.074652  0.977424  0.425109  -0.077245
    C  C19  0.576851  0.522086  0.927941  -0.043908
    C  C20  0.425349  0.477425  0.074891  -0.077322
    C  C21  0.898744  0.196918  0.578087  -0.092758
    C  C22  0.101690  0.806987  0.422726  -0.049509
    C  C23  0.601256  0.696918  0.921913  -0.092760
    C  C24  0.398310  0.306987  0.077274  -0.049454
    H  H9   0.906434  0.325629  0.554086  0.133497
    H  H10  0.095369  0.681944  0.449150  0.135174
    H  H11  0.593566  0.825628  0.945913  0.133530
    H  H12  0.404631  0.181944  0.050850  0.135149
    C  C25  0.864645  0.214296  0.615753  -0.154706
    C  C26  0.136980  0.790447  0.386482  -0.199292
    C  C27  0.635356  0.714296  0.884247  -0.154764
    C  C28  0.363020  0.290447  0.113518  -0.199316
    C  C29  0.851999  0.051475  0.646693  0.137866
    C  C30  0.147510  0.950541  0.352787  0.100246
    C  C31  0.648002  0.551475  0.853306  0.137921
    C  C32  0.352491  0.450540  0.147213  0.100266
    C  C33  0.980868  0.178462  0.512131  -0.205444
    C  C34  0.016709  0.820430  0.484247  -0.179317
    C  C35  0.519132  0.678462  0.987869  -0.205635
    C  C36  0.483291  0.320430  0.015753  -0.179339
    H  H13  0.968611  0.321729  0.523138  0.122205
    H  H14  0.029443  0.677732  0.473193  0.099955
    H  H15  0.531389  0.821728  0.976862  0.122298
    H  H16  0.470557  0.177732  0.026807  0.099966
    C  C37  0.017041  0.167736  0.476855  -0.220264
    C  C38  0.980304  0.830938  0.519258  -0.214655
    C  C39  0.482959  0.667735  0.023145  -0.220213
    C  C40  0.519696  0.330937  0.980742  -0.214689
    H  H17  0.031330  0.302068  0.461512  0.186346
    H  H18  0.966146  0.696162  0.534418  0.157807
    H  H19  0.468670  0.802068  0.038488  0.186330
    H  H20  0.533854  0.196162  0.965582  0.157792
    C  C41  0.035616  0.988717  0.462609  0.208871
    C  C42  0.961825  0.010174  0.533831  0.205006
    C  C43  0.464384  0.488717  0.037391  0.208941
    C  C44  0.538175  0.510174  0.966168  0.205135
    C  C45  0.472730  0.831731  0.491939  -0.259064
    C  C46  0.527852  0.172202  0.507197  -0.323559
    C  C47  0.027270  0.331730  0.008061  -0.259648
    C  C48  0.972148  0.672202  0.992803  -0.322505
    H  H21  0.451591  0.696723  0.486533  0.212580
    H  H22  0.549058  0.307057  0.512524  0.207405
    H  H23  0.048409  0.196723  0.013467  0.212694
    H  H24  0.950942  0.807056  0.987476  0.207157
    C  C49  0.456340  0.990853  0.455895  0.187343
    C  C50  0.544189  0.013223  0.543331  0.295324
    C  C51  0.043660  0.490853  0.044104  0.187670
    C  C52  0.955811  0.513223  0.956670  0.294198
    C  C53  0.484605  0.161273  0.464057  0.093077
    C  C54  0.516032  0.842513  0.534996  -0.020181
    C  C55  0.015395  0.661273  0.035943  0.092627
    C  C56  0.983968  0.342513  0.965004  -0.019323
    C  C57  0.410643  0.978703  0.410408  -0.128062
    C  C58  0.589761  0.025762  0.588996  -0.166641
    C  C59  0.089358  0.478703  0.089592  -0.128045
    C  C60  0.910239  0.525762  0.911004  -0.166370
    C  C61  0.627653  0.038082  0.627082  -0.077893
    C  C62  0.372604  0.966742  0.372530  -0.109326
    C  C63  0.872347  0.538082  0.872918  -0.077946
    C  C64  0.127396  0.466742  0.127470  -0.109375
    C  C65  0.843533  0.409964  0.621074  0.667442
    O  O21  0.833498  0.466295  0.667800  -0.438081
    O  O22  0.840408  0.540507  0.574010  -0.603581
    H  H25  0.826386  0.670402  0.584616  0.391761
    C  C66  0.162333  0.600147  0.387013  0.747724
    O  O23  0.167301  0.499533  0.431553  -0.550913
    O  O24  0.175381  0.522377  0.336060  -0.510220
    H  H26  0.192613  0.391563  0.345186  0.351702
    C  C67  0.656467  0.909964  0.878926  0.667524
    O  O25  0.666502  0.966295  0.832200  -0.438107
    O  O26  0.659592  0.040507  0.925990  -0.603658
    H  H27  0.673614  0.170402  0.915384  0.391805
    C  C68  0.337667  0.100147  0.112987  0.747718
    O  O27  0.332699  0.999533  0.068447  -0.550907
    O  O28  0.324619  0.022377  0.163940  -0.510205
    H  H28  0.307387  0.891563  0.154814  0.351696
    C  C69  0.532021  0.671044  0.571722  0.591456
    O  O29  0.569815  0.678591  0.609350  -0.444903
    O  O30  0.504251  0.498853  0.563527  -0.540250
    H  H29  0.520477  0.394686  0.592070  0.361079
    C  C70  0.468915  0.331868  0.426820  0.500214
    O  O31  0.493363  0.482532  0.433743  -0.467699
    O  O32  0.426164  0.322172  0.383341  -0.449253
    H  H30  0.420670  0.451688  0.361615  0.360761
    C  C71  0.967979  0.171044  0.928278  0.591219
    O  O33  0.930185  0.178591  0.890650  -0.444853
    O  O34  0.995749  0.998852  0.936473  -0.540257
    H  H31  0.979523  0.894685  0.907930  0.361126
    C  C72  0.031086  0.831868  0.073180  0.500120
    O  O35  0.006637  0.982532  0.066256  -0.467668
    O  O36  0.073837  0.822172  0.116659  -0.449178
    H  H32  0.079330  0.951688  0.138384  0.360751
