# generated using pymatgen
data_ZnH5C16NO4F3
_symmetry_space_group_name_H-M   'P 1'
_cell_length_a   8.51851300
_cell_length_b   12.98157500
_cell_length_c   14.36671800
_cell_angle_alpha   90.62431800
_cell_angle_beta   93.34992200
_cell_angle_gamma   86.45952100
_symmetry_Int_Tables_number   1
_chemical_formula_structural   ZnH5C16NO4F3
_chemical_formula_sum   'Zn2 H10 C32 N2 O8 F6'
_cell_volume   1582.94099968
_cell_formula_units_Z   2
loop_
 _symmetry_equiv_pos_site_id
 _symmetry_equiv_pos_as_xyz
  1  'x, y, z'
loop_
 _atom_site_type_symbol
 _atom_site_label
 _atom_site_symmetry_multiplicity
 _atom_site_fract_x
 _atom_site_fract_y
 _atom_site_fract_z
 _atom_site_occupancy
  Zn  Zn1  1  0.49118900  0.51242200  0.89664300  1
  Zn  Zn2  1  0.50881100  0.48757800  0.10335700  1
  H  H1  1  0.01533300  0.56986000  0.04291500  1
  H  H2  1  0.98466700  0.43014000  0.95708500  1
  H  H3  1  0.70642200  0.83089900  0.99942600  1
  H  H4  1  0.29357800  0.16910200  0.00057400  1
  H  H5  1  0.68391200  0.98491900  0.02766300  1
  H  H6  1  0.31608900  0.01508200  0.97233600  1
  H  H7  1  0.65158400  0.16502300  0.00921400  1
  H  H8  1  0.34841600  0.83497700  0.99078600  1
  H  H9  1  0.49203100  0.67177600  0.57454600  1
  H  H10  1  0.50796900  0.32822400  0.42545400  1
  C  C1  1  0.12661300  0.70765000  0.01893000  1
  C  C2  1  0.87338700  0.29235100  0.98107000  1
  C  C3  1  0.99879000  0.65189800  0.03264900  1
  C  C4  1  0.00121000  0.34810200  0.96735100  1
  C  C5  1  0.84979900  0.69761000  0.02343000  1
  C  C6  1  0.15020100  0.30239000  0.97656900  1
  C  C7  1  0.82676100  0.80193000  0.01062200  1
  C  C8  1  0.17323900  0.19807000  0.98937800  1
  C  C9  1  0.95484500  0.86308300  0.00905500  1
  C  C10  1  0.04515600  0.13691700  0.99094500  1
  C  C11  1  0.10501800  0.81411400  0.00788900  1
  C  C12  1  0.89498200  0.18588600  0.99211100  1
  C  C13  1  0.93501400  0.97114400  0.00504400  1
  C  C14  1  0.06498700  0.02885600  0.99495600  1
  C  C15  1  0.21192200  0.97706800  0.98676500  1
  C  C16  1  0.78807800  0.02293200  0.01323500  1
  C  C17  1  0.23172100  0.87166800  0.99515000  1
  C  C18  1  0.76827900  0.12833200  0.00485000  1
  C  C19  1  0.28304500  0.36725800  0.98402600  1
  C  C20  1  0.71695500  0.63274200  0.01597400  1
  C  C21  1  0.27751000  0.64738300  0.01203200  1
  C  C22  1  0.72249100  0.35261700  0.98796800  1
  C  C23  1  0.50351000  0.58676200  0.44538100  1
  C  C24  1  0.49649100  0.41323800  0.55461900  1
  C  C25  1  0.50830900  0.48979000  0.40488600  1
  C  C26  1  0.49169100  0.51021100  0.59511400  1
  C  C27  1  0.50461400  0.40311600  0.45906000  1
  C  C28  1  0.49538600  0.59688400  0.54094000  1
  C  C29  1  0.51403700  0.47998200  0.30551300  1
  C  C30  1  0.48596300  0.52001900  0.69448700  1
  C  C31  1  0.50692700  0.67883600  0.38444100  1
  C  C32  1  0.49307300  0.32116400  0.61555900  1
  N  N1  1  0.48322200  0.52486000  0.77484900  1
  N  N2  1  0.51677900  0.47514000  0.22515100  1
  O  O1  1  0.33950200  0.39054600  0.06787300  1
  O  O2  1  0.66049800  0.60945500  0.93212700  1
  O  O3  1  0.33028400  0.40652800  0.90770000  1
  O  O4  1  0.66971600  0.59347200  0.09230000  1
  O  O5  1  0.32101400  0.61985400  0.92844600  1
  O  O6  1  0.67898700  0.38014600  0.07155400  1
  O  O7  1  0.34058500  0.60338600  0.08841800  1
  O  O8  1  0.65941500  0.39661500  0.91158200  1
  F  F1  1  0.50176100  0.76879500  0.43679600  1
  F  F2  1  0.37857500  0.68104200  0.32088400  1
  F  F3  1  0.64378200  0.67196400  0.33701300  1
  F  F4  1  0.49823900  0.23120500  0.56320400  1
  F  F5  1  0.35621800  0.32803700  0.66298700  1
  F  F6  1  0.62142500  0.31895800  0.67911600  1
