data_DB0-m3_o11_o23_f0_pcu.sym.150_repeat
_audit_creation_date              2024-02-23
_audit_creation_method            'Materials Studio'
_symmetry_space_group_name_H-M    'P1'
_symmetry_Int_Tables_number       1
_symmetry_cell_setting            triclinic
loop_
_symmetry_equiv_pos_as_xyz
  x,y,z
_cell_length_a                    15.9592
_cell_length_b                    11.1363
_cell_length_c                    9.9515
_cell_angle_alpha                 89.9974
_cell_angle_beta                  89.9751
_cell_angle_gamma                 89.9982
loop_
_atom_site_label
_atom_site_type_symbol
_atom_site_fract_x
_atom_site_fract_y
_atom_site_fract_z
_atom_site_U_iso_or_equiv
_atom_site_adp_type
_atom_site_occupancy
O1     O     0.50158   0.31770   0.61181   0.00000  Uiso   1.00
O2     O     0.50051   0.31871   0.37958   0.00000  Uiso   1.00
C1     C     0.50077   0.26229   0.49587   0.00000  Uiso   1.00
O3     O     0.37823   0.49810   0.61956   0.00000  Uiso   1.00
O4     O     0.37719   0.49759   0.38694   0.00000  Uiso   1.00
C2     C     0.33887   0.49827   0.50368   0.00000  Uiso   1.00
Zn1    Zn    0.50333   0.49539   0.65418   0.00000  Uiso   1.00
Zn2    Zn    0.50179   0.49865   0.34795   0.00000  Uiso   1.00
O5     O     0.50369   0.67511   0.62242   0.00000  Uiso   1.00
O6     O     0.50215   0.67659   0.39054   0.00000  Uiso   1.00
O7     O     0.62789   0.49519   0.61500   0.00000  Uiso   1.00
O8     O     0.62684   0.49473   0.38295   0.00000  Uiso   1.00
C3     C     0.50317   0.73190   0.50686   0.00000  Uiso   1.00
C4     C     0.66628   0.49454   0.49854   0.00000  Uiso   1.00
C5     C     0.04853   0.42425   0.62005   0.00000  Uiso   1.00
C6     C     0.05050   0.44864   0.36779   0.00000  Uiso   1.00
C7     C     0.95600   0.45992   0.36154   0.00000  Uiso   1.00
H1     H     0.94190   0.31194   0.56537   0.00000  Uiso   1.00
H2     H     0.07830   0.50193   0.28486   0.00000  Uiso   1.00
H3     H     0.06886   0.35397   0.35265   0.00000  Uiso   1.00
H4     H     0.92842   0.37308   0.32960   0.00000  Uiso   1.00
H5     H     0.93861   0.53023   0.28770   0.00000  Uiso   1.00
C8     C     0.75620   0.49385   0.49788   0.00000  Uiso   1.00
C9     C     0.08181   0.49695   0.50187   0.00000  Uiso   1.00
C10    C     0.95530   0.40394   0.60136   0.00000  Uiso   1.00
C11    C     0.92338   0.49422   0.49919   0.00000  Uiso   1.00
C12    C     0.95479   0.61914   0.53469   0.00000  Uiso   1.00
C13    C     0.04920   0.62406   0.51691   0.00000  Uiso   1.00
C14    C     0.83171   0.49371   0.49823   0.00000  Uiso   1.00
C15    C     0.17347   0.49764   0.50362   0.00000  Uiso   1.00
C16    C     0.24897   0.49808   0.50428   0.00000  Uiso   1.00
H6     H     0.07812   0.66803   0.60550   0.00000  Uiso   1.00
H7     H     0.06473   0.67694   0.42580   0.00000  Uiso   1.00
H8     H     0.93839   0.63994   0.64050   0.00000  Uiso   1.00
H9     H     0.05654   0.47953   0.71185   0.00000  Uiso   1.00
H10    H     0.92298   0.41770   0.69883   0.00000  Uiso   1.00
H11    H     0.92500   0.68662   0.46812   0.00000  Uiso   1.00
C17    C     0.49954   0.92868   0.39633   0.00000  Uiso   1.00
C18    C     0.50376   0.86355   0.50964   0.00000  Uiso   1.00
H12    H     0.49572   0.88285   0.30063   0.00000  Uiso   1.00
H13    H     0.50823   0.90444   0.60765   0.00000  Uiso   1.00
C19    C     0.50039   0.06173   0.39182   0.00000  Uiso   1.00
C20    C     0.49952   0.13090   0.50155   0.00000  Uiso   1.00
H14    H     0.50123   0.10384   0.29366   0.00000  Uiso   1.00
H15    H     0.49753   0.09296   0.60118   0.00000  Uiso   1.00
C21    C     0.50786   0.58879   0.92370   0.00000  Uiso   1.00
N1     N     0.50576   0.49124   0.85519   0.00000  Uiso   1.00
H16    H     0.50222   0.67376   0.87201   0.00000  Uiso   1.00
H17    H     0.52261   0.41433   0.90555   0.00000  Uiso   1.00
C22    C     0.52843   0.58880   0.06859   0.00000  Uiso   1.00
N2     N     0.50115   0.50461   0.14675   0.00000  Uiso   1.00
H18    H     0.46036   0.44565   0.10167   0.00000  Uiso   1.00
C23    C     0.58082   0.68830   0.11827   0.00000  Uiso   1.00
O9     O     0.62701   0.67404   0.21408   0.00000  Uiso   1.00
N3     N     0.58516   0.79800   0.04454   0.00000  Uiso   1.00
H19    H     0.62786   0.85376   0.09372   0.00000  Uiso   1.00
H20    H     0.52630   0.83868   0.04958   0.00000  Uiso   1.00
C24    C     0.09669   0.31043   0.64420   0.00000  Uiso   1.00
O10    O     0.13367   0.29828   0.75049   0.00000  Uiso   1.00
N4     N     0.10352   0.21870   0.54450   0.00000  Uiso   1.00
H21    H     0.14642   0.15549   0.58012   0.00000  Uiso   1.00
H22    H     0.04577   0.17545   0.53640   0.00000  Uiso   1.00
