# generated using pymatgen
data_CuH15C27NClO4
_symmetry_space_group_name_H-M   'P 1'
_cell_length_a   15.10554800
_cell_length_b   13.67682100
_cell_length_c   14.97532400
_cell_angle_alpha   90.00000000
_cell_angle_beta   90.00589100
_cell_angle_gamma   90.00000000
_symmetry_Int_Tables_number   1
_chemical_formula_structural   CuH15C27NClO4
_chemical_formula_sum   'Cu2 H30 C54 N2 Cl2 O8'
_cell_volume   3093.84016535
_cell_formula_units_Z   2
loop_
 _symmetry_equiv_pos_site_id
 _symmetry_equiv_pos_as_xyz
  1  'x, y, z'
loop_
 _atom_site_type_symbol
 _atom_site_label
 _atom_site_symmetry_multiplicity
 _atom_site_fract_x
 _atom_site_fract_y
 _atom_site_fract_z
 _atom_site_occupancy
  Cu  Cu1  1  0.50195700  0.59439500  0.49956700  1
  Cu  Cu2  1  0.50181500  0.39880600  0.49907500  1
  H  H1  1  0.63119800  0.52139400  0.77240100  1
  H  H2  1  0.37454300  0.46716100  0.22623500  1
  H  H3  1  0.27893200  0.46179800  0.93332500  1
  H  H4  1  0.72457000  0.53980700  0.06679800  1
  H  H5  1  0.28996700  0.45719800  0.09308000  1
  H  H6  1  0.71488600  0.53855100  0.90702700  1
  H  H7  1  0.06054100  0.64870800  0.46713400  1
  H  H8  1  0.93738900  0.34806100  0.45234100  1
  H  H9  1  0.94115300  0.64060700  0.55487800  1
  H  H10  1  0.06741800  0.34001500  0.51909300  1
  H  H11  1  0.21992600  0.65144100  0.46508500  1
  H  H12  1  0.77885500  0.34562700  0.46540200  1
  H  H13  1  0.78078700  0.64145800  0.55741600  1
  H  H14  1  0.22564300  0.34244500  0.50858700  1
  H  H15  1  0.55787700  0.06571400  0.63055500  1
  H  H16  1  0.38130100  0.92903900  0.42774400  1
  H  H17  1  0.43778700  0.06643000  0.37161700  1
  H  H18  1  0.62308900  0.92551700  0.57692500  1
  H  H19  1  0.56258700  0.24261400  0.62532700  1
  H  H20  1  0.38482200  0.74967800  0.42533300  1
  H  H21  1  0.43663100  0.24251000  0.37454900  1
  H  H22  1  0.61780300  0.75124600  0.57945900  1
  H  H23  1  0.15613800  0.62342600  0.71758600  1
  H  H24  1  0.08896900  0.46274400  0.69275000  1
  H  H25  1  0.17597200  0.31276100  0.71615500  1
  H  H26  1  0.32961200  0.32405500  0.76944800  1
  H  H27  1  0.80290000  0.71182900  0.30119300  1
  H  H28  1  0.90763600  0.57469900  0.31682000  1
  H  H29  1  0.86092100  0.40832200  0.27623200  1
  H  H30  1  0.71118500  0.37927300  0.21778900  1
  C  C1  1  0.33206900  0.49676900  0.48953600  1
  C  C2  1  0.67171200  0.49581900  0.50981100  1
  C  C3  1  0.51296000  0.49611900  0.32796400  1
  C  C4  1  0.49044900  0.49739200  0.67049400  1
  C  C5  1  0.57149400  0.51106800  0.81120600  1
  C  C6  1  0.43345500  0.48023400  0.18711400  1
  C  C7  1  0.49185800  0.49779500  0.76841200  1
  C  C8  1  0.51238100  0.49624900  0.23060800  1
  C  C9  1  0.41497900  0.48714800  0.81766100  1
  C  C10  1  0.58857100  0.51299800  0.18104700  1
  C  C11  1  0.41933500  0.48580500  0.91055000  1
  C  C12  1  0.58509000  0.51162700  0.08814600  1
  C  C13  1  0.49999100  0.49771700  0.95328300  1
  C  C14  1  0.50483200  0.49703900  0.04575600  1
  C  C15  1  0.57515900  0.51164600  0.90315100  1
  C  C16  1  0.42900500  0.48186400  0.09531600  1
  C  C17  1  0.34372200  0.47219500  0.96218800  1
  C  C18  1  0.66050700  0.52652600  0.03721000  1
  C  C19  1  0.34898200  0.46915300  0.05380300  1
  C  C20  1  0.65531800  0.52620200  0.94536100  1
  C  C21  1  0.09582900  0.58111900  0.47844800  1
  C  C22  1  0.90464900  0.41175800  0.47915900  1
  C  C23  1  0.90707400  0.57592800  0.53223200  1
  C  C24  1  0.09839000  0.40905900  0.50365800  1
  C  C25  1  0.18717500  0.58223100  0.47587000  1
  C  C26  1  0.81363500  0.41112800  0.48535200  1
  C  C27  1  0.81551100  0.57648600  0.53569700  1
  C  C28  1  0.18967100  0.40997500  0.49880200  1
  C  C29  1  0.23497600  0.49661700  0.48658900  1
  C  C30  1  0.76855400  0.49430700  0.51109700  1
  C  C31  1  0.05052700  0.49445800  0.49361500  1
  C  C32  1  0.95290200  0.49483800  0.50136200  1
  C  C33  1  0.53413200  0.10218800  0.57138800  1
  C  C34  1  0.43595300  0.89110200  0.45835300  1
  C  C35  1  0.46531800  0.10310100  0.42921000  1
  C  C36  1  0.56851500  0.89025500  0.54335000  1
  C  C37  1  0.53518500  0.20326600  0.56925200  1
  C  C38  1  0.43735100  0.78975400  0.45810700  1
  C  C39  1  0.46547200  0.20376600  0.43013400  1
  C  C40  1  0.56671200  0.78993000  0.54326000  1
  C  C41  1  0.50028500  0.05048500  0.50069000  1
  C  C42  1  0.50257100  0.94263500  0.50038900  1
  C  C43  1  0.32997700  0.48047400  0.77230500  1
  C  C44  1  0.28143200  0.56437500  0.75717900  1
  C  C45  1  0.19490600  0.55791000  0.72806700  1
  C  C46  1  0.15719400  0.46756900  0.71391800  1
  C  C47  1  0.20605700  0.38351000  0.72709100  1
  C  C48  1  0.29258900  0.39008600  0.75604800  1
  C  C49  1  0.67306800  0.52920200  0.22676000  1
  C  C50  1  0.69915000  0.62279700  0.24990800  1
  C  C51  1  0.78265300  0.63853700  0.28367200  1
  C  C52  1  0.84132000  0.56184400  0.29232000  1
  C  C53  1  0.81516800  0.46861200  0.26963800  1
  C  C54  1  0.73101700  0.45210000  0.23752500  1
  N  N1  1  0.50070400  0.25254500  0.49979300  1
  N  N2  1  0.50267300  0.74075600  0.49903200  1
  Cl  Cl1  1  0.32665800  0.67973700  0.78000700  1
  Cl  Cl2  1  0.62793400  0.72196300  0.23199700  1
  O  O1  1  0.37317100  0.58152700  0.49487500  1
  O  O2  1  0.63054600  0.41173500  0.50386500  1
  O  O3  1  0.63001200  0.57935700  0.51029100  1
  O  O4  1  0.37387900  0.41344000  0.48846200  1
  O  O5  1  0.50676600  0.58009800  0.36947500  1
  O  O6  1  0.49680200  0.41354100  0.62891600  1
  O  O7  1  0.49104200  0.58129100  0.62853400  1
  O  O8  1  0.51232500  0.41182000  0.36974700  1
