# Generated by REPEAT Assigner based on pymatgen
data_DB0-m18_o24_o105_f0_fsc
_audit_creation_date              2022-05-24
_audit_creation_method            REPEAT_Assigner
_cell_length_a                    9.199780
_cell_length_b                    11.195622
_cell_length_c                    10.903150
_cell_angle_alpha                 90.000000
_cell_angle_beta                  89.913334
_cell_angle_gamma                 90.000000
_cell_volume                      1122.993345
_symmetry_space_group_name_H-M    P1
_symmetry_Int_Tables_number       1
loop_
    _symmetry_equiv_pos_site_id
    _symmetry_equiv_pos_as_xyz
    1  x,y,z
loop_
    _atom_site_type_symbol
    _atom_site_label
    _atom_site_fract_x
    _atom_site_fract_y
    _atom_site_fract_z
    _atom_type_partial_charge
    O   O1   0.877740  0.871847  0.136344  -0.703875
    O   O2   0.122261  0.128153  0.863656  -0.703774
    O   O3   0.129510  0.880717  0.861974  -0.708817
    O   O4   0.870491  0.119283  0.138025  -0.708933
    O   O5   0.124594  0.864615  0.126148  -0.734933
    O   O6   0.875407  0.135385  0.873852  -0.734968
    O   O7   0.883845  0.858601  0.872683  -0.739314
    O   O8   0.116155  0.141399  0.127317  -0.739273
    C   C1   0.001836  0.825057  0.171555  0.812808
    C   C2   0.998164  0.174943  0.828445  0.812756
    C   C3   0.010125  0.827007  0.826537  0.827752
    C   C4   0.989876  0.172993  0.173463  0.827917
    Fe  Fe1  0.158111  0.003657  0.998742  1.065164
    Fe  Fe2  0.841889  0.996343  0.001258  1.065322
    H   H1   0.016831  0.408089  0.190886  0.128024
    H   H2   0.983169  0.591911  0.809114  0.128063
    H   H3   0.021359  0.410085  0.809463  0.120086
    H   H4   0.978641  0.589915  0.190536  0.120110
    C   C5   0.000115  0.369757  0.280158  -0.253527
    C   C6   0.999885  0.630243  0.719842  -0.253713
    C   C7   0.004436  0.371111  0.720573  -0.241914
    C   C8   0.995564  0.628889  0.279427  -0.242049
    C   C9   0.995727  0.437216  0.388547  0.085625
    C   C10  0.004274  0.562784  0.611453  0.085746
    C   C11  0.997851  0.437877  0.611854  0.068353
    C   C12  0.002149  0.562123  0.388146  0.068465
    C   C13  0.452517  0.082356  0.932334  -0.053233
    C   C14  0.547483  0.917644  0.067666  -0.053063
    C   C15  0.553629  0.095875  0.038598  0.004634
    C   C16  0.446372  0.904125  0.961402  0.004534
    C   C17  0.551117  0.982654  0.894593  -0.038410
    C   C18  0.448884  0.017346  0.105407  -0.038580
    H   H5   0.595980  0.967116  0.801470  0.076088
    H   H6   0.404020  0.032884  0.198530  0.076129
    H   H7   0.411986  0.155439  0.872883  0.079164
    H   H8   0.588015  0.844561  0.127117  0.079126
    H   H9   0.599994  0.181038  0.072666  0.064260
    H   H10  0.400007  0.818962  0.927334  0.064268
    N   N1   0.646912  0.996302  0.000796  0.183101
    N   N2   0.353088  0.003698  0.999204  0.183219
    C   C19  0.989731  0.377173  0.500427  -0.049544
    C   C20  0.010270  0.622827  0.499573  -0.049629
    H   H11  0.953005  0.095571  0.395198  0.134456
    H   H12  0.046995  0.904429  0.604801  0.134517
    H   H13  0.959302  0.095864  0.607877  0.152316
    H   H14  0.040699  0.904136  0.392123  0.152360
    C   C21  0.985022  0.247314  0.283677  0.018911
    C   C22  0.014978  0.752686  0.716323  0.019154
    C   C23  0.992981  0.248427  0.717759  0.029127
    C   C24  0.007019  0.751573  0.282241  0.029229
    C   C25  0.966421  0.191166  0.393553  -0.284578
    C   C26  0.033579  0.808834  0.606447  -0.284721
    C   C27  0.972181  0.191523  0.608634  -0.295926
    C   C28  0.027819  0.808477  0.391365  -0.296013
    C   C29  0.975152  0.254223  0.500881  0.253965
    C   C30  0.024849  0.745777  0.499119  0.254039
