# Generated by REPEAT Assigner based on pymatgen
data_DB0-m3_o21_o28_f0_pcu.sym.106_sqe
_audit_creation_date              2022-05-24
_audit_creation_method            REPEAT_Assigner
_cell_length_a                    12.951069
_cell_length_b                    14.097305
_cell_length_c                    23.443937
_cell_angle_alpha                 90.018059
_cell_angle_beta                  93.528630
_cell_angle_gamma                 88.910615
_cell_volume                      4271.392655
_symmetry_space_group_name_H-M    P1
_symmetry_Int_Tables_number       1
loop_
    _symmetry_equiv_pos_site_id
    _symmetry_equiv_pos_as_xyz
    1  x,y,z
loop_
    _atom_site_type_symbol
    _atom_site_label
    _atom_site_fract_x
    _atom_site_fract_y
    _atom_site_fract_z
    _atom_type_partial_charge
    O   O1   0.397994  0.644420  0.492176  -0.718110
    O   O2   0.600693  0.372272  0.499641  -0.663422
    O   O3   0.576220  0.654481  0.498593  -0.721118
    O   O4   0.422608  0.362219  0.493235  -0.679707
    C   C1   0.483240  0.693423  0.495208  0.996840
    C   C2   0.515520  0.323248  0.496594  0.926130
    O   O5   0.409590  0.503539  0.577668  -0.602928
    O   O6   0.589219  0.513171  0.414152  -0.650457
    O   O7   0.587496  0.513518  0.584059  -0.618751
    O   O8   0.411199  0.503175  0.407763  -0.654217
    C   C3   0.498369  0.508618  0.607585  0.609889
    C   C4   0.500360  0.508137  0.384245  0.679628
    Zn  Zn1  0.381997  0.501737  0.491667  1.088235
    Zn  Zn2  0.616762  0.514944  0.500162  1.086892
    C   C5   0.548925  0.437541  0.115506  0.456614
    C   C6   0.449344  0.579437  0.876309  0.447337
    N   N1   0.500478  0.508582  0.142495  -0.179659
    N   N2   0.497776  0.508385  0.849317  -0.174320
    C   C7   0.451557  0.579609  0.112445  0.459106
    C   C8   0.546625  0.437319  0.879371  0.456948
    C   C9   0.450211  0.580486  0.053394  -0.112432
    C   C10  0.547962  0.436442  0.938421  -0.111590
    C   C11  0.499396  0.508503  0.025355  0.098183
    C   C12  0.498789  0.508431  0.966460  0.092830
    C   C13  0.549182  0.436588  0.056502  -0.105226
    C   C14  0.449030  0.580359  0.935312  -0.091418
    C   C15  0.400413  0.652957  0.022205  -0.058328
    C   C16  0.597753  0.363965  0.969609  -0.057280
    C   C17  0.399834  0.652900  0.963396  -0.067208
    C   C18  0.598365  0.364040  0.028418  -0.060492
    O   O9   0.595139  0.366337  0.146133  -0.491085
    O   O10  0.403220  0.650695  0.845689  -0.488929
    O   O11  0.405783  0.650806  0.140183  -0.484000
    O   O12  0.592343  0.366082  0.851640  -0.474836
    H   H1   0.361261  0.710416  0.043077  0.129339
    H   H2   0.636897  0.306501  0.948737  0.127777
    H   H3   0.360261  0.710322  0.940056  0.133837
    H   H4   0.637950  0.306625  0.051759  0.131501
    C   C19  0.405791  0.504220  0.755564  -0.170327
    C   C20  0.408588  0.503475  0.229914  -0.177499
    H   H5   0.333273  0.499859  0.775832  0.135507
    H   H6   0.336154  0.498909  0.204654  0.134271
    C   C21  0.405805  0.504217  0.696736  -0.101986
    C   C22  0.408458  0.503267  0.288715  -0.090300
    H   H7   0.332725  0.500498  0.672058  0.110419
    H   H8   0.335325  0.499155  0.308318  0.112589
    C   C23  0.498055  0.508735  0.670162  0.024632
    C   C24  0.500561  0.508135  0.321660  -0.020675
    C   C25  0.590118  0.513317  0.703156  -0.101791
    C   C26  0.592702  0.513082  0.295025  -0.072289
    H   H9   0.663314  0.517116  0.683593  0.116422
    H   H10  0.665779  0.517119  0.319665  0.101627
    C   C27  0.589860  0.513183  0.761953  -0.172894
    C   C28  0.592593  0.513122  0.236192  -0.186162
    H   H11  0.662275  0.517510  0.787251  0.133759
    H   H12  0.665026  0.517779  0.215867  0.136826
    C   C29  0.497781  0.508602  0.788420  0.227144
    C   C30  0.500578  0.508399  0.203393  0.239069
    C   C31  0.524514  0.221636  0.496985  -0.340736
    C   C32  0.474244  0.795036  0.494811  -0.361278
    C   C33  0.541580  0.034512  0.497735  -0.071960
    C   C34  0.457178  0.982159  0.494055  -0.078080
    C   C35  0.466517  0.880353  0.494469  0.059096
    C   C36  0.532241  0.136319  0.497324  0.057299
    H   H13  0.381289  0.016204  0.490742  0.147212
    H   H14  0.617470  0.000467  0.501048  0.146391
    N   N3   0.227753  0.493049  0.486003  -0.139614
    N   N4   0.771027  0.523421  0.505933  -0.131185
    C   C37  0.028164  0.476112  0.481819  0.247027
    C   C38  0.971633  0.526600  0.517267  0.292589
    C   C39  0.860416  0.525337  0.510738  0.130260
    C   C40  0.138754  0.485917  0.483910  0.149910
    N   N5   0.019926  0.587887  0.558097  -0.676116
    C   C41  0.056050  0.544435  0.606825  0.826630
    O   O13  0.071099  0.458794  0.607966  -0.525793
    C   C42  0.076752  0.601202  0.659762  -0.481945
    H   H15  0.981612  0.651077  0.564987  0.361179
    H   H16  0.004078  0.636377  0.672045  0.119429
    H   H17  0.134966  0.655661  0.651995  0.139398
    H   H18  0.106930  0.553642  0.694854  0.161703
    N   N6   0.979572  0.419106  0.438804  -0.649135
    C   C43  0.954399  0.332076  0.456811  0.818413
    O   O14  0.946944  0.316485  0.507532  -0.515443
    C   C44  0.936769  0.254171  0.414591  -0.524065
    H   H19  0.013120  0.418139  0.400141  0.357552
    H   H20  0.008256  0.240470  0.391936  0.130717
    H   H21  0.872675  0.274872  0.383249  0.149651
    H   H22  0.916072  0.188809  0.437231  0.166982
