# generated using pymatgen
data_Fe2H22C55(NO4)4
_symmetry_space_group_name_H-M   'P 1'
_cell_length_a   15.96316300
_cell_length_b   16.85859800
_cell_length_c   13.45190300
_cell_angle_alpha   106.39838000
_cell_angle_beta   93.95956700
_cell_angle_gamma   103.04229700
_symmetry_Int_Tables_number   1
_chemical_formula_structural   Fe2H22C55(NO4)4
_chemical_formula_sum   'Fe2 H22 C55 N4 O16'
_cell_volume   3348.97145179
_cell_formula_units_Z   1
loop_
 _symmetry_equiv_pos_site_id
 _symmetry_equiv_pos_as_xyz
  1  'x, y, z'
loop_
 _atom_site_type_symbol
 _atom_site_label
 _atom_site_symmetry_multiplicity
 _atom_site_fract_x
 _atom_site_fract_y
 _atom_site_fract_z
 _atom_site_occupancy
  Fe  Fe1  1  0.50523400  0.01601600  0.29056000  1
  Fe  Fe2  1  0.48546000  0.98707100  0.70235000  1
  H  H1  1  0.41337600  0.02236000  0.99239300  1
  H  H2  1  0.22787300  0.03578800  0.24943300  1
  H  H3  1  0.17537600  0.98145700  0.73462800  1
  H  H4  1  0.10888300  0.04574400  0.34301100  1
  H  H5  1  0.95564100  0.04262400  0.34598800  1
  H  H6  1  0.03885400  0.96625500  0.64686200  1
  H  H7  1  0.88626500  0.95326900  0.64517400  1
  H  H8  1  0.81910300  0.02991200  0.25861500  1
  H  H9  1  0.57886200  0.98464500  0.00270300  1
  H  H10  1  0.53508700  0.44257800  0.74070400  1
  H  H11  1  0.53446300  0.32222300  0.80541000  1
  H  H12  1  0.51384000  0.57073700  0.26694600  1
  H  H13  1  0.49602800  0.73036200  0.56713600  1
  H  H14  1  0.40479200  0.31339500  0.39135700  1
  H  H15  1  0.49226100  0.26534100  0.34767200  1
  H  H16  1  0.39063100  0.20432500  0.37207700  1
  H  H17  1  0.45336700  0.68103000  0.11683400  1
  H  H18  1  0.57115800  0.72498200  0.14796200  1
  H  H19  1  0.52348200  0.61391100  0.12682000  1
  H  H20  1  0.68517900  0.85000000  0.72128300  1
  H  H21  1  0.71948700  0.93777500  0.66553100  1
  H  H22  1  0.77431800  0.85343900  0.65549800  1
  C  C1  1  0.31048700  0.02064900  0.08213100  1
  C  C2  1  0.34443300  0.01646300  0.99071500  1
  C  C3  1  0.29408400  0.00847300  0.89968200  1
  C  C4  1  0.18818500  0.02666700  0.17677500  1
  C  C5  1  0.22320800  0.01780300  0.08427500  1
  C  C6  1  0.17075800  0.00790000  0.99259500  1
  C  C7  1  0.20580200  0.00262900  0.89984200  1
  C  C8  1  0.15151200  0.98925600  0.80886400  1
  C  C9  1  0.06774300  0.03536100  0.27084600  1
  C  C10  1  0.10142500  0.02458400  0.17774900  1
  C  C11  1  0.04841700  0.01175500  0.08616700  1
  C  C12  1  0.98132600  0.03363500  0.27247100  1
  C  C13  1  0.92791900  0.01949700  0.18075200  1
  C  C14  1  0.08299900  0.00344000  0.99378700  1
  C  C15  1  0.02955800  0.99058400  0.90258600  1
  C  C16  1  0.06424700  0.98306500  0.81047400  1
  C  C17  1  0.01180000  0.96995500  0.71902000  1
  C  C18  1  0.96099900  0.00798400  0.08734300  1
  C  C19  1  0.90682300  0.99286800  0.99556400  1
  C  C20  1  0.94134400  0.98355900  0.90287000  1
  C  C21  1  0.88760800  0.96455600  0.80980200  1
  C  C22  1  0.92420300  0.96081400  0.71840200  1
  C  C23  1  0.84147700  0.01730500  0.18338300  1
  C  C24  1  0.78588600  0.00064400  0.09204500  1
  C  C25  1  0.81898900  0.98877900  0.99693100  1
  C  C26  1  0.76438300  0.97058400  0.90325000  1
  C  C27  1  0.79815100  0.94918000  0.80841700  1
  C  C28  1  0.69809200  0.99727800  0.09422400  1
  C  C29  1  0.64693100  0.98642300  0.00283000  1
  C  C30  1  0.67777900  0.97367100  0.90867500  1
  C  C31  1  0.65353100  0.00397600  0.18764600  1
  C  C32  1  0.49836000  0.84954000  0.29524500  1
  C  C33  1  0.37349300  0.03861800  0.17471300  1
  C  C34  1  0.48162900  0.13457600  0.46698600  1
  C  C35  1  0.50473200  0.86925300  0.52407500  1
  C  C36  1  0.61181100  0.96067600  0.82055700  1
  C  C37  1  0.50794200  0.15676400  0.69672400  1
  C  C38  1  0.33950100  0.00495200  0.80792400  1
  C  C39  1  0.48804400  0.21644900  0.54620500  1
  C  C40  1  0.48001600  0.28450400  0.51065600  1
  C  C41  1  0.50098600  0.36707800  0.57975200  1
  C  C42  1  0.51969900  0.37897400  0.68547100  1
  C  C43  1  0.52022200  0.31026000  0.72202300  1
  C  C44  1  0.50575900  0.22830700  0.65343600  1
  C  C45  1  0.50636300  0.57248400  0.46564600  1
  C  C46  1  0.50591000  0.44174300  0.54181700  1
  C  C47  1  0.50922600  0.63176400  0.31688600  1
  C  C48  1  0.50737500  0.69738100  0.27432300  1
  C  C49  1  0.50211000  0.77742400  0.33838600  1
  C  C50  1  0.49951800  0.78757000  0.44542000  1
  C  C51  1  0.49729600  0.71985700  0.48429100  1
  C  C52  1  0.50356000  0.64234300  0.42137300  1
  C  C53  1  0.44085800  0.26601300  0.39910700  1
  C  C54  1  0.51415300  0.67886800  0.15998300  1
  C  C55  1  0.74085800  0.89606100  0.70711100  1
  N  N1  1  0.48106900  0.51022300  0.59760700  1
  N  N2  1  0.48134500  0.57483000  0.55989800  1
  N  N3  1  0.53415700  0.50550300  0.41189600  1
  N  N4  1  0.53445800  0.44136500  0.44984400  1
  O  O1  1  0.58618700  0.03697600  0.19030000  1
  O  O2  1  0.48756100  0.83831800  0.19424900  1
  O  O3  1  0.66721900  0.96185500  0.25303500  1
  O  O4  1  0.50455700  0.92619300  0.35890300  1
  O  O5  1  0.38492200  0.97621300  0.21034200  1
  O  O6  1  0.43703700  0.10829500  0.19760200  1
  O  O7  1  0.54103300  0.12869700  0.40424200  1
  O  O8  1  0.41033100  0.07250200  0.44718700  1
  O  O9  1  0.44672400  0.87456500  0.58841900  1
  O  O10  1  0.57588300  0.93145500  0.54401400  1
  O  O11  1  0.60565400  0.02325000  0.78244300  1
  O  O12  1  0.54533700  0.89345600  0.79838500  1
  O  O13  1  0.32951400  0.05176400  0.74704800  1
  O  O14  1  0.48961000  0.07764000  0.63442500  1
  O  O15  1  0.40387700  0.96814100  0.80267300  1
  O  O16  1  0.52338000  0.17168600  0.79829100  1
