# generated using pymatgen
data_FeH15C23O8
_symmetry_space_group_name_H-M   'P 1'
_cell_length_a   15.68070800
_cell_length_b   11.67785600
_cell_length_c   13.36837300
_cell_angle_alpha   88.45170800
_cell_angle_beta   102.22097200
_cell_angle_gamma   106.79441100
_symmetry_Int_Tables_number   1
_chemical_formula_structural   FeH15C23O8
_chemical_formula_sum   'Fe2 H30 C46 O16'
_cell_volume   2288.93083207
_cell_formula_units_Z   2
loop_
 _symmetry_equiv_pos_site_id
 _symmetry_equiv_pos_as_xyz
  1  'x, y, z'
loop_
 _atom_site_type_symbol
 _atom_site_label
 _atom_site_symmetry_multiplicity
 _atom_site_fract_x
 _atom_site_fract_y
 _atom_site_fract_z
 _atom_site_occupancy
  Fe  Fe1  1  0.49205300  0.99375000  0.80358200  1
  Fe  Fe2  1  0.50721300  0.98997700  0.20937300  1
  H  H1  1  0.83562700  0.99247000  0.90286200  1
  H  H2  1  0.01007500  0.89142400  0.06077600  1
  H  H3  1  0.99461000  0.11223300  0.93947400  1
  H  H4  1  0.09025500  0.12620300  0.81131600  1
  H  H5  1  0.23827000  0.13420600  0.77605300  1
  H  H6  1  0.16266000  0.97847100  0.10092600  1
  H  H7  1  0.46738200  0.56059100  0.75160800  1
  H  H8  1  0.47359300  0.36081700  0.74584000  1
  H  H9  1  0.51811600  0.62152600  0.26598900  1
  H  H10  1  0.52418800  0.42153100  0.26004800  1
  H  H11  1  0.49860700  0.87868100  0.51795300  1
  H  H12  1  0.49292700  0.10280500  0.49598400  1
  H  H13  1  0.81563700  0.83784800  0.31555400  1
  H  H14  1  0.70880500  0.85654600  0.28147900  1
  H  H15  1  0.75546700  0.06103700  0.33904000  1
  H  H16  1  0.87322500  0.07859100  0.34064700  1
  H  H17  1  0.88379600  0.94261900  0.48255900  1
  H  H18  1  0.76318600  0.90984300  0.47848500  1
  H  H19  1  0.90466500  0.15739200  0.52230900  1
  H  H20  1  0.85624300  0.06040900  0.61635700  1
  H  H21  1  0.78404800  0.12311000  0.52072800  1
  H  H22  1  0.00203000  0.88871700  0.22432300  1
  H  H23  1  0.95235100  0.93156100  0.31642100  1
  H  H24  1  0.99777200  0.14777200  0.24916500  1
  H  H25  1  0.07707200  0.09582700  0.19599600  1
  H  H26  1  0.13269100  0.02145400  0.36873100  1
  H  H27  1  0.06006200  0.08897100  0.42059500  1
  H  H28  1  0.21323800  0.21902800  0.31174300  1
  H  H29  1  0.21634700  0.22424900  0.44749200  1
  H  H30  1  0.13862500  0.28697200  0.35941700  1
  C  C1  1  0.79871700  0.93812600  0.17800800  1
  C  C2  1  0.88503600  0.95173800  0.15723300  1
  C  C3  1  0.89576200  0.96711200  0.05671500  1
  C  C4  1  0.82515300  0.98099300  0.98021600  1
  C  C5  1  0.74117500  0.97604500  0.00040500  1
  C  C6  1  0.72741700  0.95156800  0.09977900  1
  C  C7  1  0.98103200  0.96180200  0.03020200  1
  C  C8  1  0.02502700  0.04408800  0.97339000  1
  C  C9  1  0.13827000  0.09440700  0.86702200  1
  C  C10  1  0.22165900  0.09941500  0.84750800  1
  C  C11  1  0.28362600  0.05844300  0.91694200  1
  C  C12  1  0.26377800  0.01537500  0.01015600  1
  C  C13  1  0.17837800  0.00868500  0.02816200  1
  C  C14  1  0.11498200  0.04620100  0.95580400  1
  C  C15  1  0.47427400  0.16310100  0.66831000  1
  C  C16  1  0.36828100  0.06185600  0.88711600  1
  C  C17  1  0.66832600  0.99180500  0.91425100  1
  C  C18  1  0.49297500  0.78604100  0.69576000  1
  C  C19  1  0.49960400  0.19353800  0.31725400  1
  C  C20  1  0.33327000  0.98710500  0.09333500  1
  C  C21  1  0.63847400  0.94035700  0.12430700  1
  C  C22  1  0.52115800  0.82162900  0.34629200  1
  C  C23  1  0.49367900  0.78459400  0.51541100  1
  C  C24  1  0.48985300  0.71945900  0.60248200  1
  C  C25  1  0.48781100  0.59963700  0.59812300  1
  C  C26  1  0.47806800  0.52848100  0.68183700  1
  C  C27  1  0.47999200  0.41200100  0.67799300  1
  C  C28  1  0.49851500  0.73610600  0.42542800  1
  C  C29  1  0.49987400  0.61820100  0.42121400  1
  C  C30  1  0.49386100  0.54958600  0.50738700  1
  C  C31  1  0.49553400  0.43132400  0.50335600  1
  C  C32  1  0.49014400  0.36329200  0.58986700  1
  C  C33  1  0.49270400  0.24607700  0.58649300  1
  C  C34  1  0.51075200  0.56968700  0.33339000  1
  C  C35  1  0.51255200  0.45294300  0.32948000  1
  C  C36  1  0.50215500  0.38115000  0.41290600  1
  C  C37  1  0.50052900  0.26104000  0.40923100  1
  C  C38  1  0.49710000  0.19670100  0.49692100  1
  C  C39  1  0.78082000  0.90474200  0.28322000  1
  C  C40  1  0.80945700  0.01522800  0.35431300  1
  C  C41  1  0.82459300  0.97915300  0.46517600  1
  C  C42  1  0.84361300  0.08726600  0.53561200  1
  C  C43  1  0.96821100  0.95495500  0.24095300  1
  C  C44  1  0.03556000  0.08010900  0.25511200  1
  C  C45  1  0.09918300  0.09386800  0.35971300  1
  C  C46  1  0.17153200  0.21396700  0.37005800  1
  O  O1  1  0.54116900  0.14719300  0.74030300  1
  O  O2  1  0.42508400  0.16527200  0.87376200  1
  O  O3  1  0.39408900  0.08298600  0.65425200  1
  O  O4  1  0.38188000  0.96163200  0.86200400  1
  O  O5  1  0.58591700  0.98144000  0.92810400  1
  O  O6  1  0.68539800  0.01320100  0.82249700  1
  O  O7  1  0.46091300  0.87873800  0.68346400  1
  O  O8  1  0.54249200  0.77048400  0.78441200  1
  O  O9  1  0.52786700  0.09779700  0.33203300  1
  O  O10  1  0.45701600  0.21328100  0.22584100  1
  O  O11  1  0.41705500  0.00277700  0.08137700  1
  O  O12  1  0.31411400  0.95859400  0.18333500  1
  O  O13  1  0.59594900  0.91053100  0.37118300  1
  O  O14  1  0.62222000  0.03423500  0.15934800  1
  O  O15  1  0.45930700  0.83123400  0.26548100  1
  O  O16  1  0.57810000  0.83476600  0.11885300  1
