# generated using pymatgen
data_ZnH19C26NO4
_symmetry_space_group_name_H-M   'P 1'
_cell_length_a   8.60198900
_cell_length_b   10.81430500
_cell_length_c   17.75255000
_cell_angle_alpha   90.00000000
_cell_angle_beta   90.00000000
_cell_angle_gamma   90.00000000
_symmetry_Int_Tables_number   1
_chemical_formula_structural   ZnH19C26NO4
_chemical_formula_sum   'Zn2 H38 C52 N2 O8'
_cell_volume   1651.42266714
_cell_formula_units_Z   2
loop_
 _symmetry_equiv_pos_site_id
 _symmetry_equiv_pos_as_xyz
  1  'x, y, z'
loop_
 _atom_site_type_symbol
 _atom_site_label
 _atom_site_symmetry_multiplicity
 _atom_site_fract_x
 _atom_site_fract_y
 _atom_site_fract_z
 _atom_site_occupancy
  Zn  Zn1  1  0.49935500  0.50712000  0.08413500  1
  Zn  Zn2  1  0.49935500  0.49288000  0.91586500  1
  H  H1  1  0.54837200  0.19208500  0.54998800  1
  H  H2  1  0.54837100  0.80791500  0.45001200  1
  H  H3  1  0.45588600  0.80428200  0.55644300  1
  H  H4  1  0.45588600  0.19571800  0.44355700  1
  H  H5  1  0.45614200  0.19824500  0.31601200  1
  H  H6  1  0.45614200  0.80175500  0.68398800  1
  H  H7  1  0.54284800  0.81316300  0.32153200  1
  H  H8  1  0.54284900  0.18683700  0.67846800  1
  H  H9  1  0.61372700  0.88567600  0.00521400  1
  H  H10  1  0.36251100  0.10175000  0.04931600  1
  H  H11  1  0.35568000  0.10146400  0.94804000  1
  H  H12  1  0.71382000  0.95944900  0.08254700  1
  H  H13  1  0.61372700  0.11432400  0.99478600  1
  H  H14  1  0.36251100  0.89825100  0.95068400  1
  H  H15  1  0.35567900  0.89853700  0.05196000  1
  H  H16  1  0.71381900  0.04055100  0.91745300  1
  H  H17  1  0.99745800  0.58462400  0.97169800  1
  H  H18  1  0.99745800  0.41537500  0.02830200  1
  H  H19  1  0.24293400  0.76948400  0.16996100  1
  H  H20  1  0.29791900  0.78933300  0.26612100  1
  H  H21  1  0.34540700  0.90726700  0.19791400  1
  H  H22  1  0.58883900  0.80241400  0.20665100  1
  H  H23  1  0.50011700  0.74849300  0.12810500  1
  H  H24  1  0.24293500  0.23051600  0.83003900  1
  H  H25  1  0.29792000  0.21066600  0.73387900  1
  H  H26  1  0.34540700  0.09273200  0.80208600  1
  H  H27  1  0.58883900  0.19758600  0.79334900  1
  H  H28  1  0.50011700  0.25150700  0.87189500  1
  H  H29  1  0.73475800  0.20438800  0.15809000  1
  H  H30  1  0.71657100  0.25589900  0.25376300  1
  H  H31  1  0.62965600  0.11064600  0.22438500  1
  H  H32  1  0.40296400  0.21792500  0.20226600  1
  H  H33  1  0.49960900  0.26483500  0.12513000  1
  H  H34  1  0.73475800  0.79561200  0.84191000  1
  H  H35  1  0.71657100  0.74410100  0.74623700  1
  H  H36  1  0.62965600  0.88935400  0.77561400  1
  H  H37  1  0.40296400  0.78207500  0.79773400  1
  H  H38  1  0.49960900  0.73516500  0.87486900  1
  C  C1  1  0.99836800  0.68169000  0.98332900  1
  C  C2  1  0.99836800  0.31831000  0.01667100  1
  C  C3  1  0.86019100  0.74249800  0.99370100  1
  C  C4  1  0.13768600  0.25881100  0.00709900  1
  C  C5  1  0.86019100  0.25750200  0.00629900  1
  C  C6  1  0.13768600  0.74118900  0.99290100  1
  C  C7  1  0.86213000  0.86954900  0.00388700  1
  C  C8  1  0.14075600  0.13167400  0.00216400  1
  C  C9  1  0.86213000  0.13045100  0.99611300  1
  C  C10  1  0.14075600  0.86832600  0.99783600  1
  C  C11  1  0.71758000  0.93954600  0.02129700  1
  C  C12  1  0.29514700  0.07026900  0.99968600  1
  C  C13  1  0.71758000  0.06045400  0.97870300  1
  C  C14  1  0.29514700  0.92973100  0.00031400  1
  C  C15  1  0.50765800  0.38878100  0.53811500  1
  C  C16  1  0.50765700  0.61121900  0.46188500  1
  C  C17  1  0.49652900  0.60857400  0.54042800  1
  C  C18  1  0.49652900  0.39142600  0.45957200  1
  C  C19  1  0.00214900  0.93280100  0.99958300  1
  C  C20  1  0.00214900  0.06719900  0.00041700  1
  C  C21  1  0.49771800  0.39925700  0.22277700  1
  C  C22  1  0.49771800  0.60074300  0.77722300  1
  C  C23  1  0.50019600  0.61791400  0.22471200  1
  C  C24  1  0.50019600  0.38208600  0.77528700  1
  C  C25  1  0.50043600  0.50520100  0.34231400  1
  C  C26  1  0.50043600  0.49479900  0.65768600  1
  C  C27  1  0.49014600  0.39753200  0.30171000  1
  C  C28  1  0.49014500  0.60246800  0.69829000  1
  C  C29  1  0.50926300  0.61530500  0.30378200  1
  C  C30  1  0.50926300  0.38469500  0.69621800  1
  C  C31  1  0.47365100  0.28724900  0.34137500  1
  C  C32  1  0.47365100  0.71275100  0.65862500  1
  C  C33  1  0.52782900  0.72286300  0.34573300  1
  C  C34  1  0.52782900  0.27713700  0.65426700  1
  C  C35  1  0.50161900  0.49738900  0.57879700  1
  C  C36  1  0.50161900  0.50261100  0.42120300  1
  C  C37  1  0.52724500  0.27930700  0.57714000  1
  C  C38  1  0.52724400  0.72069300  0.42286000  1
  C  C39  1  0.47647800  0.71545000  0.58166600  1
  C  C40  1  0.47647900  0.28455000  0.41833400  1
  C  C41  1  0.71912500  0.33353800  0.00307800  1
  C  C42  1  0.27914100  0.66594300  0.99659600  1
  C  C43  1  0.71912500  0.66646200  0.99692200  1
  C  C44  1  0.27914100  0.33405700  0.00340400  1
  C  C45  1  0.48956100  0.74445700  0.18865600  1
  C  C46  1  0.33500800  0.80624000  0.20738100  1
  C  C47  1  0.48956100  0.25554300  0.81134400  1
  C  C48  1  0.33500900  0.19376000  0.79261800  1
  C  C49  1  0.50591200  0.27291200  0.18560700  1
  C  C50  1  0.65584700  0.20712100  0.20741200  1
  C  C51  1  0.50591200  0.72708800  0.81439300  1
  C  C52  1  0.65584700  0.79287900  0.79258800  1
  N  N1  1  0.49935500  0.50975800  0.18370600  1
  N  N2  1  0.49935500  0.49024200  0.81629400  1
  O  O1  1  0.66500200  0.36586300  0.93669700  1
  O  O2  1  0.33339400  0.63387000  0.06317000  1
  O  O3  1  0.33120500  0.61888400  0.93350200  1
  O  O4  1  0.66775300  0.38127800  0.06631300  1
  O  O5  1  0.66500200  0.63413700  0.06330300  1
  O  O6  1  0.33339400  0.36613000  0.93682900  1
  O  O7  1  0.33120500  0.38111600  0.06649800  1
  O  O8  1  0.66775300  0.61872200  0.93368700  1
