# generated using pymatgen
data_CuH20C24NO4
_symmetry_space_group_name_H-M   'P 1'
_cell_length_a   12.18675200
_cell_length_b   13.44741500
_cell_length_c   15.85371300
_cell_angle_alpha   78.49702000
_cell_angle_beta   102.54356100
_cell_angle_gamma   116.29320800
_symmetry_Int_Tables_number   1
_chemical_formula_structural   CuH20C24NO4
_chemical_formula_sum   'Cu2 H40 C48 N2 O8'
_cell_volume   2257.84105794
_cell_formula_units_Z   2
loop_
 _symmetry_equiv_pos_site_id
 _symmetry_equiv_pos_as_xyz
  1  'x, y, z'
loop_
 _atom_site_type_symbol
 _atom_site_label
 _atom_site_symmetry_multiplicity
 _atom_site_fract_x
 _atom_site_fract_y
 _atom_site_fract_z
 _atom_site_occupancy
  Cu  Cu1  1  0.09800700  0.47934100  0.52044500  1
  Cu  Cu2  1  0.90325000  0.53064200  0.48726400  1
  H  H1  1  0.99895800  0.33676800  0.94957600  1
  H  H2  1  0.83592100  0.52364100  0.88950800  1
  H  H3  1  0.81410200  0.38012000  0.91856800  1
  H  H4  1  0.78707200  0.39703800  0.05161500  1
  H  H5  1  0.84390000  0.54634000  0.02833100  1
  H  H6  1  0.18064200  0.64252200  0.94384600  1
  H  H7  1  0.04664900  0.67388200  0.92197800  1
  H  H8  1  0.17672400  0.61202600  0.08874900  1
  H  H9  1  0.14970700  0.44447500  0.97938300  1
  H  H10  1  0.11564000  0.41281600  0.11751800  1
  H  H11  1  0.06394400  0.66972600  0.06721200  1
  H  H12  1  0.09099400  0.87888900  0.39095500  1
  H  H13  1  0.43938100  0.20505500  0.34689100  1
  H  H14  1  0.23604800  0.06845200  0.34998200  1
  H  H15  1  0.38274700  0.80727300  0.54560600  1
  H  H16  1  0.91349500  0.13794300  0.61444800  1
  H  H17  1  0.56650700  0.86788300  0.59781700  1
  H  H18  1  0.78041300  0.94373500  0.65162400  1
  H  H19  1  0.65568000  0.27218000  0.39455200  1
  H  H20  1  0.16979000  0.31727600  0.64710900  1
  H  H21  1  0.55164500  0.31230100  0.67057200  1
  H  H22  1  0.35124000  0.27639400  0.68826200  1
  H  H23  1  0.33309500  0.56493500  0.45136400  1
  H  H24  1  0.83884900  0.68698300  0.36217600  1
  H  H25  1  0.48353800  0.64711800  0.38558200  1
  H  H26  1  0.72784700  0.41041800  0.60069100  1
  H  H27  1  0.85605100  0.24811400  0.04498600  1
  H  H28  1  0.07804300  0.21561100  0.16075500  1
  H  H29  1  0.04574100  0.21167300  0.04491500  1
  H  H30  1  0.93740700  0.10994900  0.11247600  1
  H  H31  1  0.96596900  0.28048100  0.23624800  1
  H  H32  1  0.84043300  0.15609800  0.19915500  1
  H  H33  1  0.81901700  0.28159600  0.17887500  1
  H  H34  1  0.75824800  0.79623600  0.26953800  1
  H  H35  1  0.47449800  0.69676400  0.23392400  1
  H  H36  1  0.56938700  0.64202500  0.20255100  1
  H  H37  1  0.58335100  0.78135000  0.15965700  1
  H  H38  1  0.56559000  0.83940600  0.33472500  1
  H  H39  1  0.68006900  0.93252800  0.26660500  1
  H  H40  1  0.72837600  0.89091400  0.37875600  1
  C  C1  1  0.85445000  0.29513500  0.51707500  1
  C  C2  1  0.01514100  0.50931600  0.66720400  1
  C  C3  1  0.14621200  0.71402900  0.48703200  1
  C  C4  1  0.98688500  0.50128500  0.34051700  1
  C  C5  1  0.04932600  0.41499500  0.98039300  1
  C  C6  1  0.87145400  0.46665000  0.93480300  1
  C  C7  1  0.86362800  0.47362000  0.02735300  1
  C  C8  1  0.98157400  0.49840500  0.24961500  1
  C  C9  1  0.00510500  0.50003000  0.92578200  1
  C  C10  1  0.02628800  0.39769000  0.07445100  1
  C  C11  1  0.98667800  0.48903200  0.08372100  1
  C  C12  1  0.08412600  0.60237700  0.05328600  1
  C  C13  1  0.08454100  0.61303800  0.95667100  1
  C  C14  1  0.98174900  0.49398300  0.17437700  1
  C  C15  1  0.01391600  0.50473700  0.83430500  1
  C  C16  1  0.01731900  0.50739100  0.75842300  1
  C  C17  1  0.26988300  0.01252900  0.39438100  1
  C  C18  1  0.23066200  0.83213700  0.47089600  1
  C  C19  1  0.81780000  0.10600400  0.58449100  1
  C  C20  1  0.74255500  0.99634400  0.60653400  1
  C  C21  1  0.61854500  0.95367500  0.57466200  1
  C  C22  1  0.56711700  0.01938000  0.51617600  1
  C  C23  1  0.64552000  0.13000900  0.49063300  1
  C  C24  1  0.43972000  0.97777600  0.48269200  1
  C  C25  1  0.39458600  0.04780000  0.42526300  1
  C  C26  1  0.47399100  0.15295700  0.39553100  1
  C  C27  1  0.59812900  0.19244400  0.42558500  1
  C  C28  1  0.35532000  0.86811600  0.50387100  1
  C  C29  1  0.18769500  0.90558400  0.41791200  1
  C  C30  1  0.77061900  0.17496400  0.52848100  1
  C  C31  1  0.34946200  0.33990500  0.63477300  1
  C  C32  1  0.75915300  0.64649000  0.39581300  1
  C  C33  1  0.66119600  0.67578900  0.36826500  1
  C  C34  1  0.55804200  0.62232600  0.40973100  1
  C  C35  1  0.55284000  0.53944600  0.47912000  1
  C  C36  1  0.65531800  0.51362600  0.50538800  1
  C  C37  1  0.44824600  0.48105800  0.52281900  1
  C  C38  1  0.44934700  0.39886800  0.59076200  1
  C  C39  1  0.55064900  0.37553600  0.61666100  1
  C  C40  1  0.65217100  0.43242500  0.57525700  1
  C  C41  1  0.34192500  0.50148000  0.50184900  1
  C  C42  1  0.24733600  0.36250900  0.61149900  1
  C  C43  1  0.93691600  0.27363700  0.09698100  1
  C  C44  1  0.00392100  0.19885700  0.10373800  1
  C  C45  1  0.88829200  0.24786200  0.18319400  1
  C  C46  1  0.66799600  0.76467800  0.29290700  1
  C  C47  1  0.56693800  0.71797200  0.21772300  1
  C  C48  1  0.65949400  0.86281700  0.32018700  1
  N  N1  1  0.24434100  0.44119900  0.54518300  1
  N  N2  1  0.75705000  0.56797900  0.46382800  1
  O  O1  1  0.97434200  0.32473300  0.53179600  1
  O  O2  1  0.80766600  0.36888500  0.49959000  1
  O  O3  1  0.09146300  0.48053000  0.64227200  1
  O  O4  1  0.93250900  0.53572400  0.61273300  1
  O  O5  1  0.19423700  0.64100100  0.50993100  1
  O  O6  1  0.02640100  0.68517400  0.47311500  1
  O  O7  1  0.07193900  0.47756400  0.39473800  1
  O  O8  1  0.90743000  0.52660700  0.36549400  1
