# generated using pymatgen
data_ZnH35C32NO4
_symmetry_space_group_name_H-M   'P 1'
_cell_length_a   14.88793400
_cell_length_b   16.01514900
_cell_length_c   17.48545700
_cell_angle_alpha   90.00292800
_cell_angle_beta   86.28308300
_cell_angle_gamma   90.00458700
_symmetry_Int_Tables_number   1
_chemical_formula_structural   ZnH35C32NO4
_chemical_formula_sum   'Zn2 H70 C64 N2 O8'
_cell_volume   4160.33126603
_cell_formula_units_Z   2
loop_
 _symmetry_equiv_pos_site_id
 _symmetry_equiv_pos_as_xyz
  1  'x, y, z'
loop_
 _atom_site_type_symbol
 _atom_site_label
 _atom_site_symmetry_multiplicity
 _atom_site_fract_x
 _atom_site_fract_y
 _atom_site_fract_z
 _atom_site_occupancy
  Zn  Zn1  1  0.40278500  0.50593900  0.50493800  1
  Zn  Zn2  1  0.60734600  0.50548500  0.50290500  1
  H  H1  1  0.63368400  0.51449400  0.74623700  1
  H  H2  1  0.37651800  0.49882200  0.26152300  1
  H  H3  1  0.66421000  0.50290100  0.25756600  1
  H  H4  1  0.34601200  0.50774100  0.75031300  1
  H  H5  1  0.60241000  0.47469100  0.00064800  1
  H  H6  1  0.40781200  0.53794600  0.00705900  1
  H  H7  1  0.33868100  0.51190700  0.88934400  1
  H  H8  1  0.67157700  0.49931500  0.11852200  1
  H  H9  1  0.38390200  0.49336700  0.12409900  1
  H  H10  1  0.62626700  0.52039500  0.88369700  1
  H  H11  1  0.45055300  0.06210900  0.38328800  1
  H  H12  1  0.55491100  0.95189000  0.62112200  1
  H  H13  1  0.65366400  0.05889400  0.51804400  1
  H  H14  1  0.35375200  0.95002300  0.48433800  1
  H  H15  1  0.95162100  0.51928700  0.37643400  1
  H  H16  1  0.05868000  0.47532900  0.62985800  1
  H  H17  1  0.09486500  0.68847200  0.49922800  1
  H  H18  1  0.00459600  0.69357800  0.43618700  1
  H  H19  1  0.19325100  0.61989500  0.39426300  1
  H  H20  1  0.02580600  0.64949800  0.30478700  1
  H  H21  1  0.09372700  0.55564200  0.31084900  1
  H  H22  1  0.13775200  0.64438600  0.25885100  1
  H  H23  1  0.10795600  0.78614200  0.35202800  1
  H  H24  1  0.21883100  0.74830900  0.32055200  1
  H  H25  1  0.19333700  0.77250000  0.42011100  1
  H  H26  1  0.95561100  0.34886100  0.62963100  1
  H  H27  1  0.99809100  0.29271500  0.54693400  1
  H  H28  1  0.80454500  0.35865300  0.57507400  1
  H  H29  1  0.88928200  0.23749000  0.45376000  1
  H  H30  1  0.85556100  0.34355300  0.43443100  1
  H  H31  1  0.77245000  0.26755500  0.46587000  1
  H  H32  1  0.88526000  0.18404900  0.58758800  1
  H  H33  1  0.76680300  0.21012100  0.59530800  1
  H  H34  1  0.83994100  0.24915400  0.66538600  1
  H  H35  1  0.05931900  0.40031500  0.34027400  1
  H  H36  1  0.01822900  0.31845700  0.40225100  1
  H  H37  1  0.21000000  0.39129700  0.39540200  1
  H  H38  1  0.12856000  0.23468400  0.47558400  1
  H  H39  1  0.15968000  0.32887600  0.52456000  1
  H  H40  1  0.24458100  0.26752900  0.47310100  1
  H  H41  1  0.13399600  0.22943900  0.33315100  1
  H  H42  1  0.25168600  0.25735500  0.33362100  1
  H  H43  1  0.17736800  0.31796800  0.27806000  1
  H  H44  1  0.90859800  0.67621600  0.56233800  1
  H  H45  1  0.99893300  0.66038800  0.62390700  1
  H  H46  1  0.81339800  0.57335500  0.64154600  1
  H  H47  1  0.97991000  0.57341500  0.73580200  1
  H  H48  1  0.91589900  0.48538500  0.70248100  1
  H  H49  1  0.86839200  0.55100500  0.77735200  1
  H  H50  1  0.89188300  0.71783400  0.73034500  1
  H  H51  1  0.78270200  0.66936300  0.74849600  1
  H  H52  1  0.80698600  0.72700300  0.66124300  1
  H  H53  1  0.68567400  0.93033200  0.40700200  1
  H  H54  1  0.64890700  0.01437300  0.34882400  1
  H  H55  1  0.57240100  0.83501200  0.35366400  1
  H  H56  1  0.52845800  0.99157100  0.26209600  1
  H  H57  1  0.45208000  0.92374200  0.31873500  1
  H  H58  1  0.50517300  0.88705200  0.23025000  1
  H  H59  1  0.68990000  0.92819700  0.23145400  1
  H  H60  1  0.64877600  0.82210700  0.22649100  1
  H  H61  1  0.72864400  0.84911700  0.29553000  1
  H  H62  1  0.43399400  0.08393600  0.67089800  1
  H  H63  1  0.35957700  0.99814700  0.65635600  1
  H  H64  1  0.34369200  0.17449500  0.58663600  1
  H  H65  1  0.23071700  0.01494000  0.58054700  1
  H  H66  1  0.27287600  0.08217400  0.50240900  1
  H  H67  1  0.18369000  0.11745500  0.56816300  1
  H  H68  1  0.23382000  0.08723700  0.71735400  1
  H  H69  1  0.21608400  0.19105000  0.68021300  1
  H  H70  1  0.31653400  0.16845700  0.72843700  1
  C  C1  1  0.50561900  0.66887900  0.50213600  1
  C  C2  1  0.50448600  0.34255300  0.50562800  1
  C  C3  1  0.49536100  0.50782300  0.65396900  1
  C  C4  1  0.51478800  0.50370800  0.35387100  1
  C  C5  1  0.49044900  0.50979300  0.73800300  1
  C  C6  1  0.51975400  0.50204500  0.26982500  1
  C  C7  1  0.56830400  0.51297500  0.77689500  1
  C  C8  1  0.44191500  0.49978700  0.23089000  1
  C  C9  1  0.56392500  0.51531400  0.85589000  1
  C  C10  1  0.44630300  0.49774100  0.15189100  1
  C  C11  1  0.48129000  0.51393200  0.89720800  1
  C  C12  1  0.52896100  0.49854800  0.11058500  1
  C  C13  1  0.40372300  0.51213600  0.85805500  1
  C  C14  1  0.60651700  0.49952700  0.14978200  1
  C  C15  1  0.40803000  0.50967500  0.77911000  1
  C  C16  1  0.60219100  0.50165900  0.22874100  1
  C  C17  1  0.47208200  0.51729900  0.98162800  1
  C  C18  1  0.53818200  0.49538900  0.02614300  1
  C  C19  1  0.47455000  0.03504100  0.43662300  1
  C  C20  1  0.53171900  0.97698200  0.56668500  1
  C  C21  1  0.55729400  0.98126400  0.44436400  1
  C  C22  1  0.44855100  0.03028400  0.55869700  1
  C  C23  1  0.50577700  0.75845400  0.50129200  1
  C  C24  1  0.50409100  0.25300600  0.50543200  1
  C  C25  1  0.42103300  0.97697800  0.49247400  1
  C  C26  1  0.58515900  0.03411400  0.51090400  1
  C  C27  1  0.50495600  0.92502000  0.49984000  1
  C  C28  1  0.50188400  0.08649900  0.50388600  1
  C  C29  1  0.50560900  0.83368200  0.50053900  1
  C  C30  1  0.50321000  0.17779800  0.50491300  1
  C  C31  1  0.03442800  0.57010700  0.47709300  1
  C  C32  1  0.97514700  0.42484200  0.52901300  1
  C  C33  1  0.97757600  0.50985100  0.43378800  1
  C  C34  1  0.03269400  0.48570600  0.57264800  1
  C  C35  1  0.97351600  0.55712000  0.54890600  1
  C  C36  1  0.03738000  0.43771300  0.45768900  1
  C  C37  1  0.91713200  0.49726500  0.50600300  1
  C  C38  1  0.09310000  0.49917000  0.50053000  1
  C  C39  1  0.81920500  0.50196100  0.50354800  1
  C  C40  1  0.19095000  0.50347400  0.50385300  1
  C  C41  1  0.06456900  0.65718000  0.45055400  1
  C  C42  1  0.13383300  0.65780900  0.38198300  1
  C  C43  1  0.09473000  0.62475300  0.30980100  1
  C  C44  1  0.16534300  0.74694600  0.36772700  1
  C  C45  1  0.94949300  0.34128200  0.56719100  1
  C  C46  1  0.85424900  0.31079600  0.55530200  1
  C  C47  1  0.84255500  0.28867900  0.47200500  1
  C  C48  1  0.83552800  0.23349100  0.60396800  1
  C  C49  1  0.06552400  0.37166200  0.39737400  1
  C  C50  1  0.16158300  0.33896300  0.40030200  1
  C  C51  1  0.17397500  0.28960300  0.47312000  1
  C  C52  1  0.18232200  0.28219400  0.33192000  1
  C  C53  1  0.94027600  0.63009700  0.59944100  1
  C  C54  1  0.87129800  0.60605800  0.66441500  1
  C  C55  1  0.91203200  0.55056200  0.72351900  1
  C  C56  1  0.83613200  0.68517800  0.70368300  1
  C  C57  1  0.62664600  0.95704100  0.38015600  1
  C  C58  1  0.59325000  0.89321200  0.32349800  1
  C  C59  1  0.51484000  0.92649900  0.28116400  1
  C  C60  1  0.67008500  0.87193500  0.26546600  1
  C  C61  1  0.38963600  0.05529900  0.62961900  1
  C  C62  1  0.31496100  0.11740400  0.61404900  1
  C  C63  1  0.24648700  0.08014200  0.56308900  1
  C  C64  1  0.26722900  0.14249700  0.68991200  1
  N  N1  1  0.74172900  0.50504000  0.50198000  1
  N  N2  1  0.26839800  0.50613500  0.50587700  1
  O  O1  1  0.42784000  0.63028400  0.50337200  1
  O  O2  1  0.58221700  0.38114700  0.50442700  1
  O  O3  1  0.58317500  0.62995700  0.50168500  1
  O  O4  1  0.42703500  0.38150000  0.50609500  1
  O  O5  1  0.41998800  0.50738200  0.61893200  1
  O  O6  1  0.59015800  0.50406000  0.38891100  1
  O  O7  1  0.57506600  0.50710100  0.61724100  1
  O  O8  1  0.43506000  0.50436300  0.39059700  1
