# Generated by REPEAT Assigner based on pymatgen
data_DB0-m2_o14_o17_f0_nbo.sym.39_sqe
_audit_creation_date              2022-05-24
_audit_creation_method            REPEAT_Assigner
_cell_length_a                    29.796080
_cell_length_b                    30.409637
_cell_length_c                    21.287058
_cell_angle_alpha                 90.000000
_cell_angle_beta                  134.383675
_cell_angle_gamma                 90.000000
_cell_volume                      13784.556100
_symmetry_space_group_name_H-M    P1
_symmetry_Int_Tables_number       1
loop_
    _symmetry_equiv_pos_site_id
    _symmetry_equiv_pos_as_xyz
    1  x,y,z
loop_
    _atom_site_type_symbol
    _atom_site_label
    _atom_site_fract_x
    _atom_site_fract_y
    _atom_site_fract_z
    _atom_type_partial_charge
    O   O1    0.331800  0.786962  0.143160  -0.607997
    O   O2    0.668201  0.786962  0.856841  -0.608020
    O   O3    0.831800  0.286962  0.143160  -0.608025
    O   O4    0.168201  0.286962  0.856841  -0.608005
    O   O5    0.254531  0.837476  0.039656  -0.639972
    O   O6    0.745470  0.837476  0.960345  -0.639966
    O   O7    0.754531  0.337476  0.039656  -0.639958
    O   O8    0.245470  0.337476  0.960345  -0.640003
    C   C1    0.306420  0.826582  0.120701  0.830864
    C   C2    0.693581  0.826582  0.879300  0.830845
    C   C3    0.806420  0.326582  0.120701  0.830867
    C   C4    0.193581  0.326582  0.879300  0.830871
    O   O9    0.334391  0.735929  0.039129  -0.584223
    O   O10   0.665610  0.735929  0.960872  -0.584256
    O   O11   0.834391  0.235929  0.039129  -0.584217
    O   O12   0.165610  0.235929  0.960872  -0.584226
    O   O13   0.298754  0.804438  0.971269  -0.578336
    O   O14   0.701246  0.804438  0.028732  -0.578346
    O   O15   0.798754  0.304438  0.971269  -0.578334
    O   O16   0.201246  0.304438  0.028732  -0.578391
    C   C5    0.337793  0.770751  0.005558  0.625135
    C   C6    0.662208  0.770751  0.994443  0.625201
    C   C7    0.837793  0.270751  0.005558  0.625138
    C   C8    0.162208  0.270751  0.994443  0.625238
    Cu  Cu1   0.282164  0.737552  0.063376  0.954208
    Cu  Cu2   0.717837  0.737552  0.936624  0.954167
    Cu  Cu3   0.782164  0.237552  0.063376  0.954194
    Cu  Cu4   0.217837  0.237552  0.936624  0.954266
    Cu  Cu5   0.220594  0.798341  0.942053  0.979089
    Cu  Cu6   0.779406  0.798341  0.057948  0.979115
    Cu  Cu7   0.720594  0.298341  0.942053  0.979105
    Cu  Cu8   0.279406  0.298341  0.057948  0.979080
    O   O17   0.222981  0.697560  0.964788  -0.626309
    O   O18   0.777020  0.697560  0.035213  -0.626329
    O   O19   0.722981  0.197560  0.964788  -0.626321
    O   O20   0.277020  0.197560  0.035213  -0.626308
    O   O21   0.196196  0.749787  0.863249  -0.637734
    O   O22   0.803805  0.749787  0.136752  -0.637803
    O   O23   0.696196  0.249787  0.863249  -0.637741
    O   O24   0.303805  0.249787  0.136752  -0.637855
    O   O25   0.220302  0.748676  0.068661  -0.590210
    O   O26   0.779699  0.748676  0.931339  -0.590142
    O   O27   0.720302  0.248676  0.068661  -0.590243
    O   O28   0.279699  0.248676  0.931339  -0.590145
    O   O29   0.152065  0.782744  0.931795  -0.578647
    O   O30   0.847935  0.782744  0.068206  -0.578554
    O   O31   0.652065  0.282744  0.931795  -0.578660
    O   O32   0.347935  0.282744  0.068206  -0.578629
    C   C9    0.196532  0.709065  0.885192  0.852432
    C   C10   0.803469  0.709065  0.114809  0.852464
    C   C11   0.696532  0.209065  0.885192  0.852443
    C   C12   0.303469  0.209065  0.114809  0.852505
    C   C13   0.164870  0.765189  0.999686  0.649857
    C   C14   0.835130  0.765189  0.000314  0.649697
    C   C15   0.664870  0.265189  0.999686  0.649894
    C   C16   0.335130  0.265189  0.000314  0.649766
    C   C17   0.592303  0.810691  0.999132  -0.302357
    C   C18   0.407697  0.810691  0.000868  -0.302324
    C   C19   0.092303  0.310691  0.999132  -0.302203
    C   C20   0.907697  0.310691  0.000868  -0.302331
    C   C21   0.613575  0.771357  0.995394  0.115070
    C   C22   0.386426  0.771357  0.004607  0.115059
    C   C23   0.113575  0.271357  0.995394  0.114899
    C   C24   0.886426  0.271357  0.004607  0.115075
    C   C25   0.589127  0.732195  0.993374  -0.359198
    C   C26   0.410874  0.732195  0.006627  -0.359170
    C   C27   0.089127  0.232195  0.993374  -0.358956
    C   C28   0.910874  0.232195  0.006627  -0.359210
    C   C29   0.544591  0.732271  0.996736  0.280664
    C   C30   0.455410  0.732271  0.003265  0.280657
    C   C31   0.044591  0.232271  0.996736  0.280350
    C   C32   0.955410  0.232271  0.003265  0.280704
    C   C33   0.522658  0.771537  0.999021  -0.049739
    C   C34   0.477343  0.771537  0.000980  -0.049776
    C   C35   0.022658  0.271537  0.999021  -0.049427
    C   C36   0.977343  0.271537  0.000980  -0.049911
    C   C37   0.546069  0.810759  0.999395  0.226341
    C   C38   0.453932  0.810759  0.000606  0.226350
    C   C39   0.046069  0.310759  0.999395  0.226146
    C   C40   0.953932  0.310759  0.000606  0.226400
    C   C41   0.522094  0.692997  0.998019  -0.251456
    C   C42   0.477907  0.692997  0.001981  -0.251450
    C   C43   0.022094  0.192997  0.998019  -0.251447
    C   C44   0.977907  0.192997  0.001981  -0.251401
    C   C45   0.476820  0.850022  0.999924  -0.217670
    C   C46   0.523181  0.850022  0.000077  -0.217680
    C   C47   0.976820  0.350022  0.999924  -0.217717
    C   C48   0.023181  0.350022  0.000077  -0.217625
    H   H1    0.610690  0.841525  0.999847  0.150019
    H   H2    0.389310  0.841525  0.000154  0.149987
    H   H3    0.110690  0.341525  0.999847  0.149988
    H   H4    0.889310  0.341525  0.000154  0.149982
    H   H5    0.605930  0.701208  0.991576  0.175937
    H   H6    0.394071  0.701208  0.008424  0.175925
    H   H7    0.105930  0.201208  0.991576  0.175901
    H   H8    0.894071  0.201208  0.008424  0.175928
    H   H9    0.539259  0.662088  0.996543  0.156162
    H   H10   0.460742  0.662088  0.003458  0.156160
    H   H11   0.039259  0.162088  0.996543  0.156184
    H   H12   0.960742  0.162088  0.003458  0.156139
    H   H13   0.458884  0.880933  0.999869  0.144819
    H   H14   0.541117  0.880933  0.000132  0.144813
    H   H15   0.958884  0.380933  0.999869  0.144831
    H   H16   0.041117  0.380933  0.000132  0.144811
    H   H17   0.360046  0.897942  0.128884  0.127387
    H   H18   0.639955  0.897942  0.871117  0.127351
    H   H19   0.860046  0.397942  0.128884  0.127384
    H   H20   0.139955  0.397942  0.871117  0.127348
    C   C49   0.315520  0.822756  0.264228  -0.326588
    C   C50   0.684481  0.822756  0.735773  -0.326453
    C   C51   0.815520  0.322756  0.264228  -0.326580
    C   C52   0.184481  0.322756  0.735773  -0.326454
    H   H21   0.288703  0.797650  0.214436  0.175502
    H   H22   0.711298  0.797650  0.785565  0.175473
    H   H23   0.788703  0.297650  0.214436  0.175509
    H   H24   0.211298  0.297650  0.785565  0.175483
    C   C53   0.320799  0.819634  0.333593  -0.016775
    C   C54   0.679202  0.819634  0.666408  -0.016811
    C   C55   0.820799  0.319634  0.333593  -0.016779
    C   C56   0.179202  0.319634  0.666408  -0.016812
    H   H25   0.298427  0.792411  0.335439  0.114323
    H   H26   0.701573  0.792411  0.664562  0.114340
    H   H27   0.798427  0.292411  0.335439  0.114309
    H   H28   0.201573  0.292411  0.664562  0.114328
    C   C57   0.354216  0.850711  0.399393  -0.126876
    C   C58   0.645785  0.850711  0.600608  -0.126960
    C   C59   0.854216  0.350711  0.399393  -0.126847
    C   C60   0.145785  0.350711  0.600608  -0.126939
    C   C61   0.381793  0.885322  0.394721  -0.212732
    C   C62   0.618208  0.885322  0.605280  -0.212738
    C   C63   0.881793  0.385322  0.394721  -0.212772
    C   C64   0.118208  0.385322  0.605280  -0.212778
    H   H29   0.408588  0.908707  0.447806  0.103431
    H   H30   0.591412  0.908707  0.552194  0.103471
    H   H31   0.908588  0.408707  0.447806  0.103441
    H   H32   0.091412  0.408707  0.552194  0.103481
    C   C65   0.375434  0.889464  0.323750  0.233760
    C   C66   0.624567  0.889464  0.676250  0.233892
    C   C67   0.875434  0.389464  0.323750  0.233807
    C   C68   0.124567  0.389464  0.676250  0.233928
    C   C69   0.343152  0.857308  0.258946  0.209244
    C   C70   0.656849  0.857308  0.741055  0.209039
    C   C71   0.843152  0.357308  0.258946  0.209221
    C   C72   0.156849  0.357308  0.741055  0.209036
    C   C73   0.337983  0.860385  0.188890  -0.192618
    C   C74   0.662017  0.860385  0.811111  -0.192568
    C   C75   0.837983  0.360385  0.188890  -0.192604
    C   C76   0.162017  0.360385  0.811111  -0.192585
    C   C77   0.364017  0.895603  0.183286  -0.120330
    C   C78   0.635984  0.895603  0.816715  -0.120207
    C   C79   0.864017  0.395603  0.183286  -0.120346
    C   C80   0.135984  0.395603  0.816715  -0.120217
    H   H33   0.417330  0.954494  0.243079  0.098676
    H   H34   0.582670  0.954494  0.756922  0.098718
    H   H35   0.917330  0.454494  0.243079  0.098669
    H   H36   0.082670  0.454494  0.756922  0.098712
    C   C81   0.396626  0.927183  0.247854  -0.032812
    C   C82   0.603375  0.927183  0.752147  -0.033003
    C   C83   0.896626  0.427183  0.247854  -0.032771
    C   C84   0.103375  0.427183  0.752147  -0.032971
    C   C85   0.402303  0.924634  0.317757  -0.244424
    C   C86   0.597698  0.924634  0.682244  -0.244382
    C   C87   0.902303  0.424634  0.317757  -0.244474
    C   C88   0.097698  0.424634  0.682244  -0.244426
    C   C89   0.868366  0.763095  0.922050  -0.353137
    C   C90   0.131635  0.763095  0.077951  -0.353153
    C   C91   0.368366  0.263095  0.922050  -0.353114
    C   C92   0.631635  0.263095  0.077951  -0.353140
    C   C93   0.884385  0.764607  0.000595  0.099008
    C   C94   0.115615  0.764607  0.999405  0.098913
    C   C95   0.384385  0.264607  0.000595  0.098961
    C   C96   0.615615  0.264607  0.999405  0.098895
    C   C97   0.946905  0.765919  0.078963  -0.315784
    C   C98   0.053096  0.765919  0.921038  -0.315596
    C   C99   0.446905  0.265919  0.078963  -0.315759
    C   C100  0.553096  0.265919  0.921038  -0.315609
    C   C101  0.993102  0.765028  0.078713  0.238014
    C   C102  0.006898  0.765028  0.921288  0.237692
    C   C103  0.493102  0.265028  0.078713  0.238022
    C   C104  0.506898  0.265028  0.921288  0.237723
    C   C105  0.976914  0.764330  0.000138  -0.050802
    C   C106  0.023087  0.764330  0.999863  -0.050471
    C   C107  0.476914  0.264330  0.000138  -0.050775
    C   C108  0.523087  0.264330  0.999863  -0.050455
    C   C109  0.914539  0.763720  0.921820  0.279053
    C   C110  0.085462  0.763720  0.078180  0.278935
    C   C111  0.414539  0.263720  0.921820  0.279054
    C   C112  0.585462  0.263720  0.078180  0.278946
    C   C113  0.055563  0.764889  0.157070  -0.206468
    C   C114  0.944437  0.764889  0.842931  -0.206324
    C   C115  0.555563  0.264889  0.157070  -0.206456
    C   C116  0.444437  0.264889  0.842931  -0.206325
    C   C117  0.101668  0.763878  0.156803  -0.266816
    C   C118  0.898333  0.763878  0.843198  -0.266851
    C   C119  0.601668  0.263878  0.156803  -0.266828
    C   C120  0.398333  0.263878  0.843198  -0.266856
    H   H37   0.819605  0.762634  0.860297  0.175310
    H   H38   0.180395  0.762634  0.139704  0.175349
    H   H39   0.319605  0.262634  0.860297  0.175295
    H   H40   0.680395  0.262634  0.139704  0.175337
    H   H41   0.959935  0.766644  0.140775  0.151765
    H   H42   0.040065  0.766644  0.859226  0.151759
    H   H43   0.459935  0.266644  0.140775  0.151742
    H   H44   0.540065  0.266644  0.859226  0.151752
    H   H45   0.068671  0.765325  0.218952  0.148773
    H   H46   0.931330  0.765325  0.781048  0.148728
    H   H47   0.568671  0.265325  0.218952  0.148756
    H   H48   0.431330  0.265325  0.781048  0.148715
    H   H49   0.150496  0.763560  0.218491  0.157911
    H   H50   0.849505  0.763560  0.781509  0.157909
    H   H51   0.650496  0.263560  0.218491  0.157904
    H   H52   0.349505  0.263560  0.781509  0.157901
    H   H53   0.074946  0.702890  0.747064  0.126981
    H   H54   0.925055  0.702890  0.252937  0.126901
    H   H55   0.574946  0.202890  0.747064  0.126979
    H   H56   0.425055  0.202890  0.252937  0.126965
    C   C121  0.263221  0.639474  0.887895  -0.292027
    C   C122  0.736780  0.639474  0.112106  -0.292034
    C   C123  0.763221  0.139474  0.887895  -0.292036
    C   C124  0.236780  0.139474  0.112106  -0.292045
    H   H57   0.290252  0.664213  0.938438  0.169828
    H   H58   0.709748  0.664213  0.061563  0.169834
    H   H59   0.790252  0.164213  0.938438  0.169829
    H   H60   0.209748  0.164213  0.061563  0.169830
    C   C125  0.295704  0.605718  0.891545  -0.088473
    C   C126  0.704297  0.605718  0.108455  -0.088451
    C   C127  0.795704  0.105718  0.891545  -0.088475
    C   C128  0.204297  0.105718  0.108455  -0.088434
    H   H61   0.346366  0.604680  0.944013  0.101918
    H   H62   0.653635  0.604680  0.055988  0.101912
    H   H63   0.846366  0.104680  0.944013  0.101919
    H   H64   0.153635  0.104680  0.055988  0.101904
    C   C129  0.263809  0.573178  0.829032  -0.032626
    C   C130  0.736191  0.573179  0.170968  -0.032655
    C   C131  0.763809  0.073178  0.829032  -0.032613
    C   C132  0.236191  0.073179  0.170968  -0.032648
    H   H65   0.289367  0.546401  0.832573  0.094176
    H   H66   0.710634  0.546401  0.167427  0.094176
    H   H67   0.789367  0.046401  0.832573  0.094169
    H   H68   0.210634  0.046401  0.167427  0.094171
    C   C133  0.199362  0.574597  0.761842  -0.310300
    C   C134  0.800639  0.574597  0.238159  -0.310220
    C   C135  0.699362  0.074597  0.761842  -0.310325
    C   C136  0.300639  0.074597  0.238159  -0.310258
    H   H69   0.176513  0.547999  0.715057  0.165707
    H   H70   0.823488  0.547999  0.284944  0.165669
    H   H71   0.676513  0.047999  0.715057  0.165729
    H   H72   0.323488  0.047999  0.284944  0.165692
    C   C137  0.165948  0.608960  0.756199  0.227796
    C   C138  0.834052  0.608960  0.243802  0.227710
    C   C139  0.665948  0.108960  0.756199  0.227800
    C   C140  0.334052  0.108960  0.243802  0.227734
    C   C141  0.198154  0.641197  0.820918  0.224267
    C   C142  0.801847  0.641197  0.179082  0.224273
    C   C143  0.698154  0.141197  0.820918  0.224286
    C   C144  0.301847  0.141197  0.179082  0.224271
    C   C145  0.165046  0.675060  0.817369  -0.224903
    C   C146  0.834955  0.675060  0.182631  -0.224955
    C   C147  0.665046  0.175060  0.817369  -0.224902
    C   C148  0.334955  0.175060  0.182631  -0.224903
    C   C149  0.100640  0.676665  0.749535  -0.106747
    C   C150  0.899360  0.676665  0.250466  -0.106464
    C   C151  0.600640  0.176665  0.749535  -0.106759
    C   C152  0.399360  0.176665  0.250466  -0.106647
    H   H73   0.018004  0.645766  0.633875  0.124993
    H   H74   0.981997  0.645766  0.366126  0.125005
    H   H75   0.518004  0.145766  0.633875  0.124984
    H   H76   0.481997  0.145766  0.366126  0.125010
    C   C153  0.068651  0.644406  0.686264  -0.094496
    C   C154  0.931350  0.644406  0.313736  -0.094656
    C   C155  0.568651  0.144406  0.686264  -0.094472
    C   C156  0.431350  0.144406  0.313736  -0.094609
    C   C157  0.100728  0.610840  0.688374  -0.208435
    C   C158  0.899273  0.610840  0.311626  -0.208373
    C   C159  0.600728  0.110840  0.688374  -0.208445
    C   C160  0.399273  0.110840  0.311626  -0.208362
    O   O33   0.978559  0.555481  0.390127  -0.606672
    O   O34   0.021442  0.555481  0.609874  -0.606648
    O   O35   0.478559  0.055481  0.390127  -0.606673
    O   O36   0.521442  0.055481  0.609874  -0.606659
    O   O37   0.926503  0.571795  0.432313  -0.593326
    O   O38   0.073498  0.571795  0.567688  -0.593313
    O   O39   0.426503  0.071795  0.432313  -0.593336
    O   O40   0.573498  0.071795  0.567688  -0.593332
    C   C161  0.936011  0.577464  0.380819  0.775157
    C   C162  0.063990  0.577464  0.619182  0.775115
    C   C163  0.436011  0.077464  0.380819  0.775134
    C   C164  0.563990  0.077464  0.619182  0.775122
    O   O41   0.496006  0.966626  0.422898  -0.558566
    O   O42   0.503995  0.966626  0.577103  -0.558597
    O   O43   0.996006  0.466626  0.422898  -0.558566
    O   O44   0.003995  0.466626  0.577103  -0.558592
    O   O45   0.409373  0.982880  0.400231  -0.585633
    O   O46   0.590628  0.982880  0.599769  -0.585791
    O   O47   0.909373  0.482880  0.400231  -0.585589
    O   O48   0.090628  0.482880  0.599769  -0.585750
    C   C165  0.437718  0.959390  0.384205  0.745949
    C   C166  0.562282  0.959390  0.615796  0.746127
    C   C167  0.937718  0.459390  0.384205  0.745971
    C   C168  0.062282  0.459390  0.615796  0.746146
    Cu  Cu9   0.540941  0.019266  0.494203  0.940168
    Cu  Cu10  0.459060  0.019266  0.505798  0.940090
    Cu  Cu11  0.040941  0.519266  0.494203  0.940111
    Cu  Cu12  0.959060  0.519266  0.505798  0.940074
    C   C169  0.359899  0.847143  0.473566  0.730572
    O   O49   0.336347  0.816052  0.477969  -0.567037
    O   O50   0.390476  0.878392  0.536389  -0.389245
    C   C170  0.394954  0.875970  0.604941  0.374119
    C   C171  0.431115  0.915349  0.664433  -0.303022
    H   H77   0.420092  0.845465  0.643138  -0.022225
    H   H78   0.347270  0.876085  0.579248  -0.012270
    H   H79   0.479001  0.915125  0.690977  0.093758
    H   H80   0.434283  0.913736  0.719483  0.060413
    H   H81   0.406579  0.945975  0.626363  0.077522
    C   C172  0.640102  0.847143  0.526434  0.730674
    O   O51   0.663654  0.816052  0.522032  -0.567061
    O   O52   0.609525  0.878392  0.463612  -0.389311
    C   C173  0.605046  0.875970  0.395059  0.374173
    C   C174  0.568886  0.915349  0.335568  -0.302998
    H   H82   0.579909  0.845465  0.356862  -0.022236
    H   H83   0.652731  0.876085  0.420753  -0.012288
    H   H84   0.521000  0.915125  0.309023  0.093746
    H   H85   0.565718  0.913736  0.280518  0.060405
    H   H86   0.593422  0.945975  0.373638  0.077514
    C   C175  0.859899  0.347143  0.473566  0.730545
    O   O53   0.836347  0.316052  0.477969  -0.567028
    O   O54   0.890476  0.378392  0.536389  -0.389226
    C   C176  0.894954  0.375970  0.604941  0.374101
    C   C177  0.931115  0.415349  0.664433  -0.303005
    H   H87   0.920092  0.345465  0.643138  -0.022228
    H   H88   0.847270  0.376085  0.579248  -0.012265
    H   H89   0.979001  0.415125  0.690977  0.093747
    H   H90   0.934283  0.413736  0.719483  0.060412
    H   H91   0.906579  0.445975  0.626363  0.077522
    C   C178  0.140102  0.347143  0.526434  0.730651
    O   O55   0.163654  0.316052  0.522032  -0.567054
    O   O56   0.109525  0.378392  0.463612  -0.389292
    C   C179  0.105046  0.375970  0.395059  0.374155
    C   C180  0.068886  0.415349  0.335568  -0.302976
    H   H92   0.079909  0.345465  0.356862  -0.022241
    H   H93   0.152731  0.376085  0.420753  -0.012284
    H   H94   0.021000  0.415125  0.309023  0.093733
    H   H95   0.065718  0.413736  0.280518  0.060403
    H   H96   0.093422  0.445975  0.373638  0.077512
