# Generated by REPEAT Assigner based on pymatgen
data_DB0-m3_o16_o1480_f0_fsc.sym.7
_audit_creation_date              2022-05-24
_audit_creation_method            REPEAT_Assigner
_cell_length_a                    8.559786
_cell_length_b                    10.810542
_cell_length_c                    12.200556
_cell_angle_alpha                 99.668068
_cell_angle_beta                  90.115547
_cell_angle_gamma                 89.991652
_cell_volume                      1112.952716
_symmetry_space_group_name_H-M    P1
_symmetry_Int_Tables_number       1
loop_
    _symmetry_equiv_pos_site_id
    _symmetry_equiv_pos_as_xyz
    1  x,y,z
loop_
    _atom_site_type_symbol
    _atom_site_label
    _atom_site_fract_x
    _atom_site_fract_y
    _atom_site_fract_z
    _atom_type_partial_charge
    C   C1   0.997625  0.670816  0.961084  -0.214938
    C   C2   0.857687  0.731865  0.977484  -0.348427
    C   C3   0.853633  0.860450  0.994612  0.418625
    C   C4   0.135000  0.736072  0.980618  0.070936
    C   C5   0.132743  0.867059  0.993298  -0.207914
    C   C6   0.990914  0.929813  0.991991  -0.063306
    C   C7   0.991885  0.060742  0.998046  -0.134471
    C   C8   0.857602  0.130662  0.987030  -0.197015
    C   C9   0.858691  0.258238  0.019849  -0.250902
    C   C10  0.269698  0.935923  0.006225  0.646401
    N   N1   0.267575  0.061421  0.014054  -0.720651
    C   C11  0.133289  0.124610  0.010716  0.613059
    C   C12  0.135969  0.254605  0.026265  -0.500141
    C   C13  0.997802  0.319190  0.046384  0.398063
    H   H1   0.999900  0.570040  0.942262  0.165316
    H   H2   0.750023  0.092432  0.951676  0.131040
    O   O1   0.665407  0.648245  0.085799  -0.739884
    O   O2   0.660616  0.590465  0.895948  -0.751008
    C   C14  0.716017  0.658388  0.986381  1.036772
    O   O3   0.661813  0.339610  0.913796  -0.673112
    O   O4   0.662402  0.397261  0.106247  -0.754716
    C   C15  0.716524  0.331462  0.013405  0.852711
    O   O5   0.328343  0.338885  0.916607  -0.578776
    O   O6   0.334953  0.395633  0.108481  -0.691138
    C   C16  0.279246  0.327599  0.017211  0.838993
    O   O7   0.328041  0.648082  0.087697  -0.588098
    O   O8   0.327439  0.590836  0.898332  -0.604610
    C   C17  0.275405  0.659829  0.988973  0.599272
    Zn  Zn1  0.493785  0.457023  0.877311  0.997449
    Zn  Zn2  0.497690  0.532386  0.125102  1.051557
    C   C18  0.487785  0.741888  0.419807  0.429550
    H   H3   0.474646  0.806075  0.631811  0.087827
    N   N2   0.499497  0.574403  0.270419  0.052063
    C   C19  0.490712  0.292661  0.694247  0.325143
    C   C20  0.488528  0.244437  0.582987  -0.244937
    C   C21  0.488911  0.321408  0.505043  -0.065356
    C   C22  0.490129  0.450243  0.537861  0.020991
    C   C23  0.489747  0.498708  0.653207  0.071987
    C   C24  0.491536  0.531277  0.457459  0.081317
    C   C25  0.486071  0.658927  0.493562  -0.180105
    C   C26  0.480405  0.705957  0.603766  -0.107300
    C   C27  0.486517  0.630549  0.682444  0.162496
    C   C28  0.497580  0.490557  0.341614  -0.225659
    C   C29  0.495664  0.698375  0.308812  0.004792
    N   N3   0.491236  0.418201  0.730965  -0.099885
    H   H4   0.501272  0.393131  0.304940  0.199531
    H   H5   0.486555  0.275843  0.419881  0.127850
    H   H6   0.486967  0.143881  0.556357  0.147736
    O   O9   0.407966  0.878421  0.018840  -0.480536
    H   H7   0.440105  0.914426  0.095439  0.323360
    O   O10  0.491529  0.209772  0.767177  -0.391084
    H   H8   0.590551  0.162744  0.751747  0.346539
    O   O11  0.491032  0.694199  0.787651  -0.272799
    H   H9   0.580668  0.752212  0.788224  0.260802
    O   O12  0.999578  0.445624  0.082005  -0.363689
    H   H10  0.996913  0.455135  0.164112  0.300719
    O   O13  0.712502  0.915676  0.016930  -0.431608
    H   H11  0.660217  0.901034  0.943485  0.317476
    O   O14  0.498748  0.782836  0.237541  -0.359997
    H   H12  0.601947  0.824197  0.250292  0.338805
    O   O15  0.482893  0.868535  0.456128  -0.481458
    H   H13  0.593889  0.894022  0.465240  0.304342
