# generated using pymatgen
data_ZnH9C16NO4
_symmetry_space_group_name_H-M   'P 1'
_cell_length_a   14.09286100
_cell_length_b   14.98842800
_cell_length_c   16.12841300
_cell_angle_alpha   90.00823900
_cell_angle_beta   89.98297500
_cell_angle_gamma   85.30145000
_symmetry_Int_Tables_number   1
_chemical_formula_structural   ZnH9C16NO4
_chemical_formula_sum   'Zn2 H18 C32 N2 O8'
_cell_volume   3395.35308302
_cell_formula_units_Z   2
loop_
 _symmetry_equiv_pos_site_id
 _symmetry_equiv_pos_as_xyz
  1  'x, y, z'
loop_
 _atom_site_type_symbol
 _atom_site_label
 _atom_site_symmetry_multiplicity
 _atom_site_fract_x
 _atom_site_fract_y
 _atom_site_fract_z
 _atom_site_occupancy
  Zn  Zn1  1  0.50003300  0.39834900  0.50025100  1
  Zn  Zn2  1  0.49999400  0.60164900  0.49975000  1
  H  H1  1  0.01500100  0.39782700  0.49965000  1
  H  H2  1  0.98502600  0.60217100  0.50035000  1
  H  H3  1  0.50011800  0.36160700  0.91857100  1
  H  H4  1  0.49990800  0.63839100  0.08142900  1
  H  H5  1  0.60740000  0.90943500  0.59305100  1
  H  H6  1  0.39262600  0.09056300  0.40694900  1
  H  H7  1  0.60735700  0.07357300  0.59346000  1
  H  H8  1  0.39267000  0.92642500  0.40654000  1
  H  H9  1  0.43513000  0.25119200  0.99919000  1
  H  H10  1  0.56528400  0.24125500  0.99915400  1
  H  H11  1  0.50025000  0.19002500  0.07966000  1
  H  H12  1  0.56435200  0.32605800  0.13087500  1
  H  H13  1  0.43593300  0.33586300  0.13091000  1
  H  H14  1  0.43474400  0.75874300  0.00084600  1
  H  H15  1  0.56489700  0.74880600  0.00081100  1
  H  H16  1  0.49977700  0.80997300  0.92034000  1
  H  H17  1  0.56409400  0.66413500  0.86909000  1
  H  H18  1  0.43567500  0.67394000  0.86912500  1
  C  C1  1  0.50001300  0.50042400  0.66201300  1
  C  C2  1  0.50001400  0.49957400  0.33798700  1
  C  C3  1  0.68605500  0.48573100  0.49995100  1
  C  C4  1  0.31397200  0.51426700  0.50004900  1
  C  C5  1  0.21181300  0.52212700  0.50007600  1
  C  C6  1  0.78821400  0.47787100  0.49992400  1
  C  C7  1  0.02364800  0.53658200  0.50012500  1
  C  C8  1  0.97637900  0.46341600  0.49987500  1
  C  C9  1  0.87400300  0.47127200  0.49990100  1
  C  C10  1  0.12602300  0.52872600  0.50009900  1
  C  C11  1  0.50007600  0.41853700  0.04208200  1
  C  C12  1  0.49995100  0.58146100  0.95791800  1
  C  C13  1  0.50001500  0.49832900  0.08523700  1
  C  C14  1  0.50001200  0.50166900  0.91476300  1
  C  C15  1  0.49995400  0.57884600  0.04391400  1
  C  C16  1  0.50007300  0.42115200  0.95608700  1
  C  C17  1  0.50001500  0.49876800  0.17430700  1
  C  C18  1  0.50001200  0.50123000  0.82569300  1
  C  C19  1  0.50001200  0.50076600  0.75097200  1
  C  C20  1  0.50001500  0.49923200  0.24902800  1
  C  C21  1  0.56018600  0.04123700  0.55239700  1
  C  C22  1  0.43984100  0.95876100  0.44760400  1
  C  C23  1  0.49997800  0.09199500  0.50023900  1
  C  C24  1  0.50004900  0.90800300  0.49976100  1
  C  C25  1  0.43980900  0.05076000  0.44784000  1
  C  C26  1  0.56021700  0.94923800  0.55216000  1
  C  C27  1  0.49998600  0.18772600  0.50042800  1
  C  C28  1  0.50004000  0.81227200  0.49957200  1
  C  C29  1  0.50014100  0.33285600  0.09087200  1
  C  C30  1  0.50020500  0.24893600  0.03807100  1
  C  C31  1  0.49988600  0.66714300  0.90912800  1
  C  C32  1  0.49982200  0.75106200  0.96192900  1
  N  N1  1  0.50003100  0.73508300  0.49947800  1
  N  N2  1  0.49999600  0.26491500  0.50052200  1
  O  O1  1  0.49999800  0.42317800  0.62373600  1
  O  O2  1  0.50002900  0.57682000  0.37626400  1
  O  O3  1  0.50002700  0.57741400  0.62332700  1
  O  O4  1  0.49999900  0.42258400  0.37667300  1
  O  O5  1  0.64187200  0.41201300  0.50017000  1
  O  O6  1  0.35815400  0.58798500  0.49983000  1
  O  O7  1  0.64185500  0.56624700  0.49975500  1
  O  O8  1  0.35817200  0.43375100  0.50024500  1
