# generated using pymatgen
data_FeH13C25O8
_symmetry_space_group_name_H-M   'P 1'
_cell_length_a   15.81239900
_cell_length_b   16.45112900
_cell_length_c   13.18551800
_cell_angle_alpha   91.72661200
_cell_angle_beta   88.19168100
_cell_angle_gamma   112.48245300
_symmetry_Int_Tables_number   1
_chemical_formula_structural   FeH13C25O8
_chemical_formula_sum   'Fe2 H26 C50 O16'
_cell_volume   3167.09913771
_cell_formula_units_Z   2
loop_
 _symmetry_equiv_pos_site_id
 _symmetry_equiv_pos_as_xyz
  1  'x, y, z'
loop_
 _atom_site_type_symbol
 _atom_site_label
 _atom_site_symmetry_multiplicity
 _atom_site_fract_x
 _atom_site_fract_y
 _atom_site_fract_z
 _atom_site_occupancy
  Fe  Fe1  1  0.50561400  0.01029500  0.21883300  1
  Fe  Fe2  1  0.49836100  0.00646000  0.76923400  1
  H  H1  1  0.17864300  0.01595500  0.83752100  1
  H  H2  1  0.24287400  0.01396800  0.19579200  1
  H  H3  1  0.07304700  0.05203800  0.80177300  1
  H  H4  1  0.92877500  0.04756100  0.75786900  1
  H  H5  1  0.94410900  0.01153800  0.19532000  1
  H  H6  1  0.77792100  0.02620200  0.79588300  1
  H  H7  1  0.81343300  0.98030500  0.15359800  1
  H  H8  1  0.54272200  0.11974000  0.47835000  1
  H  H9  1  0.50950300  0.33004400  0.33251200  1
  H  H10  1  0.51330400  0.32931000  0.65641800  1
  H  H11  1  0.60987700  0.48523500  0.38648100  1
  H  H12  1  0.58512300  0.62226000  0.38465100  1
  H  H13  1  0.39034200  0.38146500  0.60126800  1
  H  H14  1  0.45968400  0.67492200  0.33174100  1
  H  H15  1  0.46017300  0.89796800  0.50763600  1
  H  H16  1  0.48967300  0.68602200  0.65312500  1
  H  H17  1  0.27587900  0.45234000  0.59080700  1
  H  H18  1  0.31654300  0.56910700  0.58906700  1
  H  H19  1  0.36730800  0.46531400  0.75574000  1
  H  H20  1  0.31630000  0.62676500  0.75148400  1
  H  H21  1  0.34566200  0.57601000  0.86334700  1
  H  H22  1  0.16413300  0.07668600  0.29229000  1
  H  H23  1  0.11014700  0.95798900  0.29457100  1
  H  H24  1  0.01574200  0.08860200  0.34991600  1
  H  H25  1  0.99727500  0.90583500  0.41698300  1
  H  H26  1  0.93442900  0.97498100  0.46735900  1
  C  C1  1  0.29272500  0.02027200  0.04700600  1
  C  C2  1  0.27568900  0.02180700  0.94448600  1
  C  C3  1  0.19120000  0.02065100  0.91727200  1
  C  C4  1  0.22570300  0.01599100  0.11788700  1
  C  C5  1  0.14221800  0.01770100  0.09123700  1
  C  C6  1  0.12430400  0.02122700  0.98947800  1
  C  C7  1  0.03979600  0.02351800  0.96197500  1
  C  C8  1  0.02271700  0.03717200  0.86230600  1
  C  C9  1  0.93949300  0.03656100  0.83599600  1
  C  C10  1  0.07767300  0.01701500  0.16595300  1
  C  C11  1  0.99276900  0.01296900  0.13710300  1
  C  C12  1  0.97149300  0.01421800  0.03584100  1
  C  C13  1  0.88415200  0.00944600  0.00720700  1
  C  C14  1  0.87030100  0.02149900  0.90692300  1
  C  C15  1  0.78699300  0.01854200  0.87542000  1
  C  C16  1  0.80965700  0.99296900  0.07507100  1
  C  C17  1  0.72594000  0.99160600  0.04442400  1
  C  C18  1  0.71413200  0.00251400  0.94224400  1
  C  C19  1  0.65501700  0.98584600  0.12312500  1
  C  C20  1  0.46733300  0.84429400  0.31713700  1
  C  C21  1  0.38010300  0.02538700  0.08690700  1
  C  C22  1  0.51395800  0.16984400  0.30407000  1
  C  C23  1  0.49188700  0.84949500  0.68040200  1
  C  C24  1  0.62617400  0.99287500  0.89939100  1
  C  C25  1  0.52304400  0.16693800  0.66903100  1
  C  C26  1  0.34222700  0.01990500  0.86326300  1
  C  C27  1  0.53091100  0.22294600  0.39713900  1
  C  C28  1  0.51966800  0.30173300  0.40175500  1
  C  C29  1  0.51662200  0.34184900  0.49464300  1
  C  C30  1  0.51977500  0.29992800  0.58366600  1
  C  C31  1  0.52988800  0.21979900  0.57876000  1
  C  C32  1  0.53842500  0.18363700  0.48491400  1
  C  C33  1  0.55568200  0.49218300  0.43348000  1
  C  C34  1  0.54103800  0.56942600  0.43171800  1
  C  C35  1  0.47287400  0.58065800  0.49154200  1
  C  C36  1  0.41773700  0.51204500  0.55317400  1
  C  C37  1  0.43458000  0.43556900  0.55593400  1
  C  C38  1  0.50345700  0.42540100  0.49674200  1
  C  C39  1  0.46075100  0.70793800  0.40409500  1
  C  C40  1  0.45961400  0.79186600  0.40805200  1
  C  C41  1  0.45985000  0.83225000  0.50150000  1
  C  C42  1  0.46999200  0.79427900  0.58900400  1
  C  C43  1  0.47592500  0.71313700  0.58488900  1
  C  C44  1  0.46600000  0.66730100  0.49348000  1
  C  C45  1  0.33481000  0.51349000  0.61045500  1
  C  C46  1  0.34874800  0.51540700  0.72229000  1
  C  C47  1  0.33616600  0.57650600  0.78234700  1
  C  C48  1  0.10001200  0.01915200  0.27722600  1
  C  C49  1  0.02941600  0.02881400  0.34947400  1
  C  C50  1  0.98459900  0.96602700  0.41507900  1
  O  O1  1  0.58782500  0.01042900  0.10250500  1
  O  O2  1  0.46936300  0.81209300  0.22523700  1
  O  O3  1  0.66441300  0.96603200  0.21665500  1
  O  O4  1  0.48133900  0.92773900  0.33234500  1
  O  O5  1  0.37955900  0.97617100  0.16384400  1
  O  O6  1  0.45635700  0.09034900  0.06083200  1
  O  O7  1  0.57079500  0.13141600  0.27795400  1
  O  O8  1  0.42953400  0.13613300  0.27279400  1
  O  O9  1  0.43343100  0.88417900  0.71296900  1
  O  O10  1  0.57853900  0.88886400  0.70244700  1
  O  O11  1  0.62501400  0.04228400  0.82338400  1
  O  O12  1  0.55098500  0.92670000  0.92553500  1
  O  O13  1  0.32585100  0.02782800  0.76786600  1
  O  O14  1  0.52135200  0.08700300  0.65388100  1
  O  O15  1  0.41678900  0.00779000  0.88576300  1
  O  O16  1  0.51101400  0.19509000  0.76041000  1
