# Generated by REPEAT Assigner based on pymatgen
data_DB0-m3_o52_o159_f0_fsc.sym.1
_audit_creation_date              2022-05-24
_audit_creation_method            REPEAT_Assigner
_cell_length_a                    13.409359
_cell_length_b                    8.542888
_cell_length_c                    15.005118
_cell_angle_alpha                 90.000000
_cell_angle_beta                  90.993998
_cell_angle_gamma                 90.000000
_cell_volume                      1718.647465
_symmetry_space_group_name_H-M    P1
_symmetry_Int_Tables_number       1
loop_
    _symmetry_equiv_pos_site_id
    _symmetry_equiv_pos_as_xyz
    1  x,y,z
loop_
    _atom_site_type_symbol
    _atom_site_label
    _atom_site_fract_x
    _atom_site_fract_y
    _atom_site_fract_z
    _atom_type_partial_charge
    H   H1   0.038157  0.000000  0.561570  0.101813
    C   C1   0.009994  0.139575  0.674762  -0.124130
    C   C2   0.009994  0.860425  0.674762  -0.124132
    C   C3   0.996813  0.140597  0.765682  0.047585
    C   C4   0.996813  0.859403  0.765682  0.047586
    H   H2   0.990287  0.251245  0.799987  0.022813
    H   H3   0.990287  0.748755  0.799987  0.022814
    C   C5   0.995469  0.000000  0.812054  -0.399569
    C   C6   0.023012  0.000000  0.631497  -0.039771
    N   N1   0.997520  0.863861  0.954739  -0.329948
    N   N2   0.997520  0.136139  0.954739  -0.329950
    N   N3   0.001455  0.863861  0.042834  -0.331813
    N   N4   0.001455  0.136139  0.042834  -0.331815
    C   C7   0.003937  0.000000  0.087883  0.858762
    C   C8   0.995051  0.000000  0.909691  0.861995
    C   C9   0.002538  0.140626  0.231891  0.045247
    C   C10  0.002538  0.859374  0.231891  0.045248
    H   H4   0.008843  0.251264  0.197542  0.023671
    H   H5   0.008843  0.748736  0.197542  0.023672
    C   C11  0.989821  0.139667  0.322873  -0.119135
    C   C12  0.989821  0.860333  0.322873  -0.119138
    C   C13  0.977142  0.000000  0.366216  -0.044473
    H   H6   0.962319  0.000000  0.436202  0.100886
    C   C14  0.003739  0.000000  0.185526  -0.395887
    O   O1   0.089609  0.669314  0.585856  -0.779489
    O   O2   0.089609  0.330686  0.585856  -0.779491
    O   O3   0.918365  0.663548  0.596742  -0.739960
    O   O4   0.918365  0.336452  0.596742  -0.739962
    C   C15  0.006300  0.718347  0.620702  0.936941
    C   C16  0.006300  0.281653  0.620702  0.936945
    O   O5   0.909983  0.668953  0.411588  -0.761997
    O   O6   0.909983  0.331047  0.411588  -0.761999
    O   O7   0.081519  0.663107  0.400733  -0.726756
    O   O8   0.081519  0.336893  0.400733  -0.726759
    C   C17  0.993467  0.718029  0.376842  0.912808
    C   C18  0.993467  0.281971  0.376842  0.912812
    Zn  Zn1  0.888762  0.500000  0.503043  1.048840
    Zn  Zn2  0.110689  0.500000  0.494607  1.065995
    C   C19  0.294481  0.500000  0.417009  -0.280348
    N   N5   0.241375  0.500000  0.492173  0.191688
    C   C20  0.287942  0.500000  0.572211  -0.118394
    C   C21  0.390299  0.500000  0.579269  -0.188120
    C   C22  0.447478  0.500000  0.503179  0.053345
    C   C23  0.397714  0.500000  0.421402  0.251970
    C   C24  0.607449  0.500000  0.585432  -0.145335
    C   C25  0.551952  0.500000  0.506193  0.039659
    C   C26  0.603518  0.500000  0.427183  0.224585
    C   C27  0.552996  0.500000  0.346400  -0.217804
    C   C28  0.450534  0.500000  0.343498  -0.228938
    C   C29  0.710243  0.500000  0.583820  -0.198037
    N   N6   0.758112  0.500000  0.505966  0.211005
    C   C30  0.706473  0.500000  0.428342  -0.224982
    H   H7   0.244692  0.500000  0.632299  0.162130
    H   H8   0.746226  0.500000  0.366297  0.168937
    H   H9   0.593636  0.500000  0.284810  0.156948
    H   H10  0.411785  0.500000  0.279722  0.158445
    H   H11  0.421387  0.500000  0.645688  0.148181
    H   H12  0.574614  0.500000  0.650190  0.141498
    H   H13  0.256080  0.500000  0.353069  0.193016
    H   H14  0.752495  0.500000  0.645825  0.190294
