# Generated by REPEAT Assigner based on pymatgen
data_DB0-m3_o12_o27_f0_pcu.sym.18
_audit_creation_date              2022-05-24
_audit_creation_method            REPEAT_Assigner
_cell_length_a                    10.235384
_cell_length_b                    11.236322
_cell_length_c                    19.331032
_cell_angle_alpha                 90.012829
_cell_angle_beta                  80.549855
_cell_angle_gamma                 92.505537
_cell_volume                      2190.901805
_symmetry_space_group_name_H-M    P1
_symmetry_Int_Tables_number       1
loop_
    _symmetry_equiv_pos_site_id
    _symmetry_equiv_pos_as_xyz
    1  x,y,z
loop_
    _atom_site_type_symbol
    _atom_site_label
    _atom_site_fract_x
    _atom_site_fract_y
    _atom_site_fract_z
    _atom_type_partial_charge
    O   O1   0.440759  0.704500  0.517853  -0.654698
    O   O2   0.581378  0.321493  0.503880  -0.650165
    O   O3   0.664235  0.671223  0.504475  -0.503145
    O   O4   0.357512  0.354736  0.516939  -0.576850
    C   C1   0.565058  0.742858  0.511004  0.517234
    C   C2   0.457008  0.283063  0.510593  0.569905
    O   O5   0.381396  0.525891  0.621454  -0.661339
    O   O6   0.640603  0.499611  0.400201  -0.660091
    O   O7   0.604317  0.490953  0.608530  -0.616208
    O   O8   0.417433  0.535078  0.413095  -0.591144
    C   C3   0.489141  0.506089  0.647674  0.724394
    C   C4   0.532810  0.519653  0.374038  0.669307
    Zn  Zn1  0.363647  0.535310  0.518675  1.066504
    Zn  Zn2  0.658323  0.490731  0.502986  1.026849
    C   C5   0.378569  0.544553  0.769497  -0.463001
    C   C6   0.635833  0.467334  0.253226  -0.442427
    H   H1   0.297322  0.582966  0.749304  0.210871
    H   H2   0.712865  0.423407  0.274177  0.206834
    C   C7   0.378331  0.543624  0.841218  0.675412
    C   C8   0.631937  0.461369  0.181984  0.637722
    C   C9   0.485816  0.500121  0.867824  -0.572332
    C   C10  0.532685  0.517377  0.154335  -0.594411
    C   C11  0.587735  0.452314  0.821766  0.142974
    C   C12  0.439297  0.577838  0.199312  0.181818
    H   H3   0.671827  0.415593  0.840009  0.028299
    H   H4   0.361481  0.623477  0.180197  0.018982
    C   C13  0.586070  0.451937  0.750833  -0.214459
    C   C14  0.441919  0.580288  0.270179  -0.237759
    H   H5   0.667388  0.413366  0.716817  0.128387
    H   H6   0.367127  0.628030  0.303645  0.130335
    C   C15  0.483167  0.500195  0.723989  0.053843
    C   C16  0.538764  0.523722  0.297757  0.091787
    N   N1   0.601680  0.458196  0.965264  -0.370087
    N   N2   0.417055  0.560234  0.056852  -0.374057
    N   N3   0.614139  0.462496  0.032223  -0.213757
    N   N4   0.404701  0.556106  0.989856  -0.220021
    C   C17  0.521764  0.513279  0.079117  0.829251
    C   C18  0.496532  0.504388  0.943062  0.823840
    H   H7   0.627061  0.112199  0.508549  0.108553
    H   H8   0.395831  0.914835  0.532290  0.126649
    C   C19  0.595259  0.872023  0.506766  0.140904
    C   C20  0.427748  0.153519  0.512935  0.157969
    C   C21  0.497428  0.948458  0.518389  -0.102561
    C   C22  0.525588  0.078046  0.512607  -0.125081
    N   N5   0.851505  0.460195  0.494986  -0.254678
    N   N6   0.170590  0.566305  0.526849  -0.294918
    C   C23  0.939696  0.529562  0.517012  0.290541
    C   C24  0.082995  0.502418  0.500831  0.148930
    H   H9   0.138300  0.641060  0.553658  0.266799
    H   H10  0.884528  0.382642  0.471512  0.222083
    O   O9   0.273801  0.590470  0.884444  -0.547424
    C   C25  0.174119  0.500070  0.893611  0.534508
    H   H11  0.217340  0.413111  0.901032  -0.104381
    H   H12  0.123189  0.496113  0.847207  -0.081458
    C   C26  0.073397  0.526138  0.957788  -0.262528
    H   H13  0.030716  0.613599  0.951049  0.074345
    H   H14  0.993106  0.455519  0.964348  0.041312
    H   H15  0.122049  0.528305  0.004975  0.070339
    O   O10  0.727590  0.400933  0.139933  -0.520378
    C   C27  0.687389  0.280474  0.148011  0.508727
    H   H16  0.579257  0.269045  0.147915  -0.093306
    H   H17  0.711273  0.245533  0.197893  -0.087483
    C   C28  0.760541  0.210346  0.087970  -0.260103
    H   H18  0.868856  0.222368  0.087326  0.083746
    H   H19  0.730491  0.114531  0.095103  0.039907
    H   H20  0.736118  0.242230  0.037560  0.074893
    O   O11  0.298769  0.110488  0.519218  -0.409814
    C   C29  0.268825  0.111178  0.451253  0.567335
    H   H21  0.359747  0.130702  0.412452  -0.086962
    H   H22  0.196389  0.180179  0.447523  -0.110313
    C   C30  0.208153  0.991070  0.435058  -0.266210
    H   H23  0.123142  0.966705  0.476718  0.074387
    H   H24  0.173268  0.996171  0.383825  0.040736
    H   H25  0.283184  0.922323  0.432063  0.042426
    O   O12  0.724620  0.913598  0.489645  -0.357372
    C   C31  0.756298  0.902014  0.416854  0.413064
    H   H26  0.664794  0.889770  0.393396  -0.049322
    H   H27  0.818357  0.823918  0.404391  -0.062481
    C   C32  0.832906  0.013051  0.385698  -0.266156
    H   H28  0.919087  0.031449  0.412673  0.087161
    H   H29  0.868132  0.999201  0.329016  0.055404
    H   H30  0.767841  0.089926  0.392247  0.065395
    O   O13  0.122351  0.408845  0.457784  -0.209683
    C   C33  0.129350  0.452403  0.389288  0.435906
    H   H31  0.183505  0.540106  0.383620  -0.044044
    H   H32  0.028868  0.463137  0.376637  -0.069460
    C   C34  0.199029  0.365149  0.337605  -0.303173
    H   H33  0.138988  0.280218  0.340255  0.060369
    H   H34  0.209831  0.402441  0.283770  0.079926
    H   H35  0.298100  0.348153  0.350540  0.081344
    O   O14  0.901905  0.631635  0.552681  -0.334352
    C   C35  0.883628  0.601888  0.624121  0.494470
    H   H36  0.979722  0.600728  0.643197  -0.070004
    H   H37  0.834575  0.512453  0.633126  -0.077119
    C   C36  0.801095  0.694309  0.665905  -0.335423
    H   H38  0.705264  0.700948  0.646955  0.121014
    H   H39  0.782888  0.668829  0.722191  0.086581
    H   H40  0.855637  0.782124  0.659416  0.071864
