# Generated by REPEAT Assigner based on pymatgen
data_DB0-m29_o91_o430_f0_pts.sym.36
_audit_creation_date              2022-05-24
_audit_creation_method            REPEAT_Assigner
_cell_length_a                    16.280270
_cell_length_b                    19.454132
_cell_length_c                    13.023372
_cell_angle_alpha                 112.898848
_cell_angle_beta                  91.705445
_cell_angle_gamma                 70.158591
_cell_volume                      3549.119920
_symmetry_space_group_name_H-M    P1
_symmetry_Int_Tables_number       1
loop_
    _symmetry_equiv_pos_site_id
    _symmetry_equiv_pos_as_xyz
    1  x,y,z
loop_
    _atom_site_type_symbol
    _atom_site_label
    _atom_site_fract_x
    _atom_site_fract_y
    _atom_site_fract_z
    _atom_type_partial_charge
    H   H1   0.438627  0.915562  0.946595  0.139085
    C   C1   0.323407  0.934528  0.038995  0.034983
    C   C2   0.235680  0.945516  0.040091  -0.175771
    H   H2   0.198020  0.958971  0.116907  0.125722
    C   C3   0.194142  0.944778  0.946109  0.145291
    C   C4   0.239869  0.937277  0.850987  -0.283840
    C   C5   0.329370  0.926864  0.850465  0.062716
    C   C6   0.370338  0.921684  0.943309  -0.114604
    C   C7   0.042116  0.033079  0.952303  0.060890
    H   H3   0.069093  0.072451  0.937329  0.070347
    C   C8   0.952038  0.054537  0.972099  -0.307790
    C   C9   0.918639  0.004743  0.996393  0.141815
    C   C10  0.975819  0.936621  0.004903  -0.148434
    H   H4   0.950436  0.897239  0.022579  0.132665
    C   C11  0.065389  0.916453  0.986420  -0.126905
    H   H5   0.109324  0.862826  0.993168  0.110995
    C   C12  0.098863  0.963388  0.956956  0.028185
    C   C13  0.777748  0.024293  0.092573  -0.223164
    H   H6   0.810549  0.021192  0.164905  0.137732
    C   C14  0.689381  0.034069  0.091449  0.127194
    C   C15  0.649086  0.037734  0.997884  -0.134040
    H   H7   0.581532  0.041392  0.992816  0.120925
    C   C16  0.697396  0.024231  0.902731  0.022331
    C   C17  0.785229  0.013433  0.903118  -0.126074
    H   H8   0.823781  0.000112  0.827058  0.121898
    C   C18  0.824713  0.017177  0.999477  0.063265
    O   O1   0.556664  0.037509  0.169227  -0.568957
    C   C19  0.639677  0.029355  0.179304  0.521107
    O   O2   0.642515  0.851558  0.153181  -0.490460
    O   O3   0.680115  0.004425  0.253774  -0.452020
    O   O4   0.569091  0.927156  0.327478  -0.577494
    C   C20  0.632387  0.863348  0.259038  0.655416
    Fe  Fe1  0.500538  0.996206  0.253117  1.465391
    O   O5   0.447963  0.923134  0.140771  -0.626877
    O   O6   0.317739  0.021979  0.228413  -0.518608
    C   C21  0.362401  0.955495  0.143881  0.665503
    O   O7   0.422271  0.098320  0.374512  -0.626345
    O   O8   0.388256  0.012489  0.428692  -0.421544
    C   C22  0.381138  0.085678  0.446829  0.760113
    O   O9   0.579404  0.872723  0.574051  -0.630285
    O   O10  0.626775  0.952528  0.521371  -0.433807
    C   C23  0.624310  0.881675  0.501011  0.774231
    O   O11  0.576127  0.045681  0.798386  -0.637699
    O   O12  0.694653  0.931184  0.720809  -0.551430
    C   C24  0.658748  0.003831  0.797813  0.700272
    O   O13  0.355823  0.929630  0.667713  -0.427684
    O   O14  0.443200  0.049153  0.625662  -0.578010
    C   C25  0.368871  0.101801  0.686313  0.632687
    O   O15  0.455225  0.945068  0.792961  -0.555724
    C   C26  0.382442  0.931291  0.764405  0.545715
    O   O16  0.350867  0.105647  0.786360  -0.485890
    Fe  Fe2  0.511904  0.978554  0.697764  1.475761
    C   C27  0.944841  0.608450  0.382047  0.468855
    N   N1   0.857616  0.622734  0.390020  -0.176147
    C   C28  0.824760  0.581663  0.429848  0.439718
    C   C29  0.880187  0.524153  0.462951  -0.087625
    C   C30  0.969238  0.509091  0.455287  0.098025
    C   C31  0.001890  0.551375  0.414535  -0.119470
    C   C32  0.847315  0.481507  0.503495  -0.047969
    C   C33  0.903367  0.424449  0.536137  -0.059104
    C   C34  0.992773  0.409676  0.528839  -0.107969
    C   C35  0.025349  0.452125  0.488355  0.082233
    C   C36  0.114341  0.437284  0.481044  -0.058023
    C   C37  0.147230  0.479918  0.440504  -0.081736
    C   C38  0.091262  0.536667  0.407319  -0.042368
    C   C39  0.049917  0.352382  0.560953  0.452144
    N   N2   0.137130  0.338454  0.553626  -0.157773
    C   C40  0.169764  0.380066  0.514596  0.418731
    O   O17  0.976072  0.651382  0.344964  -0.478421
    O   O18  0.737916  0.595852  0.435491  -0.473820
    H   H9   0.777752  0.491958  0.510371  0.134109
    H   H10  0.875878  0.392041  0.567500  0.131260
    O   O19  0.018737  0.308929  0.596962  -0.457576
    O   O20  0.256407  0.366845  0.510341  -0.466320
    H   H11  0.216766  0.469601  0.433836  0.141773
    H   H12  0.118765  0.568998  0.375813  0.130203
    C   C41  0.261354  0.213983  0.508343  -0.129576
    H   H13  0.267261  0.208832  0.422963  0.181050
    C   C42  0.316828  0.154015  0.536748  -0.065836
    C   C43  0.308155  0.159807  0.646583  -0.009201
    C   C44  0.241758  0.224805  0.723542  -0.126150
    H   H14  0.233343  0.231563  0.809340  0.141091
    C   C45  0.185844  0.283299  0.693385  -0.094869
    H   H15  0.135174  0.333757  0.755369  0.131710
    C   C46  0.195528  0.278359  0.585688  0.168626
    C   C47  0.737205  0.749691  0.436927  -0.150392
    H   H16  0.732884  0.755916  0.522981  0.191527
    C   C48  0.683898  0.810839  0.409184  -0.065720
    C   C49  0.690648  0.803698  0.298279  -0.028818
    C   C50  0.752829  0.735650  0.219548  -0.118990
    H   H17  0.760028  0.727649  0.133018  0.135031
    C   C51  0.807193  0.676294  0.249280  -0.103469
    H   H18  0.855376  0.624039  0.186354  0.130550
    C   C52  0.799561  0.682960  0.358082  0.190681
    C   C53  0.191699  0.942589  0.755467  0.810806
    O   O21  0.183704  0.997129  0.727068  -0.418220
    O   O22  0.149954  0.891063  0.705485  -0.420051
    C   C54  0.101300  0.896888  0.619426  0.122712
    H   H19  0.073158  0.848897  0.590222  0.061718
    H   H20  0.143969  0.890009  0.548572  0.042600
    H   H21  0.046844  0.955662  0.649246  0.021376
    C   C55  0.894873  0.131524  0.971143  0.735174
    O   O23  0.922959  0.162671  0.922245  -0.513155
    O   O24  0.814038  0.170415  0.029611  -0.301831
    C   C56  0.761970  0.243394  0.032307  -0.029273
    H   H22  0.698653  0.264427  0.084436  0.083079
    H   H23  0.748755  0.238025  0.945969  0.065920
    H   H24  0.795180  0.287240  0.069680  0.060389
