# Generated by REPEAT Assigner based on pymatgen
data_DB0-m2_o7_o7_f0_pcu.sym.45_sqe
_audit_creation_date              2022-05-24
_audit_creation_method            REPEAT_Assigner
_cell_length_a                    25.121004
_cell_length_b                    25.016889
_cell_length_c                    16.197864
_cell_angle_alpha                 90.000000
_cell_angle_beta                  90.000000
_cell_angle_gamma                 90.000000
_cell_volume                      10179.537818
_symmetry_space_group_name_H-M    P1
_symmetry_Int_Tables_number       1
loop_
    _symmetry_equiv_pos_site_id
    _symmetry_equiv_pos_as_xyz
    1  x,y,z
loop_
    _atom_site_type_symbol
    _atom_site_label
    _atom_site_fract_x
    _atom_site_fract_y
    _atom_site_fract_z
    _atom_type_partial_charge
    O   O1    0.062194  0.453773  0.569035  -0.446169
    O   O2    0.954211  0.562339  0.431196  -0.461874
    O   O3    0.937680  0.546001  0.568903  -0.441300
    O   O4    0.046089  0.437367  0.431081  -0.458078
    O   O5    0.937926  0.453781  0.430887  -0.444546
    O   O6    0.045843  0.562385  0.568835  -0.461316
    O   O7    0.062465  0.545980  0.431128  -0.442693
    O   O8    0.953941  0.437431  0.568865  -0.459404
    O   O9    0.562073  0.953850  0.569376  -0.444986
    O   O10   0.454136  0.062575  0.430775  -0.461455
    O   O11   0.437648  0.046215  0.568634  -0.444268
    O   O12   0.546137  0.937689  0.431474  -0.459409
    O   O13   0.437846  0.953956  0.430813  -0.445396
    O   O14   0.545919  0.062461  0.569124  -0.460535
    O   O15   0.562300  0.046283  0.431191  -0.443547
    O   O16   0.453877  0.937605  0.568649  -0.461156
    C   C1    0.072460  0.428035  0.499822  0.495273
    C   C2    0.927641  0.571852  0.499764  0.495201
    C   C3    0.927555  0.428001  0.500143  0.494606
    C   C4    0.072361  0.571834  0.500191  0.497202
    C   C5    0.572370  0.928047  0.500250  0.497733
    C   C6    0.427581  0.071975  0.499394  0.496687
    C   C7    0.427542  0.928177  0.499963  0.496401
    C   C8    0.572362  0.072078  0.500408  0.496753
    C   C9    0.999960  0.500791  0.874341  0.164281
    C   C10   0.000071  0.500048  0.125679  0.170138
    C   C11   0.500460  0.000076  0.874345  0.165819
    C   C12   0.500393  0.999785  0.125640  0.169041
    C   C13   0.999924  0.500593  0.962837  -0.162430
    C   C14   0.999890  0.499985  0.037169  -0.167727
    C   C15   0.500732  0.000199  0.962830  -0.163684
    C   C16   0.500706  0.000009  0.037158  -0.166285
    Cu  Cu1   0.000021  0.499690  0.581323  0.845927
    Cu  Cu2   0.000095  0.499982  0.418668  0.846350
    Cu  Cu3   0.499835  0.000040  0.581350  0.846924
    Cu  Cu4   0.500109  0.000124  0.418659  0.845700
    C   C17   0.182432  0.662783  0.572746  -0.211165
    C   C18   0.834727  0.318301  0.431654  -0.230981
    C   C19   0.817264  0.336849  0.572737  -0.215127
    C   C20   0.165369  0.681313  0.431513  -0.224281
    C   C21   0.817159  0.662750  0.427423  -0.215234
    C   C22   0.165214  0.318381  0.568334  -0.227891
    C   C23   0.182396  0.336836  0.427106  -0.210741
    C   C24   0.834584  0.681370  0.568483  -0.225636
    C   C25   0.682577  0.163129  0.572909  -0.213792
    C   C26   0.334609  0.818382  0.431494  -0.225114
    C   C27   0.317429  0.836951  0.572649  -0.209986
    C   C28   0.665375  0.181495  0.431688  -0.226364
    C   C29   0.317345  0.163220  0.427232  -0.212448
    C   C30   0.665551  0.818417  0.568487  -0.226652
    C   C31   0.682481  0.837022  0.427237  -0.211156
    C   C32   0.334807  0.181513  0.568358  -0.224199
    H   H1    0.205688  0.669857  0.627767  0.107614
    H   H2    0.826821  0.294913  0.376925  0.118939
    H   H3    0.794010  0.329095  0.627622  0.109227
    H   H4    0.173665  0.704199  0.376364  0.116669
    H   H5    0.793531  0.669895  0.372861  0.109000
    H   H6    0.173029  0.295087  0.623149  0.118299
    H   H7    0.205353  0.329178  0.371845  0.108222
    H   H8    0.826195  0.704324  0.623547  0.116934
    H   H9    0.705880  0.170660  0.627803  0.108751
    H   H10   0.326505  0.795311  0.376458  0.117615
    H   H11   0.294198  0.829672  0.627643  0.108138
    H   H12   0.673564  0.204632  0.376802  0.117100
    H   H13   0.293906  0.170788  0.372432  0.108930
    H   H14   0.673917  0.795247  0.623314  0.118153
    H   H15   0.705559  0.829761  0.372119  0.107727
    H   H16   0.326900  0.204530  0.623484  0.116194
    C   C33   0.143911  0.623363  0.572655  0.082514
    C   C34   0.873588  0.357197  0.430156  0.019306
    C   C35   0.855715  0.376426  0.572730  0.083384
    C   C36   0.126243  0.642691  0.430078  0.018304
    C   C37   0.855803  0.623404  0.427251  0.085756
    C   C38   0.126309  0.357182  0.569933  0.016647
    C   C39   0.144041  0.376468  0.427312  0.078111
    C   C40   0.873656  0.642649  0.569780  0.018036
    C   C41   0.644019  0.123685  0.572885  0.086611
    C   C42   0.373541  0.857210  0.430024  0.014067
    C   C43   0.355841  0.876517  0.572607  0.076642
    C   C44   0.626321  0.142794  0.430234  0.019816
    C   C45   0.355819  0.123685  0.427113  0.080407
    C   C46   0.626449  0.857106  0.570047  0.018104
    C   C47   0.643993  0.876509  0.427424  0.082119
    C   C48   0.373697  0.142683  0.569708  0.017621
    C   C49   0.114724  0.613018  0.500873  -0.117087
    C   C50   0.884978  0.386858  0.501034  -0.116101
    C   C51   0.885207  0.613101  0.498857  -0.117076
    C   C52   0.114982  0.386971  0.499167  -0.112647
    C   C53   0.614766  0.113294  0.501182  -0.119452
    C   C54   0.384997  0.886998  0.500789  -0.111737
    C   C55   0.385096  0.113116  0.498759  -0.115779
    C   C56   0.614842  0.886813  0.499283  -0.117021
    C   C57   0.193002  0.691807  0.502691  0.257142
    C   C58   0.806878  0.307908  0.502659  0.264504
    C   C59   0.806876  0.691874  0.497409  0.260223
    C   C60   0.193014  0.307989  0.497265  0.261072
    C   C61   0.693078  0.191997  0.502752  0.259216
    C   C62   0.306932  0.807892  0.502653  0.259968
    C   C63   0.307023  0.192124  0.497398  0.258865
    C   C64   0.693161  0.808019  0.497242  0.259634
    C   C65   0.233191  0.732611  0.503525  -0.139565
    C   C66   0.766828  0.267065  0.503257  -0.144387
    C   C67   0.766816  0.732769  0.496599  -0.140763
    C   C68   0.233186  0.267232  0.496718  -0.143328
    C   C69   0.733217  0.232743  0.503299  -0.139552
    C   C70   0.266850  0.766970  0.503503  -0.144044
    C   C71   0.266890  0.232954  0.496844  -0.140715
    C   C72   0.733254  0.767178  0.496446  -0.142528
    C   C73   0.010931  0.546575  0.830849  -0.123854
    C   C74   0.010284  0.453882  0.168724  -0.124480
    C   C75   0.989766  0.454328  0.832042  -0.123016
    C   C76   0.989027  0.546135  0.168461  -0.129913
    C   C77   0.511172  0.046044  0.831176  -0.129001
    C   C78   0.510692  0.953575  0.168694  -0.126717
    C   C79   0.489839  0.953819  0.831737  -0.121198
    C   C80   0.489384  0.045811  0.168382  -0.127841
    H   H17   0.019425  0.583326  0.863385  0.119228
    H   H18   0.017365  0.417062  0.135847  0.118032
    H   H19   0.982219  0.417621  0.865163  0.117308
    H   H20   0.979831  0.582712  0.135743  0.120221
    H   H21   0.519848  0.082739  0.863510  0.120696
    H   H22   0.519159  0.916901  0.135908  0.118953
    H   H23   0.482201  0.917133  0.865104  0.116591
    H   H24   0.481571  0.082535  0.135495  0.119197
    C   C81   0.010740  0.545472  0.745797  0.168608
    C   C82   0.009883  0.454420  0.253719  0.170983
    C   C83   0.990473  0.454338  0.746977  0.169075
    C   C84   0.989499  0.545536  0.253610  0.172700
    C   C85   0.510396  0.045414  0.746180  0.173955
    C   C86   0.509926  0.954255  0.253827  0.173331
    C   C87   0.490025  0.954289  0.746588  0.169206
    C   C88   0.489480  0.045368  0.253406  0.171969
    H   H25   0.018572  0.582000  0.712452  0.099752
    H   H26   0.017318  0.417795  0.286828  0.098460
    H   H27   0.983123  0.417499  0.714708  0.100286
    H   H28   0.981563  0.582156  0.286341  0.100383
    H   H29   0.518203  0.082027  0.713356  0.099093
    H   H30   0.517446  0.917714  0.287151  0.097748
    H   H31   0.482588  0.917588  0.713678  0.099769
    H   H32   0.481642  0.082114  0.285802  0.100167
    N   N1    0.999634  0.499983  0.704832  -0.294742
    N   N2    0.000346  0.500139  0.295171  -0.297647
    N   N3    0.499423  0.000006  0.704855  -0.297907
    N   N4    0.500350  0.000062  0.295152  -0.297784
    C   C89   0.138913  0.590629  0.647561  0.312363
    O   O17   0.144515  0.542294  0.642731  -0.412298
    C   C90   0.131578  0.615586  0.729049  0.168757
    C   C91   0.145743  0.587791  0.799449  -0.262309
    C   C92   0.138336  0.610247  0.876271  -0.091856
    C   C93   0.116188  0.660407  0.883418  -0.082701
    C   C94   0.101356  0.688098  0.813582  -0.099937
    C   C95   0.108976  0.665874  0.736595  -0.135839
    H   H33   0.163232  0.548483  0.795171  0.180249
    H   H34   0.149754  0.588262  0.930892  0.105251
    H   H35   0.110139  0.677888  0.943728  0.080554
    H   H36   0.083467  0.727223  0.818991  0.110402
    H   H37   0.096112  0.688003  0.682915  0.101559
    C   C96   0.903727  0.363231  0.353346  0.539861
    O   O18   0.949588  0.347377  0.350483  -0.502547
    C   C97   0.878362  0.385257  0.278832  -0.027305
    C   C98   0.902154  0.378246  0.202634  -0.096582
    C   C99   0.879684  0.400178  0.132818  -0.078086
    C   C100  0.833081  0.428944  0.138446  -0.146577
    C   C101  0.808813  0.435551  0.214042  -0.063159
    C   C102  0.831340  0.413980  0.284101  -0.119666
    H   H38   0.938584  0.355627  0.196646  0.081173
    H   H39   0.898878  0.394856  0.073679  0.104325
    H   H40   0.815606  0.446326  0.083681  0.112182
    H   H41   0.772313  0.458240  0.218770  0.089517
    H   H42   0.811935  0.420803  0.342678  0.113520
    C   C103  0.860610  0.409249  0.647719  0.312811
    O   O19   0.855318  0.457609  0.642719  -0.411553
    C   C104  0.868052  0.384436  0.729329  0.160231
    C   C105  0.854088  0.412234  0.799846  -0.256766
    C   C106  0.861382  0.389567  0.876606  -0.096988
    C   C107  0.883279  0.339305  0.883495  -0.076828
    C   C108  0.898074  0.311760  0.813554  -0.103419
    C   C109  0.890602  0.334186  0.736662  -0.131310
    H   H43   0.836876  0.451656  0.795680  0.181101
    H   H44   0.850035  0.411305  0.931508  0.105454
    H   H45   0.889156  0.321661  0.943723  0.079495
    H   H46   0.915776  0.272525  0.819119  0.109645
    H   H47   0.903539  0.312328  0.682752  0.101744
    C   C110  0.096178  0.636901  0.353168  0.533852
    O   O20   0.050332  0.652789  0.350294  -0.501492
    C   C111  0.121587  0.614823  0.278728  -0.018126
    C   C112  0.097825  0.621605  0.202461  -0.098055
    C   C113  0.120443  0.599534  0.132748  -0.077805
    C   C114  0.167108  0.570931  0.138665  -0.145855
    C   C115  0.191191  0.564352  0.214330  -0.062839
    C   C116  0.168510  0.585994  0.284282  -0.123588
    H   H48   0.061268  0.644059  0.196652  0.079295
    H   H49   0.101490  0.604533  0.073351  0.103912
    H   H50   0.184761  0.553521  0.084070  0.111560
    H   H51   0.227649  0.541598  0.218910  0.089293
    H   H52   0.187556  0.579082  0.343096  0.113798
    C   C117  0.860873  0.590684  0.352389  0.314032
    O   O21   0.855592  0.542327  0.357343  -0.413163
    C   C118  0.868274  0.615587  0.270913  0.164695
    C   C119  0.854254  0.587729  0.200520  -0.260818
    C   C120  0.861592  0.610262  0.123696  -0.091504
    C   C121  0.883669  0.660455  0.116629  -0.081949
    C   C122  0.898458  0.688132  0.186466  -0.100092
    C   C123  0.890785  0.665892  0.263467  -0.135359
    H   H53   0.836861  0.548396  0.204987  0.180519
    H   H54   0.850208  0.588413  0.068916  0.104385
    H   H55   0.889652  0.678000  0.056362  0.080318
    H   H56   0.916266  0.727294  0.180792  0.110363
    H   H57   0.903464  0.687942  0.317309  0.101623
    C   C124  0.096271  0.363071  0.646783  0.541322
    O   O22   0.050425  0.347235  0.649659  -0.503281
    C   C125  0.121687  0.385128  0.721228  -0.028974
    C   C126  0.097896  0.378358  0.797524  -0.095154
    C   C127  0.120438  0.400451  0.867141  -0.079621
    C   C128  0.167128  0.429064  0.861277  -0.144064
    C   C129  0.191269  0.435596  0.785576  -0.064512
    C   C130  0.168676  0.413905  0.715712  -0.119265
    H   H58   0.061397  0.355864  0.803687  0.080981
    H   H59   0.101238  0.395355  0.926313  0.103951
    H   H60   0.184766  0.446408  0.915944  0.111260
    H   H61   0.227715  0.458315  0.780554  0.090172
    H   H62   0.187999  0.420715  0.657079  0.113925
    C   C131  0.139219  0.409281  0.352256  0.311287
    O   O23   0.144809  0.457625  0.357098  -0.410482
    C   C132  0.131851  0.384392  0.270644  0.164788
    C   C133  0.145985  0.412104  0.200107  -0.259565
    C   C134  0.138597  0.389507  0.123361  -0.095170
    C   C135  0.116598  0.339291  0.116415  -0.079671
    C   C136  0.101775  0.311737  0.186366  -0.102927
    C   C137  0.109207  0.334157  0.263236  -0.131889
    H   H63   0.163355  0.451476  0.204068  0.180741
    H   H64   0.149998  0.411354  0.068604  0.106035
    H   H65   0.110658  0.321705  0.056148  0.080369
    H   H66   0.084011  0.272528  0.181080  0.109878
    H   H67   0.096114  0.312219  0.316998  0.101610
    C   C138  0.903807  0.636701  0.646660  0.532974
    O   O24   0.949679  0.652573  0.649541  -0.500643
    C   C139  0.878410  0.614706  0.721177  -0.016261
    C   C140  0.902183  0.621718  0.797342  -0.099882
    C   C141  0.879670  0.599760  0.867241  -0.075221
    C   C142  0.833099  0.570996  0.861569  -0.148769
    C   C143  0.808862  0.564382  0.786021  -0.062007
    C   C144  0.831455  0.585932  0.715873  -0.123736
    H   H68   0.938674  0.644285  0.802970  0.079457
    H   H69   0.898658  0.604936  0.926586  0.103739
    H   H70   0.815665  0.553480  0.916251  0.112713
    H   H71   0.772370  0.541624  0.781745  0.088750
    H   H72   0.812341  0.578994  0.657113  0.113400
    C   C145  0.639156  0.090832  0.647702  0.309954
    O   O25   0.644576  0.042489  0.642650  -0.411722
    C   C146  0.631777  0.115635  0.729287  0.165512
    C   C147  0.645894  0.087817  0.799695  -0.260244
    C   C148  0.638440  0.110332  0.876497  -0.092395
    C   C149  0.616323  0.160508  0.883535  -0.082267
    C   C150  0.601618  0.188188  0.813669  -0.100886
    C   C151  0.609235  0.165904  0.736739  -0.133171
    H   H73   0.663330  0.048501  0.795324  0.180474
    H   H74   0.649719  0.088447  0.931293  0.104905
    H   H75   0.610179  0.177996  0.943820  0.080302
    H   H76   0.583768  0.227350  0.819203  0.110221
    H   H77   0.596421  0.187937  0.682944  0.100957
    C   C152  0.403685  0.863083  0.353296  0.538196
    O   O26   0.449557  0.847255  0.350585  -0.501992
    C   C153  0.378355  0.885153  0.278848  -0.022866
    C   C154  0.402196  0.878172  0.202728  -0.097498
    C   C155  0.379787  0.900189  0.132857  -0.079112
    C   C156  0.333193  0.928963  0.138461  -0.145586
    C   C157  0.308902  0.935595  0.214012  -0.062992
    C   C158  0.331403  0.913985  0.284124  -0.121534
    H   H78   0.438629  0.855513  0.197080  0.080347
    H   H79   0.398869  0.894885  0.073633  0.103986
    H   H80   0.315707  0.946322  0.083714  0.112024
    H   H81   0.272375  0.958252  0.218474  0.089521
    H   H82   0.312131  0.920845  0.342780  0.113867
    C   C159  0.360754  0.909243  0.647691  0.315721
    O   O27   0.354948  0.957556  0.642901  -0.411892
    C   C160  0.368227  0.884345  0.729261  0.163720
    C   C161  0.354232  0.912189  0.799722  -0.259812
    C   C162  0.361635  0.889729  0.876565  -0.094095
    C   C163  0.383685  0.839546  0.883695  -0.078366
    C   C164  0.398540  0.811891  0.813837  -0.102932
    C   C165  0.390902  0.834110  0.736815  -0.134065
    H   H83   0.336878  0.951564  0.795584  0.180813
    H   H84   0.350207  0.911658  0.931236  0.105050
    H   H85   0.389603  0.822037  0.944006  0.079936
    H   H86   0.416374  0.772741  0.819379  0.110283
    H   H87   0.403827  0.812068  0.683069  0.102065
    C   C166  0.596279  0.136900  0.353250  0.536987
    O   O28   0.550493  0.152953  0.350222  -0.502106
    C   C167  0.621695  0.114895  0.278699  -0.022059
    C   C168  0.597882  0.121682  0.202423  -0.098478
    C   C169  0.620416  0.099590  0.132733  -0.075266
    C   C170  0.667047  0.070926  0.138558  -0.148119
    C   C171  0.691252  0.064458  0.214171  -0.062277
    C   C172  0.668691  0.086163  0.284119  -0.122106
    H   H88   0.561321  0.144089  0.196374  0.080276
    H   H89   0.601240  0.104527  0.073491  0.104068
    H   H90   0.684511  0.053328  0.083932  0.112118
    H   H91   0.727652  0.041606  0.218888  0.089171
    H   H92   0.687943  0.079300  0.342803  0.113482
    C   C173  0.360673  0.090884  0.352232  0.315493
    O   O29   0.354942  0.042570  0.357194  -0.413057
    C   C174  0.368299  0.115669  0.270689  0.163494
    C   C175  0.354184  0.087838  0.200287  -0.260124
    C   C176  0.361513  0.110312  0.123478  -0.092628
    C   C177  0.383723  0.160452  0.116319  -0.080490
    C   C178  0.398524  0.188149  0.186194  -0.100877
    C   C179  0.390929  0.165916  0.263162  -0.134273
    H   H93   0.336687  0.048545  0.204511  0.180341
    H   H94   0.349770  0.088434  0.068892  0.104711
    H   H95   0.389715  0.177912  0.055980  0.080004
    H   H96   0.416184  0.227404  0.180889  0.109993
    H   H97   0.403758  0.188058  0.316838  0.101920
    C   C180  0.596358  0.862964  0.646920  0.535596
    O   O30   0.550540  0.846980  0.649802  -0.501391
    C   C181  0.621655  0.885176  0.721356  -0.021222
    C   C182  0.597938  0.878088  0.797557  -0.099997
    C   C183  0.620411  0.900099  0.867385  -0.078029
    C   C184  0.666913  0.929008  0.861670  -0.146104
    C   C185  0.691093  0.935706  0.786067  -0.061935
    C   C186  0.668532  0.914107  0.715980  -0.122494
    H   H98   0.561600  0.855301  0.803329  0.081855
    H   H99   0.601478  0.894659  0.926712  0.104449
    H   H100  0.684428  0.946388  0.916402  0.111818
    H   H101  0.727612  0.958407  0.781637  0.088941
    H   H102  0.687739  0.921007  0.657286  0.113904
    C   C187  0.639114  0.909296  0.352417  0.312332
    O   O31   0.644673  0.957628  0.357336  -0.411271
    C   C188  0.631881  0.884400  0.270792  0.164314
    C   C189  0.645900  0.912226  0.200326  -0.260146
    C   C190  0.638348  0.889729  0.123486  -0.093418
    C   C191  0.616359  0.839524  0.116485  -0.079689
    C   C192  0.601583  0.811896  0.186331  -0.102637
    C   C193  0.609256  0.834161  0.263314  -0.132233
    H   H103  0.663224  0.951608  0.204624  0.180885
    H   H104  0.649328  0.911636  0.068594  0.105066
    H   H105  0.610279  0.821992  0.056230  0.079955
    H   H106  0.583544  0.772850  0.180542  0.110215
    H   H107  0.596331  0.812240  0.317186  0.101049
    C   C194  0.403794  0.136783  0.646556  0.536717
    O   O32   0.449643  0.152660  0.649411  -0.502212
    C   C195  0.378348  0.114928  0.721129  -0.020484
    C   C196  0.402295  0.121598  0.797315  -0.098160
    C   C197  0.379846  0.099478  0.867039  -0.073965
    C   C198  0.333110  0.070967  0.861343  -0.149735
    C   C199  0.308777  0.064583  0.785794  -0.062042
    C   C200  0.331269  0.086304  0.715822  -0.123196
    H   H108  0.438936  0.143901  0.803252  0.079273
    H   H109  0.399191  0.104265  0.926161  0.102891
    H   H110  0.315651  0.053420  0.915991  0.113053
    H   H111  0.272356  0.041794  0.781045  0.089426
    H   H112  0.311920  0.079506  0.657196  0.113848
