# generated using pymatgen
data_V2H21C32N9O10
_symmetry_space_group_name_H-M   'P 1'
_cell_length_a   24.62970000
_cell_length_b   6.81800000
_cell_length_c   22.31289600
_cell_angle_alpha   90.00000000
_cell_angle_beta   111.02680100
_cell_angle_gamma   90.00000000
_symmetry_Int_Tables_number   1
_chemical_formula_structural   V2H21C32N9O10
_chemical_formula_sum   'V4 H42 C64 N18 O20'
_cell_volume   3497.40367470
_cell_formula_units_Z   2
loop_
 _symmetry_equiv_pos_site_id
 _symmetry_equiv_pos_as_xyz
  1  'x, y, z'
loop_
 _atom_site_type_symbol
 _atom_site_label
 _atom_site_symmetry_multiplicity
 _atom_site_fract_x
 _atom_site_fract_y
 _atom_site_fract_z
 _atom_site_occupancy
  V  V1  1  0.51038800  0.16867700  0.50578100  1
  V  V2  1  0.48961200  0.66867800  0.49421900  1
  V  V3  1  0.98938000  0.65930700  0.99414500  1
  V  V4  1  0.01062100  0.15930600  0.00585600  1
  H  H1  1  0.15295500  0.53617100  0.29783900  1
  H  H2  1  0.84704600  0.03617200  0.70216200  1
  H  H3  1  0.17930300  0.03740200  0.15276600  1
  H  H4  1  0.82069700  0.53740200  0.84723500  1
  H  H5  1  0.42658500  0.21180900  0.30775500  1
  H  H6  1  0.57341500  0.71180900  0.69224500  1
  H  H7  1  0.25509700  0.15400800  0.17509200  1
  H  H8  1  0.74490400  0.65400900  0.82490900  1
  H  H9  1  0.34455500  0.72444500  0.39758600  1
  H  H10  1  0.65544500  0.22444500  0.60241400  1
  H  H11  1  0.09303300  0.57146100  0.87121700  1
  H  H12  1  0.90696700  0.07146100  0.12878300  1
  H  H13  1  0.18600900  0.19210000  0.84928300  1
  H  H14  1  0.81399100  0.69210000  0.15071700  1
  H  H15  1  0.31860800  0.63012100  0.65605600  1
  H  H16  1  0.68139200  0.13012100  0.34394500  1
  H  H17  1  0.38230200  0.64255500  0.59331000  1
  H  H18  1  0.61769800  0.14255500  0.40669000  1
  H  H19  1  0.40545300  0.25674800  0.62737500  1
  H  H20  1  0.59454700  0.75674800  0.37262600  1
  H  H21  1  0.34143800  0.24422900  0.69052900  1
  H  H22  1  0.65856200  0.74423000  0.30947100  1
  H  H23  1  0.04687000  0.61822200  0.23585400  1
  H  H24  1  0.02900800  0.67671800  0.15801600  1
  H  H25  1  0.95313100  0.11822200  0.76414600  1
  H  H26  1  0.97099200  0.17671800  0.84198500  1
  H  H27  1  0.14319900  0.56690000  0.75107800  1
  H  H28  1  0.13424200  0.43019000  0.80998300  1
  H  H29  1  0.85680100  0.06690000  0.24892300  1
  H  H30  1  0.86575800  0.93019100  0.19001800  1
  H  H31  1  0.13620100  0.19842100  0.96893900  1
  H  H32  1  0.14493300  0.33363000  0.90961800  1
  H  H33  1  0.86380000  0.69842100  0.03106100  1
  H  H34  1  0.85506700  0.83363000  0.09038300  1
  H  H35  1  0.23553600  0.40750200  0.35179700  1
  H  H36  1  0.28582100  0.51543000  0.41599400  1
  H  H37  1  0.76446400  0.90750100  0.64820300  1
  H  H38  1  0.71417900  0.01543000  0.58400700  1
  H  H39  1  0.36145000  0.47050600  0.22495800  1
  H  H40  1  0.31312300  0.36377600  0.15904200  1
  H  H41  1  0.63855000  0.97050800  0.77504200  1
  H  H42  1  0.68687700  0.86377600  0.84095800  1
  C  C1  1  0.56269500  0.44762800  0.43348800  1
  C  C2  1  0.43730500  0.94762800  0.56651200  1
  C  C3  1  0.57783400  0.45602700  0.60699300  1
  C  C4  1  0.42216600  0.95602700  0.39300700  1
  C  C5  1  0.15927800  0.64658000  0.26618800  1
  C  C6  1  0.84072200  0.14658000  0.73381200  1
  C  C7  1  0.12181100  0.83792200  0.17066600  1
  C  C8  1  0.87818800  0.33792200  0.82933400  1
  C  C9  1  0.38491400  0.13860200  0.29313700  1
  C  C10  1  0.61508600  0.63860300  0.70686400  1
  C  C11  1  0.34151200  0.19221300  0.23696900  1
  C  C12  1  0.65848800  0.69221200  0.76303200  1
  C  C13  1  0.28771400  0.10457600  0.21900800  1
  C  C14  1  0.71228500  0.60457600  0.78099200  1
  C  C15  1  0.27669400  0.96150800  0.25737600  1
  C  C16  1  0.72330600  0.46150800  0.74262400  1
  C  C17  1  0.32143200  0.90411300  0.31337500  1
  C  C18  1  0.67856900  0.40411300  0.68662500  1
  C  C19  1  0.22153600  0.87751500  0.24137100  1
  C  C20  1  0.77846500  0.37751500  0.75862900  1
  C  C21  1  0.21266600  0.73580200  0.28127000  1
  C  C22  1  0.78733500  0.23580200  0.71873000  1
  C  C23  1  0.25694600  0.68159800  0.33682800  1
  C  C24  1  0.74305400  0.18159800  0.66317200  1
  C  C25  1  0.31093400  0.76632600  0.35314300  1
  C  C26  1  0.68906700  0.26632700  0.64685800  1
  C  C27  1  0.17503300  0.93068200  0.18624100  1
  C  C28  1  0.82496700  0.43068200  0.81375900  1
  C  C29  1  0.11413600  0.69544000  0.21079200  1
  C  C30  1  0.88586400  0.19544000  0.78920800  1
  C  C31  1  0.37571300  0.99245000  0.33098700  1
  C  C32  1  0.62428700  0.49245000  0.66901300  1
  C  C33  1  0.11342700  0.70837700  0.86685000  1
  C  C34  1  0.88657300  0.20837600  0.13315100  1
  C  C35  1  0.14970200  0.71510400  0.83080000  1
  C  C36  1  0.85029800  0.21510300  0.16920000  1
  C  C37  1  0.17641600  0.88905000  0.82385600  1
  C  C38  1  0.82358400  0.38904900  0.17614400  1
  C  C39  1  0.16587200  0.05480900  0.85381400  1
  C  C40  1  0.83412800  0.55481000  0.14618600  1
  C  C41  1  0.12979800  0.04823900  0.88960800  1
  C  C42  1  0.87020200  0.54823900  0.11039300  1
  C  C43  1  0.10300000  0.87536800  0.89673000  1
  C  C44  1  0.89700000  0.37536800  0.10327000  1
  C  C45  1  0.28598400  0.92436700  0.71630200  1
  C  C46  1  0.71401600  0.42436800  0.28369800  1
  C  C47  1  0.21534200  0.90060900  0.78545400  1
  C  C48  1  0.78465800  0.40060900  0.21454700  1
  C  C49  1  0.33735800  0.76870700  0.65006200  1
  C  C50  1  0.66264300  0.26870700  0.34993800  1
  C  C51  1  0.37355600  0.77595700  0.61442500  1
  C  C52  1  0.62644400  0.27595700  0.38557500  1
  C  C53  1  0.39872100  0.95014400  0.60539900  1
  C  C54  1  0.60127800  0.45014400  0.39460200  1
  C  C55  1  0.38658000  0.11839500  0.63337800  1
  C  C56  1  0.61342000  0.61839500  0.36662300  1
  C  C57  1  0.35018600  0.11109900  0.66927300  1
  C  C58  1  0.64981400  0.61109800  0.33072700  1
  C  C59  1  0.32505600  0.93582000  0.67807400  1
  C  C60  1  0.67494400  0.43582100  0.32192600  1
  C  C61  1  0.92429500  0.37194300  0.89171700  1
  C  C62  1  0.07570500  0.87194300  0.10828400  1
  C  C63  1  0.93601500  0.37849300  0.06486200  1
  C  C64  1  0.06398600  0.87849200  0.93513700  1
  N  N1  1  0.23959500  0.07327500  0.77881500  1
  N  N2  1  0.76040500  0.57327500  0.22118500  1
  N  N3  1  0.27422100  0.08510800  0.74487000  1
  N  N4  1  0.72577900  0.58510700  0.25513000  1
  N  N5  1  0.26175200  0.75168600  0.72296200  1
  N  N6  1  0.73824800  0.25168600  0.27703800  1
  N  N7  1  0.22706600  0.73991100  0.75683600  1
  N  N8  1  0.77293500  0.23991000  0.24316400  1
  N  N9  1  0.05928000  0.60121000  0.19606100  1
  N  N10  1  0.94072000  0.10120800  0.80393900  1
  N  N11  1  0.15915500  0.54149500  0.80051600  1
  N  N12  1  0.84084500  0.04149600  0.19948300  1
  N  N13  1  0.12016100  0.22252900  0.91943400  1
  N  N14  1  0.87983900  0.72252700  0.08056500  1
  N  N15  1  0.24666100  0.53803000  0.37781500  1
  N  N16  1  0.75333900  0.03803100  0.62218500  1
  N  N17  1  0.35185700  0.34170900  0.19786100  1
  N  N18  1  0.64814300  0.84170700  0.80213900  1
  O  O1  1  0.55136300  0.61887900  0.57804400  1
  O  O2  1  0.44863700  0.11887900  0.42195700  1
  O  O3  1  0.55891100  0.27225300  0.45871800  1
  O  O4  1  0.44108900  0.77225300  0.54128300  1
  O  O5  1  0.57029500  0.27232300  0.58461700  1
  O  O6  1  0.42970500  0.77232300  0.41538300  1
  O  O7  1  0.46012300  0.11857700  0.55619300  1
  O  O8  1  0.53987700  0.61857700  0.44380700  1
  O  O9  1  0.46432300  0.43838800  0.48636700  1
  O  O10  1  0.53567700  0.93838900  0.51363300  1
  O  O11  1  0.95918600  0.20802500  0.05476700  1
  O  O12  1  0.04081500  0.70802200  0.94523300  1
  O  O13  1  0.93067000  0.55505100  0.91454300  1
  O  O14  1  0.06932900  0.05505000  0.08545800  1
  O  O15  1  0.93994700  0.55401400  0.03987000  1
  O  O16  1  0.06005300  0.05401500  0.96013000  1
  O  O17  1  0.04999900  0.70876500  0.07871400  1
  O  O18  1  0.95000100  0.20876300  0.92128600  1
  O  O19  1  0.03637300  0.38887400  0.01410400  1
  O  O20  1  0.96362700  0.88887300  0.98589700  1
