# generated using pymatgen
data_Fe2H21C52N6Cl3O16
_symmetry_space_group_name_H-M   'P 1'
_cell_length_a   14.95131700
_cell_length_b   17.02657600
_cell_length_c   12.00253900
_cell_angle_alpha   72.15938400
_cell_angle_beta   100.69385500
_cell_angle_gamma   108.71326100
_symmetry_Int_Tables_number   1
_chemical_formula_structural   Fe2H21C52N6Cl3O16
_chemical_formula_sum   'Fe2 H21 C52 N6 Cl3 O16'
_cell_volume   2741.85980759
_cell_formula_units_Z   1
loop_
 _symmetry_equiv_pos_site_id
 _symmetry_equiv_pos_as_xyz
  1  'x, y, z'
loop_
 _atom_site_type_symbol
 _atom_site_label
 _atom_site_symmetry_multiplicity
 _atom_site_fract_x
 _atom_site_fract_y
 _atom_site_fract_z
 _atom_site_occupancy
  Fe  Fe1  1  0.51342900  0.99869700  0.74758100  1
  Fe  Fe2  1  0.51537900  0.00216900  0.25708200  1
  H  H1  1  0.80481500  0.01443400  0.27015200  1
  H  H2  1  0.85127500  0.97635700  0.89785200  1
  H  H3  1  0.06008300  0.95783900  0.77462100  1
  H  H4  1  0.21850800  0.96793700  0.73740000  1
  H  H5  1  0.16486900  0.97831400  0.12331700  1
  H  H6  1  0.48419000  0.56299600  0.75593200  1
  H  H7  1  0.49022600  0.68179800  0.82689700  1
  H  H8  1  0.49329200  0.42556900  0.24517200  1
  H  H9  1  0.49833400  0.26478900  0.59598400  1
  H  H10  1  0.36964600  0.34197400  0.08089100  1
  H  H11  1  0.53053600  0.35700100  0.81346100  1
  H  H12  1  0.65945200  0.32485900  0.96256300  1
  H  H13  1  0.64272600  0.29835800  0.17158900  1
  H  H14  1  0.07215300  0.12780600  0.15129200  1
  H  H15  1  0.18336900  0.05476100  0.50842800  1
  H  H16  1  0.03611500  0.93817300  0.55212400  1
  H  H17  1  0.90704700  0.91562800  0.39600700  1
  H  H18  1  0.37320000  0.72332500  0.31344100  1
  H  H19  1  0.54841800  0.73649000  0.06227200  1
  H  H20  1  0.68532600  0.74333900  0.21206400  1
  H  H21  1  0.66592000  0.73805500  0.41333500  1
  C  C1  1  0.81491400  0.00649000  0.18783500  1
  C  C2  1  0.90336400  0.00688100  0.17015300  1
  C  C3  1  0.91692000  0.99351900  0.06752000  1
  C  C4  1  0.84157700  0.98373100  0.98058300  1
  C  C5  1  0.75257400  0.98532600  0.99673100  1
  C  C6  1  0.73894400  0.99453800  0.10366900  1
  C  C7  1  0.11768500  0.96375400  0.84360500  1
  C  C8  1  0.20706600  0.96904800  0.82313900  1
  C  C9  1  0.28275900  0.98109200  0.90766200  1
  C  C10  1  0.26699200  0.98151600  0.01881100  1
  C  C11  1  0.17620700  0.97643100  0.03805600  1
  C  C12  1  0.10204700  0.97013900  0.94927200  1
  C  C13  1  0.48590600  0.12209300  0.54627100  1
  C  C14  1  0.37674400  0.99676100  0.87173000  1
  C  C15  1  0.67792300  0.98193000  0.89680300  1
  C  C16  1  0.50547300  0.84467900  0.70996700  1
  C  C17  1  0.48292900  0.14445900  0.29205000  1
  C  C18  1  0.34111100  0.98316200  0.11963000  1
  C  C19  1  0.64647200  0.98830400  0.13597600  1
  C  C20  1  0.52776100  0.87214200  0.45553900  1
  C  C21  1  0.51011800  0.78695900  0.53964700  1
  C  C22  1  0.50465400  0.71718700  0.49872500  1
  C  C23  1  0.49535400  0.63560400  0.57613600  1
  C  C24  1  0.49141900  0.62533000  0.69373400  1
  C  C25  1  0.49470300  0.69371000  0.73411500  1
  C  C26  1  0.50431300  0.77528700  0.65883500  1
  C  C27  1  0.49108500  0.42451600  0.46716500  1
  C  C28  1  0.49215600  0.55996400  0.53755100  1
  C  C29  1  0.49129900  0.36364500  0.30656500  1
  C  C30  1  0.49289500  0.29766800  0.26423400  1
  C  C31  1  0.48949100  0.21659300  0.34022600  1
  C  C32  1  0.49294900  0.20588000  0.46075400  1
  C  C33  1  0.49755100  0.27456900  0.50253300  1
  C  C34  1  0.49333000  0.35271200  0.42545400  1
  C  C35  1  0.50467200  0.31763100  0.13940700  1
  C  C36  1  0.43374400  0.33895100  0.05508200  1
  C  C37  1  0.44294100  0.35297300  0.93787600  1
  C  C38  1  0.52376800  0.34735600  0.90489500  1
  C  C39  1  0.59595300  0.32882100  0.98867200  1
  C  C40  1  0.58647300  0.31396000  0.10587900  1
  C  C41  1  0.98161900  0.01920400  0.26267200  1
  C  C42  1  0.06428400  0.08500000  0.23872900  1
  C  C43  1  0.13654800  0.09766600  0.32692900  1
  C  C44  1  0.12663700  0.04476700  0.43937900  1
  C  C45  1  0.04406500  0.97953900  0.46386500  1
  C  C46  1  0.97145100  0.96711300  0.37594900  1
  C  C47  1  0.51881900  0.73214400  0.37553900  1
  C  C48  1  0.44232900  0.72978800  0.29064400  1
  C  C49  1  0.45301600  0.73144900  0.17818800  1
  C  C50  1  0.54017800  0.73580900  0.15016100  1
  C  C51  1  0.61701300  0.73988100  0.23408300  1
  C  C52  1  0.60631500  0.73778200  0.34672000  1
  N  N1  1  0.00752200  0.98939600  0.05471700  1
  N  N2  1  0.01058600  0.97185000  0.96252900  1
  N  N3  1  0.52236100  0.49477700  0.61347000  1
  N  N4  1  0.52180500  0.42786300  0.57877400  1
  N  N5  1  0.45873100  0.48844600  0.39225500  1
  N  N6  1  0.45865400  0.55474700  0.42725500  1
  Cl  Cl1  1  0.35088200  0.37563800  0.83124300  1
  Cl  Cl2  1  0.24056800  0.18168600  0.29624100  1
  Cl  Cl3  1  0.35541900  0.72620700  0.07166200  1
  O  O1  1  0.54910100  0.11481400  0.63796800  1
  O  O2  1  0.44208200  0.06914600  0.87592100  1
  O  O3  1  0.41221300  0.05620000  0.53690900  1
  O  O4  1  0.38815700  0.94891600  0.81084500  1
  O  O5  1  0.60048000  0.00277300  0.89596000  1
  O  O6  1  0.69243000  0.96493000  0.80328100  1
  O  O7  1  0.51980800  0.92533200  0.64813700  1
  O  O8  1  0.49133700  0.82516500  0.82106500  1
  O  O9  1  0.52048600  0.08223700  0.35247800  1
  O  O10  1  0.44198300  0.14356800  0.18585700  1
  O  O11  1  0.43163700  0.00503000  0.10509500  1
  O  O12  1  0.31623000  0.96385800  0.22618300  1
  O  O13  1  0.61125700  0.92845400  0.46125500  1
  O  O14  1  0.64229700  0.03631300  0.20101500  1
  O  O15  1  0.46402700  0.88900500  0.36729800  1
  O  O16  1  0.57189100  0.92545800  0.11854400  1
