# Generated by REPEAT Assigner based on pymatgen
data_DB0-m3_o12_o28_f0_pcu.sym.75
_audit_creation_date              2022-05-24
_audit_creation_method            REPEAT_Assigner
_cell_length_a                    10.006590
_cell_length_b                    11.247868
_cell_length_c                    23.455267
_cell_angle_alpha                 90.000316
_cell_angle_beta                  80.754953
_cell_angle_gamma                 92.446980
_cell_volume                      2603.224942
_symmetry_space_group_name_H-M    P1
_symmetry_Int_Tables_number       1
loop_
    _symmetry_equiv_pos_site_id
    _symmetry_equiv_pos_as_xyz
    1  x,y,z
loop_
    _atom_site_type_symbol
    _atom_site_label
    _atom_site_fract_x
    _atom_site_fract_y
    _atom_site_fract_z
    _atom_type_partial_charge
    O   O1   0.427376  0.689752  0.505363  -0.719264
    O   O2   0.576443  0.308363  0.494739  -0.716624
    O   O3   0.656845  0.658595  0.489059  -0.714802
    O   O4   0.346974  0.339520  0.511049  -0.714282
    C   C1   0.554360  0.729038  0.496343  0.897191
    C   C2   0.449459  0.269077  0.503762  0.894771
    O   O5   0.389330  0.514496  0.592971  -0.655656
    O   O6   0.614492  0.483626  0.407131  -0.651775
    O   O7   0.618670  0.483375  0.576722  -0.650482
    O   O8   0.385148  0.514732  0.423385  -0.649596
    C   C3   0.504305  0.498953  0.611534  0.703567
    C   C4   0.499505  0.499162  0.388571  0.697258
    Zn  Zn1  0.350696  0.519777  0.510857  1.089321
    Zn  Zn2  0.653122  0.478337  0.489248  1.082815
    C   C5   0.428897  0.410618  0.123498  0.374952
    C   C6   0.574173  0.588045  0.876662  0.340916
    N   N1   0.499180  0.497413  0.146988  -0.160132
    N   N2   0.503939  0.501223  0.853163  -0.141306
    C   C7   0.569882  0.583732  0.113990  0.476721
    C   C8   0.432738  0.415213  0.886192  0.450045
    C   C9   0.570814  0.585563  0.055106  -0.067242
    C   C10  0.431448  0.413599  0.945096  -0.013829
    C   C11  0.500321  0.498125  0.029728  0.038660
    C   C12  0.501653  0.501210  0.970497  -0.003176
    C   C13  0.429206  0.407980  0.063826  -0.079029
    C   C14  0.572671  0.591413  0.936405  -0.009671
    C   C15  0.640682  0.675989  0.021747  -0.048131
    C   C16  0.361120  0.323449  0.978489  -0.146996
    C   C17  0.640989  0.681013  0.963135  -0.061107
    C   C18  0.359891  0.318999  0.037168  0.051739
    O   O9   0.360024  0.327197  0.158830  -0.411602
    O   O10  0.644738  0.670437  0.841242  -0.403269
    O   O11  0.636769  0.670168  0.138948  -0.474064
    O   O12  0.365824  0.328784  0.861241  -0.472172
    H   H1   0.694428  0.746487  0.041137  0.087217
    H   H2   0.307018  0.253091  0.959163  0.103973
    C   C19  0.385663  0.514618  0.770724  -0.175517
    C   C20  0.379923  0.512255  0.245629  -0.174996
    H   H3   0.292134  0.527171  0.799869  0.130673
    H   H4   0.286347  0.524131  0.229233  0.133678
    C   C21  0.385600  0.514169  0.711963  -0.069570
    C   C22  0.379874  0.512937  0.304442  -0.082989
    H   H5   0.291116  0.525756  0.696325  0.113048
    H   H6   0.285431  0.524583  0.333058  0.106922
    C   C23  0.504658  0.499252  0.674075  -0.061344
    C   C24  0.499066  0.498908  0.326036  -0.050906
    C   C25  0.623676  0.484793  0.695746  -0.072434
    C   C26  0.618143  0.484503  0.288081  -0.078906
    H   H7   0.718090  0.472722  0.667177  0.105109
    H   H8   0.712757  0.473269  0.303667  0.113922
    C   C27  0.623464  0.485575  0.754577  -0.190667
    C   C28  0.617925  0.484196  0.229324  -0.157933
    H   H9   0.716891  0.473367  0.771039  0.137162
    H   H10  0.711476  0.472089  0.200121  0.126306
    C   C29  0.504503  0.500610  0.792279  0.219642
    C   C30  0.498895  0.497797  0.207853  0.198650
    H   H11  0.624003  0.094158  0.491384  0.118296
    H   H12  0.379815  0.903962  0.508720  0.118485
    C   C31  0.584181  0.857836  0.494224  -0.419583
    C   C32  0.419639  0.140278  0.505880  -0.418456
    C   C33  0.485243  0.934878  0.501239  0.018308
    C   C34  0.518578  0.063236  0.498865  0.017797
    H   H13  0.314771  0.107615  0.513324  0.166907
    H   H14  0.689049  0.890501  0.486780  0.167433
    H   H15  0.118624  0.426931  0.463506  0.144667
    H   H16  0.885195  0.571185  0.536598  0.143905
    N   N3   0.851744  0.450355  0.474679  -0.277421
    N   N4   0.152075  0.547760  0.525426  -0.277072
    C   C35  0.928733  0.508340  0.504576  0.082696
    C   C36  0.075086  0.489776  0.495529  0.078471
    H   H17  0.104801  0.606172  0.555018  0.262868
    H   H18  0.899019  0.391945  0.445088  0.263129
    C   C37  0.711775  0.784912  0.932754  0.297722
    C   C38  0.639141  0.877110  0.916226  -0.016905
    Cl  Cl1  0.461687  0.868401  0.929742  -0.106338
    C   C39  0.706315  0.976435  0.889161  -0.046418
    C   C40  0.846005  0.984384  0.879112  -0.166012
    C   C41  0.918604  0.893316  0.896451  -0.108052
    C   C42  0.851565  0.793969  0.923546  -0.251266
    H   H19  0.649411  0.048292  0.876000  0.105400
    H   H20  0.898596  0.062324  0.857948  0.128375
    H   H21  0.028121  0.899923  0.888926  0.145145
    H   H22  0.908722  0.722896  0.937304  0.143693
    C   C43  0.287408  0.216163  0.067769  0.281054
    C   C44  0.147745  0.212354  0.080650  -0.022207
    Cl  Cl2  0.056918  0.332840  0.062717  -0.108995
    C   C45  0.079466  0.113974  0.108179  -0.083384
    C   C46  0.150523  0.018909  0.122398  -0.155550
    C   C47  0.289918  0.021995  0.108923  -0.048603
    C   C48  0.358316  0.120332  0.081425  -0.227574
    H   H23  0.970141  0.111324  0.118554  0.113564
    H   H24  0.096907  0.941786  0.143927  0.128332
    H   H25  0.345571  0.947204  0.119799  0.100252
    H   H26  0.467557  0.122376  0.070591  0.112544
