# generated using pymatgen
data_ZnH5C10S(NO2)2
_symmetry_space_group_name_H-M   'P 1'
_cell_length_a   12.74088900
_cell_length_b   10.16181000
_cell_length_c   8.56892500
_cell_angle_alpha   90.00000000
_cell_angle_beta   95.00971400
_cell_angle_gamma   90.00000000
_symmetry_Int_Tables_number   1
_chemical_formula_structural   ZnH5C10S(NO2)2
_chemical_formula_sum   'Zn2 H10 C20 S2 N4 O8'
_cell_volume   1105.18484784
_cell_formula_units_Z   2
loop_
 _symmetry_equiv_pos_site_id
 _symmetry_equiv_pos_as_xyz
  1  'x, y, z'
loop_
 _atom_site_type_symbol
 _atom_site_label
 _atom_site_symmetry_multiplicity
 _atom_site_fract_x
 _atom_site_fract_y
 _atom_site_fract_z
 _atom_site_occupancy
  Zn  Zn1  1  0.50877800  0.88907000  0.50224200  1
  Zn  Zn2  1  0.49313800  0.17867000  0.49906200  1
  H  H1  1  0.85220900  0.02062700  0.79210400  1
  H  H2  1  0.14936200  0.04388500  0.20908700  1
  H  H3  1  0.57337000  0.08926900  0.01201000  1
  H  H4  1  0.42923200  0.98198400  0.98945100  1
  H  H5  1  0.93572900  0.77866200  0.34626900  1
  H  H6  1  0.80087900  0.80721200  0.26919700  1
  H  H7  1  0.83284000  0.80031300  0.47834300  1
  H  H8  1  0.02224200  0.84581100  0.63221800  1
  H  H9  1  0.16058900  0.82692100  0.69668600  1
  H  H10  1  0.12072800  0.84732600  0.49094700  1
  C  C1  1  0.70799400  0.04828500  0.16683500  1
  C  C2  1  0.29402600  0.01936200  0.83448600  1
  C  C3  1  0.81541900  0.02764300  0.17976400  1
  C  C4  1  0.18626500  0.03703400  0.82137500  1
  C  C5  1  0.86979400  0.02713700  0.04647000  1
  C  C6  1  0.13190700  0.03706700  0.95470500  1
  C  C7  1  0.81424600  0.03141900  0.89938700  1
  C  C8  1  0.18749100  0.03395600  0.10183900  1
  C  C9  1  0.70679100  0.05035300  0.88837400  1
  C  C10  1  0.29520600  0.01736200  0.11292700  1
  C  C11  1  0.65619200  0.06804600  0.02167500  1
  C  C12  1  0.34612700  0.00133000  0.97970600  1
  C  C13  1  0.50673300  0.60299500  0.50196800  1
  C  C14  1  0.49519600  0.46474300  0.49933800  1
  C  C15  1  0.64262200  0.04406000  0.73895500  1
  C  C16  1  0.35925300  0.02369000  0.26241500  1
  C  C17  1  0.35720900  0.02497600  0.70017300  1
  C  C18  1  0.64468200  0.04274300  0.30106200  1
  C  C19  1  0.86168900  0.83122400  0.36555600  1
  C  C20  1  0.10334900  0.87616000  0.61082500  1
  S  S1  1  0.88492700  0.00738000  0.36836400  1
  S  S2  1  0.11631300  0.05313700  0.63249000  1
  N  N1  1  0.98107800  0.02135800  0.06332900  1
  N  N2  1  0.02059800  0.04204600  0.93780500  1
  N  N3  1  0.51472400  0.71643200  0.50377500  1
  N  N4  1  0.48720000  0.35130800  0.49752800  1
  O  O1  1  0.60114300  0.15385400  0.68175100  1
  O  O2  1  0.40076400  0.91388900  0.31956800  1
  O  O3  1  0.38563800  0.14040800  0.31917900  1
  O  O4  1  0.61627000  0.92734200  0.68213600  1
  O  O5  1  0.39938000  0.91522100  0.65513800  1
  O  O6  1  0.60252600  0.15250600  0.34614000  1
  O  O7  1  0.61765000  0.92657800  0.35146400  1
  O  O8  1  0.38426900  0.14116400  0.64984700  1
