# Generated by REPEAT Assigner based on pymatgen
data_DB0-m3_o5_o29_f0_nbo.sym.46
_audit_creation_date              2022-05-24
_audit_creation_method            REPEAT_Assigner
_cell_length_a                    30.657215
_cell_length_b                    30.665812
_cell_length_c                    15.916927
_cell_angle_alpha                 79.970094
_cell_angle_beta                  79.977734
_cell_angle_gamma                 117.045307
_cell_volume                      12565.001017
_symmetry_space_group_name_H-M    P1
_symmetry_Int_Tables_number       1
loop_
    _symmetry_equiv_pos_site_id
    _symmetry_equiv_pos_as_xyz
    1  x,y,z
loop_
    _atom_site_type_symbol
    _atom_site_label
    _atom_site_fract_x
    _atom_site_fract_y
    _atom_site_fract_z
    _atom_type_partial_charge
    O   O1    0.445836  0.715724  0.661075  -0.634172
    O   O2    0.270232  0.554421  0.106663  -0.628778
    O   O3    0.284335  0.729966  0.376859  -0.638675
    O   O4    0.282989  0.553877  0.328836  -0.627558
    O   O5    0.446047  0.728893  0.882851  -0.621650
    O   O6    0.271027  0.716963  0.611914  -0.634278
    O   O7    0.445348  0.777587  0.725743  -0.680520
    O   O8    0.332467  0.554656  0.171034  -0.671700
    O   O9    0.222380  0.667608  0.503679  -0.675960
    O   O10   0.221679  0.555455  0.263585  -0.677144
    O   O11   0.444725  0.666124  0.819087  -0.668666
    O   O12   0.333880  0.778409  0.485111  -0.679215
    C   C1    0.428697  0.746525  0.676917  0.718887
    C   C2    0.318104  0.571396  0.105518  0.738561
    C   C3    0.253492  0.682017  0.423642  0.722327
    C   C4    0.252671  0.571624  0.312734  0.719738
    C   C5    0.428466  0.680909  0.884392  0.733385
    C   C6    0.319086  0.747350  0.565336  0.738365
    Zn  Zn1   0.499231  0.705563  0.706413  1.318148
    Zn  Zn2   0.206576  0.501044  0.205505  1.314932
    Zn  Zn3   0.294503  0.793509  0.411977  1.335071
    Zn  Zn4   0.292390  0.500122  0.283525  1.319158
    Zn  Zn5   0.499812  0.792125  0.783611  1.317275
    Zn  Zn6   0.207828  0.707530  0.576124  1.329864
    O   O13   0.553872  0.716321  0.769019  -0.716936
    O   O14   0.162545  0.446341  0.322907  -0.711666
    O   O15   0.283725  0.837386  0.485356  -0.724882
    O   O16   0.281055  0.445501  0.220708  -0.706586
    O   O17   0.554524  0.835538  0.665987  -0.695526
    O   O18   0.164475  0.718866  0.502039  -0.708487
    O   O19   0.552480  0.776885  0.835764  -0.718931
    O   O20   0.224380  0.447473  0.388453  -0.715522
    O   O21   0.223073  0.775423  0.612958  -0.728227
    O   O22   0.221047  0.447971  0.153385  -0.702485
    O   O23   0.552311  0.773179  0.601042  -0.703462
    O   O24   0.226922  0.779008  0.374454  -0.716397
    C   C7    0.569552  0.745963  0.820301  0.694231
    C   C8    0.176450  0.430573  0.389923  0.717702
    C   C9    0.254036  0.823427  0.566426  0.715897
    C   C10   0.251490  0.430292  0.169113  0.683986
    C   C11   0.569818  0.821222  0.599183  0.701167
    C   C12   0.178806  0.748490  0.420783  0.702256
    C   C13   0.389499  0.642442  0.962211  -0.093217
    C   C14   0.253192  0.610628  0.351622  -0.075329
    C   C15   0.357592  0.746830  0.604664  -0.103867
    C   C16   0.356923  0.610119  0.027801  -0.089556
    C   C17   0.389929  0.746578  0.637902  -0.059162
    C   C18   0.253438  0.643198  0.384656  -0.080920
    C   C19   0.841027  0.138202  0.051350  0.056990
    C   C20   0.296762  0.158466  0.893234  0.049618
    C   C21   0.861704  0.703168  0.190404  0.061367
    C   C22   0.899415  0.114951  0.932423  0.047701
    C   C23   0.885268  0.784591  0.047271  0.063585
    C   C24   0.215412  0.100681  0.831738  0.065082
    C   C25   0.834140  0.089194  0.068874  0.021629
    C   C26   0.254855  0.165732  0.903179  0.026446
    C   C27   0.910855  0.745124  0.158371  0.015686
    C   C28   0.908636  0.164731  0.917972  0.031174
    C   C29   0.835384  0.744158  0.082988  0.012026
    C   C30   0.255797  0.091172  0.826982  0.017364
    C   C31   0.864227  0.077700  0.011413  0.050395
    C   C32   0.213436  0.135988  0.875222  0.042737
    C   C33   0.922523  0.786582  0.088865  0.052480
    C   C34   0.880808  0.176985  0.978410  0.043824
    C   C35   0.822992  0.704172  0.156088  0.054564
    C   C36   0.295748  0.118737  0.859976  0.058729
    C   C37   0.807432  0.147023  0.107122  -0.191643
    C   C38   0.338985  0.191659  0.916216  -0.178957
    C   C39   0.852691  0.660909  0.255717  -0.192684
    C   C40   0.925455  0.103608  0.866710  -0.180444
    C   C41   0.896687  0.821916  0.969966  -0.197580
    C   C42   0.178118  0.074781  0.791902  -0.177328
    C   C43   0.769977  0.108994  0.180404  -0.029625
    C   C44   0.338452  0.229099  0.951955  -0.027699
    C   C45   0.890660  0.661450  0.290970  -0.016605
    C   C46   0.961470  0.141135  0.791489  -0.038181
    C   C47   0.859206  0.820434  0.932317  -0.009461
    C   C48   0.179590  0.038754  0.752856  -0.023347
    C   C49   0.764996  0.061245  0.200199  -0.126297
    C   C50   0.295913  0.234520  0.965947  -0.134175
    C   C51   0.938589  0.704034  0.262360  -0.147174
    C   C52   0.972494  0.190876  0.779666  -0.131843
    C   C53   0.809383  0.781808  0.970484  -0.151967
    C   C54   0.218172  0.027513  0.752335  -0.146696
    C   C55   0.796814  0.051335  0.144500  0.122793
    C   C56   0.254373  0.203088  0.941369  0.115054
    C   C57   0.948681  0.745616  0.196132  0.131372
    C   C58   0.946074  0.202605  0.842483  0.121771
    C   C59   0.797549  0.743749  0.045348  0.121467
    C   C60   0.256194  0.053717  0.789012  0.113202
    C   C61   0.790838  0.003111  0.165241  -0.124943
    C   C62   0.212361  0.209488  0.955352  -0.140333
    C   C63   0.997064  0.787676  0.168038  -0.153935
    C   C64   0.957597  0.252662  0.829037  -0.133771
    C   C65   0.747416  0.705328  0.082228  -0.139313
    C   C66   0.294568  0.041958  0.787418  -0.132131
    C   C67   0.822461  0.992460  0.111040  -0.032579
    C   C68   0.170270  0.178260  0.932027  -0.009936
    C   C69   0.007909  0.829809  0.102522  -0.005678
    C   C70   0.931827  0.265286  0.890954  -0.026380
    C   C71   0.734686  0.667006  0.157080  -0.026377
    C   C72   0.332856  0.067532  0.823816  -0.022862
    C   C73   0.858661  0.029132  0.035135  -0.184146
    C   C74   0.170683  0.142040  0.892496  -0.192130
    C   C75   0.971287  0.829387  0.063342  -0.191584
    C   C76   0.893950  0.228078  0.964659  -0.180317
    C   C77   0.771819  0.666314  0.193632  -0.183249
    C   C78   0.333559  0.105375  0.859600  -0.191972
    C   C79   0.727617  0.023085  0.274641  0.407138
    C   C80   0.295200  0.271928  0.002910  0.419127
    C   C81   0.976707  0.704754  0.298635  0.436526
    C   C82   0.009687  0.228924  0.704936  0.430735
    C   C83   0.771386  0.780971  0.933740  0.450892
    C   C84   0.218999  0.990330  0.714819  0.435101
    N   N1    0.722596  0.976194  0.293998  -0.062288
    N   N2    0.253541  0.277384  0.016536  -0.067360
    N   N3    0.023791  0.746454  0.270517  -0.102325
    N   N4    0.020649  0.277699  0.693586  -0.079934
    N   N5    0.722507  0.743257  0.971410  -0.103109
    N   N6    0.256668  0.979115  0.714716  -0.083161
    C   C85   0.753723  0.965854  0.240861  0.415737
    C   C86   0.212244  0.246602  0.993796  0.440209
    C   C87   0.034289  0.787793  0.206396  0.459977
    C   C88   0.995319  0.290055  0.754176  0.425463
    C   C89   0.710063  0.705665  0.044723  0.456123
    C   C90   0.294222  0.004245  0.750324  0.447600
    H   H1    0.807522  0.182650  0.095024  0.142375
    H   H2    0.374359  0.191237  0.905007  0.137805
    H   H3    0.816921  0.625502  0.279916  0.139075
    H   H4    0.918014  0.065547  0.869183  0.136539
    H   H5    0.934782  0.852500  0.934152  0.139720
    H   H6    0.147565  0.082312  0.786726  0.128850
    H   H7    0.744816  0.117631  0.221684  0.126435
    H   H8    0.372117  0.253908  0.968675  0.121673
    H   H9    0.881827  0.627757  0.341436  0.120478
    H   H10   0.980729  0.130556  0.742374  0.128757
    H   H11   0.869894  0.850235  0.872421  0.117272
    H   H12   0.149813  0.019656  0.722872  0.126953
    O   O25   0.695338  0.032377  0.326957  -0.488014
    O   O26   0.336669  0.303799  0.023527  -0.487459
    O   O27   0.967147  0.663256  0.360819  -0.490570
    O   O28   0.036015  0.217599  0.644239  -0.506595
    O   O29   0.782897  0.818559  0.861383  -0.508864
    O   O30   0.181443  0.964285  0.680174  -0.508436
    O   O31   0.749121  0.919286  0.262455  -0.500692
    O   O32   0.170422  0.251494  0.010034  -0.508423
    O   O33   0.080980  0.829644  0.180748  -0.510100
    O   O34   0.006315  0.338887  0.740705  -0.504651
    O   O35   0.661184  0.667899  0.080444  -0.512518
    O   O36   0.331953  0.993101  0.748228  -0.515050
    H   H13   0.819515  0.955323  0.126652  0.120610
    H   H14   0.136251  0.181538  0.943969  0.113049
    H   H15   0.045180  0.863863  0.080412  0.110021
    H   H16   0.940781  0.304406  0.883203  0.127978
    H   H17   0.695521  0.636899  0.188667  0.126341
    H   H18   0.362929  0.058445  0.825250  0.127059
    H   H19   0.882818  0.018089  0.998201  0.134843
    H   H20   0.135612  0.118280  0.879067  0.135301
    H   H21   0.982564  0.864485  0.014771  0.133358
    H   H22   0.877027  0.241549  0.011122  0.135575
    H   H23   0.758220  0.635943  0.253742  0.136520
    H   H24   0.363907  0.122131  0.889224  0.138163
    C   C91   0.645942  0.892931  0.361055  -0.244005
    C   C92   0.246990  0.354176  0.007027  -0.224148
    C   C93   0.107154  0.753048  0.254293  -0.231667
    C   C94   0.104029  0.354008  0.627613  -0.236869
    C   C95   0.646052  0.750221  0.981585  -0.233920
    C   C96   0.249670  0.895675  0.731965  -0.212443
    H   H25   0.646820  0.889837  0.294330  0.131381
    H   H26   0.243025  0.353442  0.941142  0.120431
    H   H27   0.110375  0.757067  0.184412  0.127570
    H   H28   0.107332  0.352121  0.694409  0.127381
    H   H29   0.647778  0.755388  0.046540  0.122813
    H   H30   0.244457  0.892222  0.802130  0.120815
    C   C97   0.607861  0.854640  0.435262  0.261491
    C   C98   0.246803  0.392234  0.043168  0.254816
    C   C99   0.145419  0.753227  0.290186  0.249375
    C   C100  0.142555  0.392135  0.553739  0.224757
    C   C101  0.607945  0.750569  0.945789  0.216053
    C   C102  0.249344  0.857223  0.696547  0.197194
    C   C103  0.608679  0.861022  0.519186  -0.054716
    C   C104  0.252386  0.391382  0.127955  -0.037593
    C   C105  0.138979  0.747583  0.380598  -0.042897
    C   C106  0.136313  0.391758  0.469614  -0.037182
    C   C107  0.608417  0.744722  0.861218  -0.001495
    C   C108  0.255253  0.863539  0.606073  -0.016547
    C   C109  0.645905  0.905735  0.528156  -0.135675
    C   C110  0.259852  0.354045  0.174098  -0.131071
    C   C111  0.094160  0.740055  0.434331  -0.128776
    C   C112  0.091517  0.354909  0.460135  -0.154931
    C   C113  0.645435  0.736879  0.814931  -0.169267
    C   C114  0.263132  0.908409  0.551863  -0.151638
    H   H31   0.646593  0.910976  0.593421  0.155348
    H   H32   0.264435  0.353262  0.240055  0.158753
    H   H33   0.088803  0.735425  0.504907  0.156387
    H   H34   0.086337  0.354637  0.394741  0.162650
    H   H35   0.645836  0.731971  0.749240  0.168867
    H   H36   0.268091  0.913728  0.481220  0.162749
    C   C115  0.683454  0.943492  0.454304  -0.202825
    C   C116  0.260017  0.316505  0.137802  -0.214005
    C   C117  0.056433  0.739894  0.398257  -0.210771
    C   C118  0.053552  0.317285  0.533694  -0.199892
    C   C119  0.683056  0.736615  0.850894  -0.204204
    C   C120  0.263372  0.946291  0.587531  -0.196611
    H   H37   0.713049  0.977878  0.462327  0.145802
    H   H38   0.264776  0.286878  0.175545  0.147694
    H   H39   0.022024  0.735086  0.440827  0.145955
    H   H40   0.018754  0.288328  0.525655  0.141729
    H   H41   0.712085  0.730835  0.813828  0.143708
    H   H42   0.269185  0.981099  0.544602  0.138770
    C   C121  0.683732  0.937066  0.370688  0.155944
    C   C122  0.253313  0.316263  0.054397  0.145127
    C   C123  0.062908  0.746670  0.308100  0.159995
    C   C124  0.059862  0.316684  0.617370  0.178845
    C   C125  0.683546  0.743474  0.934065  0.183011
    C   C126  0.256455  0.939926  0.677622  0.166381
    O   O37   0.568922  0.812187  0.427497  -0.186637
    C   C127  0.562399  0.803522  0.347560  0.021673
    C   C128  0.513659  0.755112  0.363948  0.097466
    C   C129  0.467845  0.750826  0.405412  -0.056401
    C   C130  0.422352  0.706977  0.417524  -0.110855
    C   C131  0.422573  0.667316  0.388273  -0.057210
    C   C132  0.468298  0.671373  0.347400  -0.119600
    C   C133  0.513830  0.715193  0.335209  -0.137608
    H   H43   0.594952  0.800766  0.311288  0.056529
    H   H44   0.559907  0.835125  0.306846  0.045645
    H   H45   0.467461  0.782076  0.427525  0.071799
    H   H46   0.386476  0.703817  0.449415  0.113885
    H   H47   0.386893  0.633085  0.397197  0.061231
    H   H48   0.468450  0.640330  0.324216  0.098217
    H   H49   0.549393  0.718146  0.302110  0.080687
    O   O38   0.243293  0.431206  0.996381  -0.182951
    C   C134  0.241221  0.437881  0.909839  -0.004480
    C   C135  0.241611  0.486660  0.877403  0.097196
    C   C136  0.283141  0.532396  0.873086  -0.037775
    C   C137  0.284840  0.577930  0.839652  -0.124353
    C   C138  0.245013  0.577831  0.810534  -0.036546
    C   C139  0.203345  0.532183  0.815345  -0.108340
    C   C140  0.201578  0.486610  0.848740  -0.154841
    H   H50   0.205909  0.405400  0.906139  0.073078
    H   H51   0.275340  0.440405  0.866612  0.048385
    H   H52   0.314731  0.532687  0.894892  0.069676
    H   H53   0.317555  0.613744  0.835702  0.109379
    H   H54   0.246504  0.613544  0.783740  0.055193
    H   H55   0.172194  0.532127  0.792242  0.090853
    H   H56   0.168970  0.451111  0.851174  0.081153
    O   O39   0.187922  0.756788  0.239801  -0.173459
    C   C141  0.196669  0.758950  0.151137  -0.023390
    C   C142  0.245080  0.758600  0.118976  0.107579
    C   C143  0.249294  0.717050  0.156224  -0.024206
    C   C144  0.293143  0.715385  0.124361  -0.130337
    C   C145  0.332877  0.755267  0.055259  -0.039154
    C   C146  0.328890  0.796955  0.018368  -0.136571
    C   C147  0.285069  0.798687  0.050119  -0.139540
    H   H57   0.199484  0.794273  0.112034  0.072611
    H   H58   0.165071  0.724866  0.142155  0.051294
    H   H59   0.217989  0.685417  0.209741  0.065892
    H   H60   0.296247  0.682653  0.153150  0.111470
    H   H61   0.367110  0.753803  0.029861  0.059846
    H   H62   0.359989  0.828149  0.963990  0.099504
    H   H63   0.282170  0.831311  0.019917  0.079918
    O   O40   0.185156  0.430638  0.562022  -0.157279
    C   C148  0.193632  0.436722  0.642250  -0.005389
    C   C149  0.242142  0.485246  0.626519  0.086506
    C   C150  0.281884  0.484664  0.655396  -0.112550
    C   C151  0.325796  0.529987  0.643824  -0.147072
    C   C152  0.330122  0.575914  0.603424  -0.041289
    C   C153  0.290647  0.576547  0.574008  -0.092419
    C   C154  0.246705  0.531263  0.585505  -0.073550
    H   H64   0.196162  0.403960  0.678249  0.035745
    H   H65   0.162035  0.439221  0.682993  0.087497
    H   H66   0.278717  0.448936  0.688126  0.080122
    H   H67   0.356696  0.529512  0.667129  0.100912
    H   H68   0.364423  0.611428  0.594992  0.061034
    H   H69   0.294022  0.612580  0.542478  0.107715
    H   H70   0.215599  0.531968  0.563268  0.073923
    O   O41   0.569352  0.754593  0.992642  -0.151477
    C   C155  0.563085  0.756893  0.079045  -0.023162
    C   C156  0.514482  0.756771  0.111914  0.072555
    C   C157  0.514922  0.797001  0.140318  -0.126790
    C   C158  0.469521  0.795485  0.174147  -0.129632
    C   C159  0.423658  0.753873  0.179643  -0.019726
    C   C160  0.423168  0.713858  0.150753  -0.110947
    C   C161  0.468529  0.715304  0.116891  -0.048948
    H   H71   0.595778  0.792189  0.082276  0.047968
    H   H72   0.560561  0.722791  0.122316  0.089478
    H   H73   0.550596  0.829569  0.137350  0.083046
    H   H74   0.469884  0.826787  0.197061  0.089355
    H   H75   0.388081  0.752577  0.206786  0.053939
    H   H76   0.387184  0.681190  0.155231  0.105752
    H   H77   0.467935  0.683565  0.095276  0.071661
    O   O42   0.245286  0.814607  0.747506  -0.136007
    C   C162  0.242932  0.806038  0.836248  -0.050666
    C   C163  0.243054  0.757575  0.869054  0.101279
    C   C164  0.202782  0.717756  0.937882  -0.117048
    C   C165  0.204294  0.673885  0.970236  -0.163135
    C   C166  0.245946  0.669678  0.933969  -0.019212
    C   C167  0.286005  0.709233  0.864876  -0.117485
    C   C168  0.284562  0.753133  0.832415  -0.048492
    H   H78   0.207608  0.803408  0.874927  0.047541
    H   H79   0.277019  0.837628  0.845250  0.095499
    H   H80   0.170180  0.720827  0.967593  0.080802
    H   H81   0.172956  0.642923  0.024599  0.102564
    H   H82   0.247237  0.635407  0.959844  0.057145
    H   H83   0.318705  0.705952  0.836570  0.111033
    H   H84   0.316334  0.784300  0.778909  0.069635
