# generated using pymatgen
data_FeH20(C19O4)2
_symmetry_space_group_name_H-M   'P 1'
_cell_length_a   15.59569300
_cell_length_b   22.11727300
_cell_length_c   11.18671400
_cell_angle_alpha   97.90961200
_cell_angle_beta   87.99840300
_cell_angle_gamma   95.84216100
_symmetry_Int_Tables_number   1
_chemical_formula_structural   FeH20(C19O4)2
_chemical_formula_sum   'Fe2 H40 C76 O16'
_cell_volume   3801.26220832
_cell_formula_units_Z   2
loop_
 _symmetry_equiv_pos_site_id
 _symmetry_equiv_pos_as_xyz
  1  'x, y, z'
loop_
 _atom_site_type_symbol
 _atom_site_label
 _atom_site_symmetry_multiplicity
 _atom_site_fract_x
 _atom_site_fract_y
 _atom_site_fract_z
 _atom_site_occupancy
  Fe  Fe1  1  0.54832300  0.00094000  0.21700100  1
  Fe  Fe2  1  0.53679800  0.01312700  0.67210100  1
  H  H1  1  0.95331400  0.03639400  0.77426900  1
  H  H2  1  0.21699700  0.02377700  0.76770100  1
  H  H3  1  0.07215700  0.01338200  0.80985700  1
  H  H4  1  0.81164200  0.03376500  0.71494800  1
  H  H5  1  0.27299300  0.99071900  0.18127700  1
  H  H6  1  0.12534700  0.98238500  0.22332900  1
  H  H7  1  0.82257900  0.98028600  0.21204300  1
  H  H8  1  0.50330400  0.27791000  0.18101900  1
  H  H9  1  0.52662300  0.37279100  0.59084000  1
  H  H10  1  0.46511800  0.35403500  0.07479800  1
  H  H11  1  0.38924200  0.41381000  0.00957000  1
  H  H12  1  0.36401300  0.49391900  0.89898400  1
  H  H13  1  0.54588600  0.55987400  0.56350400  1
  H  H14  1  0.50226000  0.62469500  0.47594700  1
  H  H15  1  0.47956400  0.67531900  0.13068700  1
  H  H16  1  0.44525700  0.21532000  0.31000100  1
  H  H17  1  0.66812500  0.24524800  0.61767700  1
  H  H18  1  0.64458500  0.32891900  0.50787400  1
  H  H19  1  0.30287800  0.64943500  0.09604600  1
  H  H20  1  0.32209300  0.73105000  0.77076600  1
  H  H21  1  0.42597700  0.65935800  0.68763900  1
  H  H22  1  0.46946700  0.58338800  0.80804600  1
  H  H23  1  0.50388200  0.41214400  0.78597100  1
  H  H24  1  0.58222100  0.42966100  0.97437800  1
  H  H25  1  0.70128000  0.51118800  0.00666700  1
  H  H26  1  0.74583200  0.57337200  0.84524600  1
  H  H27  1  0.67415800  0.55347500  0.65233400  1
  H  H28  1  0.45560700  0.76248800  0.23203800  1
  H  H29  1  0.63367300  0.80191800  0.59282700  1
  H  H30  1  0.60653800  0.69877300  0.49386900  1
  H  H31  1  0.26994300  0.78588500  0.98250900  1
  H  H32  1  0.22692000  0.73338000  0.08460100  1
  H  H33  1  0.15476100  0.68715700  0.84571800  1
  H  H34  1  0.10183400  0.79672700  0.01981900  1
  H  H35  1  0.03710500  0.74921900  0.89604600  1
  H  H36  1  0.90839600  0.98001400  0.36327200  1
  H  H37  1  0.01811900  0.01027900  0.35317900  1
  H  H38  1  0.99966400  0.88030600  0.23308200  1
  H  H39  1  0.00272100  0.92587300  0.50377100  1
  H  H40  1  0.02638200  0.84866300  0.42489000  1
  C  C1  1  0.90527600  0.02156200  0.83783400  1
  C  C2  1  0.31455000  0.01705600  0.89344400  1
  C  C3  1  0.23021500  0.01715400  0.85891600  1
  C  C4  1  0.16225400  0.00807100  0.93910700  1
  C  C5  1  0.07889900  0.00867200  0.90311200  1
  C  C6  1  0.00880300  0.00195600  0.98324900  1
  C  C7  1  0.82221300  0.02197100  0.80346500  1
  C  C8  1  0.75401400  0.00517800  0.87660600  1
  C  C9  1  0.92347500  0.00471600  0.94871800  1
  C  C10  1  0.85480500  0.99266000  0.02800000  1
  C  C11  1  0.76902400  0.99130100  0.99117100  1
  C  C12  1  0.33018000  0.00750300  0.01115000  1
  C  C13  1  0.26124000  0.99720000  0.08947800  1
  C  C14  1  0.17767700  0.99825600  0.05392500  1
  C  C15  1  0.10974700  0.98989600  0.13387000  1
  C  C16  1  0.02498200  0.99161800  0.09986800  1
  C  C17  1  0.95642500  0.98410300  0.18143000  1
  C  C18  1  0.87300300  0.98481900  0.14500500  1
  C  C19  1  0.69457700  0.97955700  0.07377500  1
  C  C20  1  0.50753800  0.88102900  0.28989200  1
  C  C21  1  0.41712500  0.01222100  0.06005000  1
  C  C22  1  0.50425300  0.11238000  0.35116400  1
  C  C23  1  0.57585600  0.90219800  0.53902200  1
  C  C24  1  0.66782900  0.00086900  0.82634900  1
  C  C25  1  0.58465300  0.13071900  0.59070600  1
  C  C26  1  0.38372300  0.02413600  0.80176900  1
  C  C27  1  0.49587800  0.32226000  0.23203600  1
  C  C28  1  0.51157200  0.33350200  0.35388200  1
  C  C29  1  0.50904200  0.39374900  0.41214900  1
  C  C30  1  0.52346100  0.40802000  0.53468200  1
  C  C31  1  0.54200200  0.46789100  0.58528000  1
  C  C32  1  0.47323500  0.36724500  0.17020900  1
  C  C33  1  0.46933100  0.42684000  0.22665300  1
  C  C34  1  0.49282100  0.44075100  0.34651100  1
  C  C35  1  0.50112100  0.50161600  0.40070300  1
  C  C36  1  0.41044000  0.45966600  0.04993100  1
  C  C37  1  0.44724000  0.47303100  0.16326300  1
  C  C38  1  0.46137500  0.53387600  0.21397000  1
  C  C39  1  0.39449000  0.50561400  0.98553900  1
  C  C40  1  0.41468600  0.56591900  0.03130700  1
  C  C41  1  0.53083900  0.51424000  0.51863700  1
  C  C42  1  0.48719600  0.54866100  0.33264500  1
  C  C43  1  0.49679900  0.61052200  0.38100900  1
  C  C44  1  0.44933200  0.58032400  0.14570800  1
  C  C45  1  0.47545700  0.64068900  0.18989200  1
  C  C46  1  0.49810900  0.65658800  0.30878100  1
  C  C47  1  0.49380900  0.22289100  0.37835700  1
  C  C48  1  0.51971800  0.17266900  0.42293400  1
  C  C49  1  0.57530500  0.18091800  0.51900100  1
  C  C50  1  0.61962800  0.23796100  0.54913300  1
  C  C51  1  0.60406600  0.28624100  0.48934300  1
  C  C52  1  0.53475200  0.28104700  0.41264700  1
  C  C53  1  0.33073600  0.65235300  0.00693300  1
  C  C54  1  0.30585300  0.69488500  0.93878500  1
  C  C55  1  0.34073400  0.69760100  0.82433400  1
  C  C56  1  0.39923100  0.65742300  0.77761200  1
  C  C57  1  0.42362400  0.61475600  0.84536800  1
  C  C58  1  0.39062300  0.61272400  0.96100300  1
  C  C59  1  0.55731500  0.44744000  0.79668400  1
  C  C60  1  0.60061000  0.45768100  0.90415700  1
  C  C61  1  0.66765700  0.50323200  0.92221700  1
  C  C62  1  0.69237600  0.53815000  0.83194200  1
  C  C63  1  0.65053400  0.52728700  0.72344300  1
  C  C64  1  0.58216400  0.48198900  0.70476700  1
  C  C65  1  0.49581300  0.77040700  0.31008400  1
  C  C66  1  0.52024200  0.83052900  0.35918000  1
  C  C67  1  0.56471100  0.84158600  0.46682200  1
  C  C68  1  0.59607400  0.79357500  0.51181700  1
  C  C69  1  0.57785700  0.73439800  0.45704200  1
  C  C70  1  0.52321500  0.72144300  0.35972700  1
  C  C71  1  0.24216400  0.73818400  0.98862700  1
  C  C72  1  0.16114900  0.72487900  0.91878200  1
  C  C73  1  0.09607800  0.75904700  0.94662100  1
  C  C74  1  0.96906900  0.97496000  0.30992800  1
  C  C75  1  0.99392000  0.91199300  0.31532400  1
  C  C76  1  0.00855700  0.89446600  0.42115800  1
  O  O1  1  0.63194000  0.01579500  0.08443800  1
  O  O2  1  0.46074500  0.87018300  0.19278700  1
  O  O3  1  0.68951500  0.93257500  0.13459000  1
  O  O4  1  0.55535700  0.93358800  0.31498300  1
  O  O5  1  0.43222400  0.97796400  0.14273800  1
  O  O6  1  0.47452400  0.05705600  0.03723800  1
  O  O7  1  0.57022600  0.07959600  0.32909900  1
  O  O8  1  0.43113100  0.09572600  0.29601000  1
  O  O9  1  0.50935100  0.93453400  0.56136900  1
  O  O10  1  0.64954800  0.92095900  0.59113000  1
  O  O11  1  0.65519500  0.03366400  0.74019300  1
  O  O12  1  0.60853700  0.95762900  0.85122500  1
  O  O13  1  0.36968600  0.04964100  0.70601400  1
  O  O14  1  0.52977100  0.08084900  0.57496600  1
  O  O15  1  0.45665900  0.00028800  0.80952100  1
  O  O16  1  0.63953700  0.13946500  0.67890400  1
