# generated using pymatgen
data_Zn2H36C49(NO7)2
_symmetry_space_group_name_H-M   'P 1'
_cell_length_a   13.72499500
_cell_length_b   13.99618000
_cell_length_c   15.19235600
_cell_angle_alpha   90.00463200
_cell_angle_beta   89.98746400
_cell_angle_gamma   73.85235000
_symmetry_Int_Tables_number   1
_chemical_formula_structural   Zn2H36C49(NO7)2
_chemical_formula_sum   'Zn2 H36 C49 N2 O14'
_cell_volume   2803.27682740
_cell_formula_units_Z   1
loop_
 _symmetry_equiv_pos_site_id
 _symmetry_equiv_pos_as_xyz
  1  'x, y, z'
loop_
 _atom_site_type_symbol
 _atom_site_label
 _atom_site_symmetry_multiplicity
 _atom_site_fract_x
 _atom_site_fract_y
 _atom_site_fract_z
 _atom_site_occupancy
  Zn  Zn1  1  0.51463500  0.40112600  0.50627100  1
  Zn  Zn2  1  0.50616800  0.62058200  0.50391600  1
  H  H1  1  0.19098300  0.73167900  0.44215800  1
  H  H2  1  0.86229900  0.72116300  0.39441900  1
  H  H3  1  0.01152100  0.76998700  0.40944300  1
  H  H4  1  0.19193400  0.44554600  0.53210200  1
  H  H5  1  0.82754600  0.28951500  0.55887900  1
  H  H6  1  0.10853000  0.34825600  0.55861600  1
  H  H7  1  0.00739200  0.23951800  0.58445400  1
  H  H8  1  0.76684100  0.60512000  0.41458100  1
  H  H9  1  0.43860700  0.39276100  0.94346600  1
  H  H10  1  0.43942800  0.39357800  0.78404400  1
  H  H11  1  0.56493800  0.64051200  0.78530300  1
  H  H12  1  0.56979200  0.63690900  0.94457200  1
  H  H13  1  0.46991800  0.67023400  0.06855700  1
  H  H14  1  0.47746000  0.66634100  0.22691100  1
  H  H15  1  0.54876200  0.34874200  0.22229800  1
  H  H16  1  0.54658300  0.35207100  0.06293000  1
  H  H17  1  0.37350400  0.98127200  0.59159300  1
  H  H18  1  0.37960900  0.80419600  0.59139300  1
  H  H19  1  0.61897300  0.74352000  0.40856500  1
  H  H20  1  0.61807200  0.91912100  0.40839800  1
  H  H21  1  0.43165300  0.28404100  0.39521700  1
  H  H22  1  0.34800900  0.99895200  0.23830200  1
  H  H23  1  0.23242900  0.07054800  0.29185600  1
  H  H24  1  0.34603300  0.85217700  0.32870800  1
  H  H25  1  0.23011900  0.89629200  0.26574700  1
  H  H26  1  0.23089300  0.92341100  0.38229500  1
  H  H27  1  0.64840700  0.28679600  0.80835100  1
  H  H28  1  0.73332500  0.16358800  0.79151400  1
  H  H29  1  0.53311700  0.21191000  0.89475800  1
  H  H30  1  0.65857900  0.18640900  0.94260000  1
  H  H31  1  0.62258100  0.09069200  0.88119500  1
  H  H32  1  0.65970600  0.93483900  0.79074700  1
  H  H33  1  0.65740800  0.83914300  0.71086400  1
  H  H34  1  0.48749600  0.93612900  0.84116900  1
  H  H35  1  0.57633400  0.81395800  0.85195700  1
  H  H36  1  0.48586300  0.83968000  0.76218500  1
  C  C1  1  0.50457700  0.51606400  0.67727900  1
  C  C2  1  0.70975400  0.46382900  0.50746300  1
  C  C3  1  0.51515400  0.50624200  0.33281000  1
  C  C4  1  0.31196900  0.55788000  0.49995300  1
  C  C5  1  0.04963600  0.69847200  0.43767000  1
  C  C6  1  0.20146400  0.58450200  0.48888000  1
  C  C7  1  0.86981500  0.34146600  0.54295500  1
  C  C8  1  0.97206400  0.31265400  0.55800400  1
  C  C9  1  0.02961400  0.37671500  0.54258500  1
  C  C10  1  0.98638300  0.47064700  0.50691700  1
  C  C11  1  0.88240300  0.49821900  0.48790700  1
  C  C12  1  0.04439600  0.53737800  0.48917000  1
  C  C13  1  0.99708200  0.62920300  0.45267900  1
  C  C14  1  0.89733300  0.65185800  0.42769400  1
  C  C15  1  0.84154300  0.58624100  0.44260100  1
  C  C16  1  0.14852700  0.51553800  0.50585700  1
  C  C17  1  0.15111300  0.67694000  0.45661400  1
  C  C18  1  0.82241100  0.43523700  0.51108200  1
  C  C19  1  0.46843700  0.44648300  0.90976000  1
  C  C20  1  0.46790900  0.44747100  0.81901300  1
  C  C21  1  0.50232700  0.51707600  0.77360500  1
  C  C22  1  0.53637600  0.58636400  0.81974700  1
  C  C23  1  0.53857400  0.58441700  0.91048600  1
  C  C24  1  0.50491400  0.51418700  0.95640000  1
  C  C25  1  0.48962000  0.59882400  0.10111900  1
  C  C26  1  0.49314000  0.59662200  0.19171500  1
  C  C27  1  0.51387200  0.50714500  0.23628600  1
  C  C28  1  0.53165700  0.41970400  0.18900400  1
  C  C29  1  0.52938100  0.42182200  0.09816700  1
  C  C30  1  0.50798900  0.51149600  0.05337100  1
  C  C31  1  0.42797000  0.92950700  0.55068500  1
  C  C32  1  0.43166000  0.83003700  0.55063800  1
  C  C33  1  0.56529800  0.79612700  0.44923300  1
  C  C34  1  0.56443900  0.89486800  0.44857000  1
  C  C35  1  0.49594300  0.96215800  0.50033500  1
  C  C36  1  0.45443000  0.13472600  0.43949100  1
  C  C37  1  0.46734400  0.22929500  0.44382900  1
  C  C38  1  0.56138800  0.19073400  0.57411000  1
  C  C39  1  0.55266000  0.09442000  0.57078200  1
  C  C40  1  0.49801300  0.06614400  0.50421900  1
  C  C41  1  0.39450200  0.11120000  0.36583400  1
  C  C42  1  0.30304000  0.00909000  0.30000300  1
  C  C43  1  0.27566200  0.91388400  0.32053000  1
  C  C44  1  0.61351400  0.21972900  0.64992400  1
  C  C45  1  0.65316500  0.20675200  0.80193000  1
  C  C46  1  0.61429300  0.17159600  0.88570500  1
  C  C47  1  0.60906700  0.01931300  0.63349800  1
  C  C48  1  0.61044700  0.90406200  0.74784700  1
  C  C49  1  0.53499300  0.87121500  0.80457300  1
  N  N1  1  0.50052800  0.76491600  0.50097200  1
  N  N2  1  0.52007800  0.25656600  0.50952900  1
  O  O1  1  0.50863900  0.43245800  0.63669700  1
  O  O2  1  0.50319900  0.59834800  0.63553900  1
  O  O3  1  0.66458600  0.39235100  0.50774400  1
  O  O4  1  0.65814900  0.55815600  0.50844600  1
  O  O5  1  0.51678300  0.42352100  0.37453300  1
  O  O6  1  0.51154100  0.58981700  0.37346400  1
  O  O7  1  0.36260400  0.46324700  0.50161500  1
  O  O8  1  0.35624500  0.62982600  0.50113200  1
  O  O9  1  0.37405800  0.16735500  0.30292900  1
  O  O10  1  0.35924600  0.03042800  0.36801300  1
  O  O11  1  0.67598900  0.26535300  0.63862600  1
  O  O12  1  0.59544100  0.19232000  0.73212600  1
  O  O13  1  0.70141900  0.99886900  0.63624200  1
  O  O14  1  0.55899200  0.97551200  0.68994200  1
