# Generated by REPEAT Assigner based on pymatgen
data_DB0-m2_o11_o20_f0_nbo.sym.25
_audit_creation_date              2022-05-24
_audit_creation_method            REPEAT_Assigner
_cell_length_a                    31.273117
_cell_length_b                    31.007055
_cell_length_c                    21.280237
_cell_angle_alpha                 90.000000
_cell_angle_beta                  137.270816
_cell_angle_gamma                 90.000000
_cell_volume                      14001.666083
_symmetry_space_group_name_H-M    P1
_symmetry_Int_Tables_number       1
loop_
    _symmetry_equiv_pos_site_id
    _symmetry_equiv_pos_as_xyz
    1  x,y,z
loop_
    _atom_site_type_symbol
    _atom_site_label
    _atom_site_fract_x
    _atom_site_fract_y
    _atom_site_fract_z
    _atom_type_partial_charge
    O   O1    0.815832  0.772574  0.494016  -0.563242
    O   O2    0.184168  0.227426  0.505984  -0.563241
    O   O3    0.184168  0.772574  0.505984  -0.563232
    O   O4    0.815832  0.227426  0.494016  -0.563266
    O   O5    0.315832  0.272574  0.494016  -0.563272
    O   O6    0.684168  0.727426  0.505984  -0.563248
    O   O7    0.684168  0.272574  0.505984  -0.563248
    O   O8    0.315832  0.727426  0.494016  -0.563244
    O   O9    0.765626  0.821452  0.504417  -0.594091
    O   O10   0.234374  0.178548  0.495583  -0.594024
    O   O11   0.234374  0.821452  0.495583  -0.594003
    O   O12   0.765626  0.178548  0.504417  -0.594082
    O   O13   0.265626  0.321452  0.504417  -0.594089
    O   O14   0.734374  0.678548  0.495583  -0.594012
    O   O15   0.734374  0.321452  0.495583  -0.594019
    O   O16   0.265626  0.678548  0.504417  -0.594050
    C   C1    0.803533  0.812189  0.498562  0.698161
    C   C2    0.196467  0.187811  0.501438  0.698229
    C   C3    0.196467  0.812189  0.501438  0.698159
    C   C4    0.803533  0.187811  0.498562  0.698323
    C   C5    0.303533  0.312189  0.498562  0.698343
    C   C6    0.696467  0.687811  0.501438  0.698231
    C   C7    0.696467  0.312189  0.501438  0.698247
    C   C8    0.303533  0.687811  0.498562  0.698228
    O   O17   0.710160  0.727080  0.363992  -0.589527
    O   O18   0.289840  0.272920  0.636009  -0.589540
    O   O19   0.289840  0.727080  0.636009  -0.589511
    O   O20   0.710160  0.272920  0.363992  -0.589514
    O   O21   0.210160  0.227080  0.363991  -0.589516
    O   O22   0.789840  0.772920  0.636009  -0.589565
    O   O23   0.789840  0.227080  0.636009  -0.589535
    O   O24   0.210160  0.772920  0.363992  -0.589521
    O   O25   0.653750  0.773355  0.366769  -0.602748
    O   O26   0.346251  0.226645  0.633231  -0.602687
    O   O27   0.346251  0.773355  0.633231  -0.602668
    O   O28   0.653750  0.226645  0.366769  -0.602694
    O   O29   0.153750  0.273355  0.366769  -0.602712
    O   O30   0.846251  0.726645  0.633231  -0.602679
    O   O31   0.846251  0.273355  0.633231  -0.602678
    O   O32   0.153750  0.726645  0.366769  -0.602682
    C   C9    0.660133  0.750379  0.322287  0.825309
    C   C10   0.339867  0.249621  0.677713  0.825217
    C   C11   0.339867  0.750379  0.677713  0.825084
    C   C12   0.660133  0.249621  0.322287  0.825082
    C   C13   0.160133  0.250379  0.322287  0.825232
    C   C14   0.839867  0.749621  0.677713  0.825282
    C   C15   0.839867  0.250379  0.677713  0.825162
    C   C16   0.160133  0.749621  0.322287  0.825117
    Cu  Cu1   0.781285  0.721713  0.498462  0.999882
    Cu  Cu2   0.218715  0.278287  0.501538  0.999836
    Cu  Cu3   0.218715  0.721713  0.501538  0.999843
    Cu  Cu4   0.781285  0.278287  0.498462  0.999698
    Cu  Cu5   0.281285  0.221713  0.498462  0.999766
    Cu  Cu6   0.718715  0.778287  0.501538  0.999845
    Cu  Cu7   0.718715  0.221713  0.501538  0.999844
    Cu  Cu8   0.281285  0.778287  0.498462  0.999635
    C   C17   0.610205  0.751018  0.222936  -0.238120
    C   C18   0.389795  0.248982  0.777065  -0.238080
    C   C19   0.389795  0.751018  0.777065  -0.237996
    C   C20   0.610205  0.248982  0.222935  -0.237889
    C   C21   0.110205  0.251018  0.222935  -0.238115
    C   C22   0.889795  0.748982  0.777065  -0.238140
    C   C23   0.889795  0.251018  0.777065  -0.238050
    C   C24   0.110205  0.748982  0.222936  -0.238029
    C   C25   0.568755  0.751374  0.139492  0.104799
    C   C26   0.431245  0.248626  0.860508  0.104797
    C   C27   0.431245  0.751374  0.860508  0.104724
    C   C28   0.568755  0.248626  0.139492  0.104620
    C   C29   0.068755  0.251374  0.139492  0.104828
    C   C30   0.931245  0.748626  0.860508  0.104846
    C   C31   0.931245  0.251374  0.860508  0.104781
    C   C32   0.068755  0.748626  0.139492  0.104745
    C   C33   0.520532  0.751583  0.041720  -0.014527
    C   C34   0.479468  0.248417  0.958281  -0.014570
    C   C35   0.479468  0.751583  0.958281  -0.014489
    C   C36   0.520532  0.248417  0.041720  -0.014422
    C   C37   0.020532  0.251583  0.041720  -0.014550
    C   C38   0.979468  0.748417  0.958281  -0.014565
    C   C39   0.979468  0.251583  0.958281  -0.014513
    C   C40   0.020532  0.748417  0.041720  -0.014485
    C   C41   0.891006  0.877505  0.469462  -0.022867
    C   C42   0.108995  0.122495  0.530538  -0.022908
    C   C43   0.108995  0.877505  0.530538  -0.022834
    C   C44   0.891006  0.122495  0.469462  -0.022855
    C   C45   0.391006  0.377505  0.469462  -0.022900
    C   C46   0.608995  0.622495  0.530538  -0.022869
    C   C47   0.608995  0.377505  0.530538  -0.022872
    C   C48   0.391006  0.622495  0.469462  -0.022843
    C   C49   0.931093  0.906188  0.537832  -0.088963
    C   C50   0.068907  0.093812  0.462169  -0.088857
    C   C51   0.068907  0.906188  0.462169  -0.088956
    C   C52   0.931093  0.093812  0.537832  -0.088980
    C   C53   0.431093  0.406188  0.537832  -0.088848
    C   C54   0.568907  0.593812  0.462169  -0.088950
    C   C55   0.568907  0.406188  0.462169  -0.088884
    C   C56   0.431093  0.593812  0.537832  -0.088994
    H   H1    0.880537  0.879348  0.408400  0.149068
    H   H2    0.119463  0.120652  0.591600  0.149067
    H   H3    0.119464  0.879348  0.591600  0.149046
    H   H4    0.880537  0.120652  0.408400  0.149052
    H   H5    0.380537  0.379348  0.408400  0.149071
    H   H6    0.619463  0.620652  0.591600  0.149063
    H   H7    0.619463  0.379348  0.591600  0.149061
    H   H8    0.380537  0.620652  0.408400  0.149063
    C   C57   0.862483  0.841596  0.473810  -0.085462
    C   C58   0.137517  0.158404  0.526190  -0.085275
    C   C59   0.137517  0.841596  0.526190  -0.085314
    C   C60   0.862483  0.158404  0.473810  -0.085275
    C   C61   0.362483  0.341596  0.473810  -0.085291
    C   C62   0.637517  0.658404  0.526190  -0.085286
    C   C63   0.637517  0.341596  0.526190  -0.085293
    C   C64   0.362483  0.658404  0.473810  -0.085305
    C   C65   0.833744  0.847963  0.497794  -0.209944
    C   C66   0.166256  0.152037  0.502206  -0.210236
    C   C67   0.166256  0.847963  0.502206  -0.210193
    C   C68   0.833744  0.152037  0.497794  -0.210278
    C   C69   0.333744  0.347963  0.497794  -0.210298
    C   C70   0.666256  0.652037  0.502206  -0.210213
    C   C71   0.666256  0.347963  0.502206  -0.210245
    C   C72   0.333744  0.652037  0.497794  -0.210218
    H   H9    0.859769  0.810386  0.448147  0.156727
    H   H10   0.140231  0.189614  0.551853  0.156676
    H   H11   0.140231  0.810386  0.551853  0.156694
    H   H12   0.859769  0.189614  0.448147  0.156682
    H   H13   0.359769  0.310386  0.448147  0.156694
    H   H14   0.640231  0.689614  0.551853  0.156664
    H   H15   0.640231  0.310386  0.551853  0.156679
    H   H16   0.359769  0.689614  0.448147  0.156685
    H   H17   0.830935  0.880142  0.514465  0.162365
    H   H18   0.169065  0.119858  0.485536  0.162447
    H   H19   0.169065  0.880142  0.485536  0.162432
    H   H20   0.830935  0.119858  0.514465  0.162459
    H   H21   0.330935  0.380142  0.514465  0.162473
    H   H22   0.669065  0.619858  0.485536  0.162425
    H   H23   0.669065  0.380142  0.485536  0.162443
    H   H24   0.330935  0.619858  0.514465  0.162440
    O   O33   0.421144  0.545615  0.439696  -0.579282
    O   O34   0.578857  0.454385  0.560304  -0.579302
    O   O35   0.578857  0.545615  0.560304  -0.579299
    O   O36   0.421144  0.454385  0.439696  -0.579280
    O   O37   0.921144  0.045615  0.439696  -0.579266
    O   O38   0.078857  0.954385  0.560304  -0.579320
    O   O39   0.078857  0.045615  0.560304  -0.579309
    O   O40   0.921144  0.954385  0.439696  -0.579281
    O   O41   0.511217  0.543084  0.597401  -0.474867
    O   O42   0.488783  0.456916  0.402599  -0.474859
    O   O43   0.488783  0.543084  0.402599  -0.474883
    O   O44   0.511217  0.456916  0.597401  -0.474843
    O   O45   0.011217  0.043084  0.597401  -0.474886
    O   O46   0.988783  0.956916  0.402599  -0.474869
    O   O47   0.988783  0.043084  0.402599  -0.474864
    O   O48   0.011217  0.956916  0.597401  -0.474896
    C   C73   0.455284  0.558785  0.524286  0.571790
    C   C74   0.544717  0.441215  0.475714  0.571772
    C   C75   0.544717  0.558785  0.475714  0.571795
    C   C76   0.455284  0.441215  0.524286  0.571722
    C   C77   0.955284  0.058785  0.524286  0.571772
    C   C78   0.044717  0.941215  0.475714  0.571789
    C   C79   0.044717  0.058785  0.475714  0.571746
    C   C80   0.955284  0.941215  0.524286  0.571750
    Cu  Cu9   0.446763  0.500000  0.409417  0.961834
    Cu  Cu10  0.553237  0.500000  0.590583  0.961699
    Cu  Cu11  0.946763  0.000000  0.409417  0.961800
    Cu  Cu12  0.053237  0.000000  0.590583  0.961597
    N   N1    0.955738  0.901174  0.626706  0.571373
    O   O49   0.970580  0.863095  0.663674  -0.331168
    O   O50   0.974576  0.935011  0.677868  -0.325423
    N   N2    0.044262  0.098826  0.373294  0.571207
    O   O51   0.025424  0.064989  0.322132  -0.325338
    O   O52   0.029420  0.136905  0.336327  -0.331142
    N   N3    0.044262  0.901174  0.373294  0.571321
    O   O53   0.029420  0.863095  0.336327  -0.331164
    O   O54   0.025424  0.935011  0.322132  -0.325394
    N   N4    0.955738  0.098826  0.626706  0.571355
    O   O55   0.974576  0.064989  0.677868  -0.325371
    O   O56   0.970580  0.136905  0.663674  -0.331198
    N   N5    0.455738  0.401174  0.626706  0.571196
    O   O57   0.470580  0.363095  0.663674  -0.331137
    O   O58   0.474576  0.435011  0.677868  -0.325345
    N   N6    0.544262  0.598826  0.373294  0.571337
    O   O59   0.525424  0.564989  0.322132  -0.325375
    O   O60   0.529420  0.636905  0.336327  -0.331198
    N   N7    0.544262  0.401174  0.373294  0.571230
    O   O61   0.529420  0.363095  0.336327  -0.331151
    O   O62   0.525424  0.435011  0.322132  -0.325350
    N   N8    0.455738  0.598826  0.626706  0.571400
    O   O63   0.474576  0.564989  0.677868  -0.325400
    O   O64   0.470580  0.636905  0.663674  -0.331210
