# generated using pymatgen
data_ZnH5C12I2NO4
_symmetry_space_group_name_H-M   'P 1'
_cell_length_a   8.54180900
_cell_length_b   9.16940100
_cell_length_c   13.12041100
_cell_angle_alpha   90.60052100
_cell_angle_beta   93.50324900
_cell_angle_gamma   90.53822400
_symmetry_Int_Tables_number   1
_chemical_formula_structural   ZnH5C12I2NO4
_chemical_formula_sum   'Zn2 H10 C24 I4 N2 O8'
_cell_volume   1025.60504485
_cell_formula_units_Z   2
loop_
 _symmetry_equiv_pos_site_id
 _symmetry_equiv_pos_as_xyz
  1  'x, y, z'
loop_
 _atom_site_type_symbol
 _atom_site_label
 _atom_site_symmetry_multiplicity
 _atom_site_fract_x
 _atom_site_fract_y
 _atom_site_fract_z
 _atom_site_occupancy
  Zn  Zn1  1  0.49871500  0.83733800  0.50371900  1
  Zn  Zn2  1  0.50128500  0.16266200  0.49628100  1
  H  H1  1  0.21684500  0.02492100  0.15380000  1
  H  H2  1  0.78315500  0.97507900  0.84620000  1
  H  H3  1  0.84426700  0.08107600  0.99637900  1
  H  H4  1  0.15573300  0.91892400  0.00362200  1
  H  H5  1  0.99666800  0.94304600  0.42812800  1
  H  H6  1  0.00333200  0.05695400  0.57187200  1
  H  H7  1  0.24416100  0.39538700  0.48217700  1
  H  H8  1  0.75583900  0.60461300  0.51782400  1
  H  H9  1  0.37406000  0.60247200  0.35172700  1
  H  H10  1  0.62594000  0.39752800  0.64827400  1
  C  C1  1  0.84280800  0.98710500  0.29969400  1
  C  C2  1  0.15719200  0.01289500  0.70030700  1
  C  C3  1  0.83006200  0.01184600  0.19623100  1
  C  C4  1  0.16993800  0.98815400  0.80376900  1
  C  C5  1  0.96386400  0.01459500  0.14155400  1
  C  C6  1  0.03613600  0.98540500  0.85844600  1
  C  C7  1  0.11079000  0.00927700  0.19327000  1
  C  C8  1  0.88921000  0.99072300  0.80673000  1
  C  C9  1  0.12174700  0.98663800  0.29733900  1
  C  C10  1  0.87825300  0.01336200  0.70266100  1
  C  C11  1  0.98766300  0.96656600  0.34801400  1
  C  C12  1  0.01233700  0.03343400  0.65198600  1
  C  C13  1  0.94698400  0.02769500  0.02992900  1
  C  C14  1  0.05301600  0.97230500  0.97007100  1
  C  C15  1  0.70736200  0.99158400  0.36206100  1
  C  C16  1  0.29263800  0.00841600  0.63794000  1
  C  C17  1  0.72938800  0.00788000  0.64133100  1
  C  C18  1  0.27061200  0.99212000  0.35866900  1
  C  C19  1  0.43229900  0.55480700  0.42128100  1
  C  C20  1  0.56770100  0.44519300  0.57872000  1
  C  C21  1  0.36333000  0.44477700  0.49048900  1
  C  C22  1  0.63667000  0.55522300  0.50951200  1
  C  C23  1  0.57202700  0.45726300  0.42468800  1
  C  C24  1  0.42797300  0.54273700  0.57531200  1
  I  I1  1  0.60560600  0.03509800  0.12268500  1
  I  I2  1  0.39439400  0.96490200  0.87731600  1
  I  I3  1  0.69287400  0.38809000  0.29543200  1
  I  I4  1  0.30712700  0.61191000  0.70456800  1
  N  N1  1  0.50345500  0.35417600  0.49352700  1
  N  N2  1  0.49654500  0.64582400  0.50647400  1
  O  O1  1  0.66161100  0.11961400  0.39387000  1
  O  O2  1  0.33839000  0.88038600  0.60613100  1
  O  O3  1  0.65440200  0.86799000  0.39641800  1
  O  O4  1  0.34559800  0.13201000  0.60358200  1
  O  O5  1  0.67626200  0.87967600  0.60853600  1
  O  O6  1  0.32373800  0.12032400  0.39146400  1
  O  O7  1  0.67313700  0.13115200  0.60578200  1
  O  O8  1  0.32686300  0.86884800  0.39421800  1
