# generated using pymatgen
data_V4H45C66NO20
_symmetry_space_group_name_H-M   'P 1'
_cell_length_a   6.32418500
_cell_length_b   16.83686100
_cell_length_c   19.92745700
_cell_angle_alpha   67.50898400
_cell_angle_beta   90.85818300
_cell_angle_gamma   90.99751200
_symmetry_Int_Tables_number   1
_chemical_formula_structural   V4H45C66NO20
_chemical_formula_sum   'V4 H45 C66 N1 O20'
_cell_volume   1960.09758050
_cell_formula_units_Z   1
loop_
 _symmetry_equiv_pos_site_id
 _symmetry_equiv_pos_as_xyz
  1  'x, y, z'
loop_
 _atom_site_type_symbol
 _atom_site_label
 _atom_site_symmetry_multiplicity
 _atom_site_fract_x
 _atom_site_fract_y
 _atom_site_fract_z
 _atom_site_occupancy
  V  V1  1  0.92842100  0.49324100  0.00380400  1
  V  V2  1  0.42926200  0.51376200  0.00007300  1
  V  V3  1  0.32857600  0.01288900  0.50023000  1
  V  V4  1  0.82820500  0.99200800  0.50370600  1
  H  H1  1  0.90684300  0.70211000  0.36340500  1
  H  H2  1  0.00249500  0.61208000  0.30822500  1
  H  H3  1  0.46786400  0.73907400  0.21421500  1
  H  H4  1  0.39098800  0.63445100  0.27965900  1
  H  H5  1  0.45919900  0.78156000  0.30935300  1
  H  H6  1  0.93322500  0.80948300  0.14433200  1
  H  H7  1  0.21053400  0.82505800  0.12025200  1
  H  H8  1  0.99909700  0.90345100  0.19978500  1
  H  H9  1  0.81100200  0.67020900  0.23899400  1
  H  H10  1  0.78699200  0.77799700  0.28113400  1
  H  H11  1  0.28278600  0.88958200  0.20003100  1
  H  H12  1  0.33136500  0.51697300  0.69901800  1
  H  H13  1  0.06716900  0.72939800  0.93116300  1
  H  H14  1  0.95915100  0.86995600  0.92362600  1
  H  H15  1  0.92459600  0.98910500  0.80499400  1
  H  H16  1  0.00021600  0.96643600  0.69389500  1
  H  H17  1  0.18894100  0.77675600  0.57291100  1
  H  H18  1  0.29691700  0.63617200  0.58039500  1
  H  H19  1  0.25571900  0.53960500  0.81013900  1
  H  H20  1  0.50988500  0.49949600  0.30127800  1
  H  H21  1  0.68940800  0.27175100  0.07407400  1
  H  H22  1  0.74884500  0.12601800  0.08362800  1
  H  H23  1  0.74783500  0.00661500  0.20287000  1
  H  H24  1  0.68523700  0.03440500  0.31261000  1
  H  H25  1  0.56810300  0.23433500  0.43003400  1
  H  H26  1  0.50878200  0.38006900  0.42051000  1
  H  H27  1  0.57247700  0.47173800  0.19153700  1
  H  H28  1  0.87645600  0.37756600  0.72512100  1
  H  H29  1  0.80661700  0.31858400  0.64159000  1
  H  H30  1  0.29023300  0.22300900  0.71708900  1
  H  H31  1  0.41468100  0.30199600  0.63764500  1
  H  H32  1  0.49062900  0.39210700  0.69579400  1
  H  H33  1  0.30101600  0.32790300  0.76278100  1
  H  H34  1  0.78486200  0.11834700  0.80549200  1
  H  H35  1  0.50184700  0.10114800  0.80205900  1
  H  H36  1  0.70773500  0.18222000  0.88411400  1
  H  H37  1  0.96475700  0.22931300  0.69976400  1
  H  H38  1  0.96366700  0.27620200  0.79275300  1
  H  H39  1  0.43026000  0.19226100  0.85846700  1
  H  H40  1  0.29411300  0.61330200  0.38050900  1
  H  H41  1  0.48142100  0.54915100  0.48707900  1
  H  H42  1  0.72611600  0.56536400  0.57820900  1
  H  H43  1  0.81602900  0.70946600  0.57505800  1
  H  H44  1  0.65968300  0.83728300  0.48115300  1
  H  H45  1  0.41354900  0.82137000  0.39062500  1
  C  C1  1  0.63187200  0.39521500  0.11586600  1
  C  C2  1  0.66069000  0.43943900  0.91837100  1
  C  C3  1  0.16827900  0.61176900  0.88784100  1
  C  C4  1  0.14174900  0.56702900  0.08553200  1
  C  C5  1  0.95944200  0.67596800  0.26722400  1
  C  C6  1  0.34418800  0.70269100  0.25328700  1
  C  C7  1  0.31776200  0.74154800  0.30983000  1
  C  C8  1  0.11167400  0.88882300  0.37413900  1
  C  C9  1  0.13667700  0.70926500  0.21285700  1
  C  C10  1  0.92831100  0.73836600  0.30430500  1
  C  C11  1  0.12153000  0.79639700  0.29133900  1
  C  C12  1  0.12743600  0.85576700  0.21198500  1
  C  C13  1  0.09744000  0.80267900  0.16593200  1
  C  C14  1  0.11388100  0.84700700  0.33676900  1
  C  C15  1  0.14428200  0.65866000  0.16742700  1
  C  C16  1  0.14637400  0.61688000  0.13002800  1
  C  C17  1  0.04596100  0.77922100  0.87824700  1
  C  C18  1  0.98723800  0.85928500  0.87436800  1
  C  C19  1  0.96803200  0.92602200  0.80798000  1
  C  C20  1  0.00883400  0.91279500  0.74543200  1
  C  C21  1  0.06522600  0.83239800  0.74883800  1
  C  C22  1  0.08240100  0.76486600  0.81545600  1
  C  C23  1  0.11155300  0.82109200  0.68551700  1
  C  C24  1  0.17354400  0.74117500  0.68861400  1
  C  C25  1  0.19067700  0.67363900  0.75521900  1
  C  C26  1  0.14442900  0.68493500  0.81854900  1
  C  C27  1  0.21007200  0.72687000  0.62581000  1
  C  C28  1  0.26877700  0.64681500  0.62966300  1
  C  C29  1  0.28791600  0.58005300  0.69604400  1
  C  C30  1  0.24709200  0.59325400  0.75860700  1
  C  C31  1  0.69576000  0.22151000  0.12732300  1
  C  C32  1  0.72673000  0.13862400  0.13231800  1
  C  C33  1  0.72595600  0.07174300  0.19904500  1
  C  C34  1  0.69248800  0.08770600  0.26079200  1
  C  C35  1  0.66357400  0.17075000  0.25627700  1
  C  C36  1  0.66734700  0.23836400  0.18938500  1
  C  C37  1  0.62364800  0.18485000  0.31880200  1
  C  C38  1  0.59005300  0.26775000  0.31471700  1
  C  C39  1  0.59384000  0.33536800  0.24782900  1
  C  C40  1  0.63363900  0.32126200  0.18529600  1
  C  C41  1  0.56173400  0.28459100  0.37678900  1
  C  C42  1  0.53083700  0.36747300  0.37181200  1
  C  C43  1  0.53166300  0.43436600  0.30509200  1
  C  C44  1  0.56508600  0.41841600  0.24333700  1
  C  C45  1  0.59535900  0.06712000  0.58558700  1
  C  C46  1  0.62513300  0.11089200  0.38823300  1
  C  C47  1  0.11605200  0.93874100  0.41858200  1
  C  C48  1  0.08814500  0.89423800  0.61620000  1
  C  C49  1  0.82140200  0.26760600  0.69669600  1
  C  C50  1  0.43133700  0.26504600  0.69692600  1
  C  C51  1  0.45201600  0.32670200  0.73561700  1
  C  C52  1  0.63992400  0.38903800  0.87452400  1
  C  C53  1  0.62697700  0.21000100  0.71237000  1
  C  C54  1  0.83779300  0.30815300  0.75260000  1
  C  C55  1  0.62848100  0.29677600  0.79141200  1
  C  C56  1  0.59444300  0.20251400  0.83778300  1
  C  C57  1  0.62936100  0.15034100  0.79169500  1
  C  C58  1  0.63130600  0.34717000  0.83716900  1
  C  C59  1  0.62423700  0.15954400  0.66666667  1
  C  C60  1  0.61580300  0.11760800  0.62937100  1
  C  C61  1  0.43461700  0.68416200  0.43255000  1
  C  C62  1  0.52086000  0.61249700  0.48566300  1
  C  C63  1  0.65812700  0.62157400  0.53675000  1
  C  C64  1  0.70858300  0.70234100  0.53497100  1
  C  C65  1  0.62114900  0.77400100  0.48226000  1
  C  C66  1  0.48394400  0.76498700  0.43111400  1
  N  N1  1  0.29438500  0.67438900  0.38054400  1
  O  O1  1  0.54539500  0.41953700  0.97662300  1
  O  O2  1  0.74906000  0.39360800  0.06154600  1
  O  O3  1  0.97223200  0.51776400  0.09197000  1
  O  O4  1  0.83646200  0.48265500  0.91245400  1
  O  O5  1  0.05232900  0.60589700  0.94331600  1
  O  O6  1  0.46969200  0.44715500  0.10460700  1
  O  O7  1  0.65711600  0.56844500  0.99149800  1
  O  O8  1  0.33936700  0.56693800  0.89733700  1
  O  O9  1  0.25664100  0.59509800  0.02539400  1
  O  O10  1  0.15201700  0.43802400  0.01493800  1
  O  O11  1  0.78745500  0.05902100  0.39960800  1
  O  O12  1  0.41988100  0.02377600  0.59152200  1
  O  O13  1  0.20502200  0.90022600  0.56089800  1
  O  O14  1  0.50771900  0.11256100  0.44244000  1
  O  O15  1  0.28544500  0.98805200  0.41218100  1
  O  O16  1  0.71074500  0.08697600  0.52738300  1
  O  O17  1  0.60009700  0.93776000  0.51279900  1
  O  O18  1  0.00169600  0.91058800  0.47880300  1
  O  O19  1  0.91746800  0.93930500  0.60653300  1
  O  O20  1  0.10484900  0.06804800  0.48887400  1
