# Generated by REPEAT Assigner based on pymatgen
data_DB0-m3_o115_o159_f0_fsc.sym.29
_audit_creation_date              2022-05-24
_audit_creation_method            REPEAT_Assigner
_cell_length_a                    13.628651
_cell_length_b                    16.451822
_cell_length_c                    16.768362
_cell_angle_alpha                 90.000000
_cell_angle_beta                  99.086678
_cell_angle_gamma                 90.000000
_cell_volume                      3712.554502
_symmetry_space_group_name_H-M    P1
_symmetry_Int_Tables_number       1
loop_
    _symmetry_equiv_pos_site_id
    _symmetry_equiv_pos_as_xyz
    1  x,y,z
loop_
    _atom_site_type_symbol
    _atom_site_label
    _atom_site_fract_x
    _atom_site_fract_y
    _atom_site_fract_z
    _atom_type_partial_charge
    H   H1   0.090300  0.916881  0.726130  0.150687
    H   H2   0.909701  0.916881  0.273870  0.150677
    C   C1   0.005089  0.255509  0.959947  -0.297780
    C   C2   0.994912  0.255509  0.040054  -0.297759
    C   C3   0.992048  0.174955  0.063127  0.470304
    C   C4   0.007953  0.174955  0.936874  0.470318
    N   N1   0.000000  0.125944  0.000000  -0.604136
    C   C5   0.980270  0.149924  0.137325  -0.270581
    C   C6   0.019731  0.149924  0.862676  -0.270559
    C   C7   0.968973  0.063371  0.159652  0.207330
    C   C8   0.031028  0.063371  0.840348  0.207287
    C   C9   0.933221  0.038518  0.228423  -0.223646
    C   C10  0.066780  0.038518  0.771577  -0.223602
    C   C11  0.933717  0.954995  0.228174  -0.245742
    C   C12  0.066284  0.954995  0.771827  -0.245807
    C   C13  0.970053  0.931167  0.159520  0.218782
    C   C14  0.029948  0.931167  0.840481  0.218924
    N   N2   0.993477  0.997471  0.118856  -0.173120
    N   N3   0.006524  0.997471  0.881145  -0.173165
    C   C15  0.982168  0.844929  0.137419  -0.305883
    C   C16  0.017833  0.844929  0.862582  -0.306049
    C   C17  0.993131  0.819704  0.063272  0.486421
    C   C18  0.006870  0.819704  0.936729  0.486459
    C   C19  0.996036  0.739144  0.040359  -0.314667
    C   C20  0.003965  0.739144  0.959642  -0.314631
    N   N4   0.000001  0.868709  0.000000  -0.608758
    H   H3   0.011098  0.309562  0.924411  0.149013
    H   H4   0.988903  0.309562  0.075589  0.149007
    H   H5   0.909068  0.075509  0.274800  0.155415
    H   H6   0.090933  0.075509  0.725201  0.155409
    H   H7   0.991491  0.685384  0.076673  0.159146
    H   H8   0.008510  0.685384  0.923328  0.159138
    H   H9   0.031080  0.997637  0.069704  0.222381
    H   H10  0.968921  0.997637  0.930297  0.222402
    C   C21  0.930726  0.753284  0.759864  -0.201773
    C   C22  0.069275  0.753284  0.240137  -0.201739
    H   H11  0.861442  0.774344  0.776204  0.112365
    H   H12  0.138559  0.774344  0.223796  0.112349
    C   C23  0.929829  0.696197  0.699813  -0.138795
    C   C24  0.070172  0.696197  0.300188  -0.138799
    C   C25  0.017878  0.669185  0.677693  -0.088467
    C   C26  0.982123  0.669185  0.322307  -0.088453
    C   C27  0.107136  0.699244  0.717630  -0.090251
    C   C28  0.892865  0.699244  0.282371  -0.090261
    H   H13  0.176965  0.678763  0.701933  0.101500
    H   H14  0.823036  0.678762  0.298068  0.101502
    C   C29  0.107774  0.756028  0.778521  -0.192885
    C   C30  0.892227  0.756028  0.221480  -0.192851
    H   H15  0.177629  0.779390  0.809558  0.106459
    H   H16  0.822372  0.779390  0.190442  0.106442
    C   C31  0.019381  0.783601  0.799256  0.308665
    C   C32  0.980620  0.783601  0.200744  0.308584
    C   C33  0.106861  0.231527  0.769941  -0.182233
    C   C34  0.893140  0.231527  0.230059  -0.182261
    H   H17  0.175696  0.200961  0.793086  0.110221
    H   H18  0.824305  0.200961  0.206915  0.110226
    C   C35  0.104945  0.288817  0.709352  -0.048030
    C   C36  0.895056  0.288817  0.290649  -0.047993
    H   H19  0.172335  0.301515  0.685255  0.076433
    H   H20  0.827666  0.301515  0.314745  0.076429
    C   C37  0.017365  0.328743  0.679881  -0.170317
    C   C38  0.982636  0.328743  0.320119  -0.170455
    C   C39  0.933344  0.312492  0.713532  0.002734
    C   C40  0.066657  0.312492  0.286468  0.002888
    H   H21  0.866122  0.346582  0.695960  0.070870
    H   H22  0.133879  0.346582  0.304041  0.070821
    C   C41  0.934335  0.253258  0.771441  -0.194976
    C   C42  0.065666  0.253258  0.228560  -0.195042
    H   H23  0.867230  0.240124  0.795839  0.113170
    H   H24  0.132771  0.240124  0.204161  0.113176
    C   C43  0.020758  0.211981  0.799653  0.224354
    C   C44  0.979243  0.211981  0.200347  0.224397
    H   H25  0.141037  0.673222  0.329209  0.150845
    H   H26  0.858964  0.673222  0.670792  0.150847
    O   O1   0.926829  0.582684  0.578979  -0.608553
    O   O2   0.073172  0.582684  0.421021  -0.608488
    O   O3   0.098463  0.581959  0.592409  -0.692076
    O   O4   0.901538  0.581959  0.407592  -0.692057
    C   C45  0.014749  0.608376  0.613184  0.733453
    C   C46  0.985252  0.608376  0.386817  0.733400
    O   O5   0.095071  0.414722  0.592618  -0.674730
    O   O6   0.904930  0.414722  0.407383  -0.674744
    O   O7   0.924613  0.414257  0.580383  -0.663846
    O   O8   0.075388  0.414257  0.419617  -0.663986
    C   C47  0.012358  0.388397  0.614191  0.777808
    C   C48  0.987643  0.388397  0.385810  0.777965
    Zn  Zn1  0.111339  0.497762  0.507176  1.009462
    Zn  Zn2  0.888662  0.497762  0.492825  1.009422
    C   C49  0.705202  0.425299  0.490493  -0.179733
    C   C50  0.294799  0.425299  0.509507  -0.179777
    N   N5   0.757955  0.497002  0.487552  -0.125100
    N   N6   0.242046  0.497002  0.512448  -0.125046
    C   C51  0.704249  0.568079  0.485405  0.179717
    C   C52  0.295752  0.568079  0.514596  0.179632
    C   C53  0.603137  0.567678  0.486491  -0.258510
    C   C54  0.396864  0.567678  0.513510  -0.258436
    C   C55  0.550926  0.497692  0.495703  0.107249
    C   C56  0.449075  0.497692  0.504298  0.107136
    C   C57  0.602091  0.425997  0.493515  0.157863
    C   C58  0.397910  0.425997  0.506486  0.158011
    C   C59  0.451126  0.354360  0.504114  -0.248601
    C   C60  0.548875  0.354360  0.495886  -0.248310
    H   H27  0.420986  0.294416  0.508212  0.166595
    H   H28  0.579015  0.294416  0.491788  0.166465
    H   H29  0.566776  0.625670  0.478685  0.127076
    H   H30  0.433225  0.625670  0.521316  0.127059
    C   C61  0.744609  0.653046  0.482749  0.277752
    O   O9   0.714722  0.698755  0.544747  -0.557212
    H   H31  0.711863  0.680582  0.424185  -0.010169
    H   H32  0.824723  0.659738  0.488312  0.023906
    H   H33  0.697189  0.752563  0.520120  0.347147
    C   C62  0.255392  0.653046  0.517252  0.277774
    O   O10  0.285279  0.698755  0.455253  -0.557203
    H   H34  0.288139  0.680582  0.575816  -0.010160
    H   H35  0.175278  0.659738  0.511689  0.023881
    H   H36  0.302812  0.752563  0.479880  0.347138
    C   C63  0.247560  0.341577  0.507799  0.469134
    O   O11  0.255694  0.301786  0.435511  -0.633125
    H   H37  0.170156  0.338308  0.514256  0.035427
    H   H38  0.284729  0.305577  0.559870  -0.008634
    H   H39  0.268731  0.345376  0.397937  0.396165
    C   C64  0.752441  0.341577  0.492202  0.469131
    O   O12  0.744307  0.301786  0.564489  -0.633079
    H   H40  0.829845  0.338308  0.485745  0.035392
    H   H41  0.715272  0.305577  0.440130  -0.008619
    H   H42  0.731270  0.345376  0.602064  0.396127
