# Generated by REPEAT Assigner based on pymatgen
data_DB0-m9_o7_o13_f0_sra.sym.76_sqe
_audit_creation_date              2022-05-24
_audit_creation_method            REPEAT_Assigner
_cell_length_a                    6.322982
_cell_length_b                    20.597248
_cell_length_c                    21.542738
_cell_angle_alpha                 108.795068
_cell_angle_beta                  90.498714
_cell_angle_gamma                 90.516809
_cell_volume                      2655.727537
_symmetry_space_group_name_H-M    P1
_symmetry_Int_Tables_number       1
loop_
    _symmetry_equiv_pos_site_id
    _symmetry_equiv_pos_as_xyz
    1  x,y,z
loop_
    _atom_site_type_symbol
    _atom_site_label
    _atom_site_fract_x
    _atom_site_fract_y
    _atom_site_fract_z
    _atom_type_partial_charge
    O  O1   0.489760  0.425290  0.521795  -0.361769
    O  O2   0.285969  0.412673  0.445634  -0.436224
    O  O3   0.073072  0.518643  0.422432  -0.536505
    C  C1   0.409418  0.418672  0.397895  0.593373
    O  O4   0.200731  0.471000  0.580826  -0.550971
    O  O5   0.994945  0.576202  0.557118  -0.370738
    C  C2   0.372861  0.435570  0.574051  0.567292
    O  O6   0.569617  0.462125  0.409097  -0.502050
    O  O7   0.388750  0.550195  0.513559  -0.562147
    V  V1   0.112368  0.489208  0.499977  1.280567
    O  O8   0.704613  0.538564  0.596777  -0.529399
    C  C3   0.874729  0.576087  0.606300  0.572295
    O  O9   0.791589  0.575852  0.483974  -0.411713
    C  C4   0.906825  0.558644  0.429647  0.566577
    V  V2   0.612871  0.505832  0.503985  1.247090
    O  O10  0.885017  0.444692  0.488142  -0.551755
    C  C5   0.091107  0.800437  0.147824  -0.136585
    H  H1   0.223551  0.767731  0.148180  0.118031
    C  C6   0.096063  0.842342  0.108919  -0.100151
    H  H2   0.232493  0.842549  0.079086  0.090503
    C  C7   0.928578  0.885028  0.109430  -0.145355
    C  C8   0.754590  0.884214  0.147367  0.017890
    H  H3   0.620794  0.916158  0.146362  0.085391
    C  C9   0.749363  0.842347  0.185972  -0.137553
    H  H4   0.613065  0.842344  0.215919  0.104028
    C  C10  0.918209  0.800825  0.186767  0.186141
    C  C11  0.913100  0.758685  0.228600  -0.118694
    C  C12  0.907512  0.723788  0.264117  -0.183800
    C  C13  0.045544  0.629579  0.296735  -0.228353
    H  H5   0.159054  0.619974  0.257661  0.134628
    C  C14  0.044216  0.589597  0.337151  -0.015188
    H  H6   0.156973  0.548719  0.329659  0.084624
    C  C15  0.900550  0.601627  0.387313  -0.013137
    C  C16  0.756968  0.653938  0.396914  -0.147117
    H  H7   0.644273  0.663694  0.436220  0.119989
    C  C17  0.758346  0.694111  0.356344  -0.155933
    H  H8   0.646443  0.735244  0.363972  0.125165
    C  C18  0.903006  0.681970  0.306254  0.278946
    C  C19  0.878597  0.634519  0.666051  -0.035262
    C  C20  0.965724  0.861745  0.836500  -0.063690
    C  C21  0.124294  0.803275  0.733705  -0.294076
    C  C22  0.110448  0.860292  0.788570  -0.030493
    C  C23  0.833981  0.806345  0.829732  -0.239763
    C  C24  0.849486  0.748985  0.775177  0.217641
    C  C25  0.994918  0.747345  0.727243  0.253480
    C  C26  0.010341  0.689925  0.672679  -0.267043
    C  C27  0.734094  0.636050  0.714045  -0.039489
    C  C28  0.720177  0.693098  0.768813  -0.280763
    H  H9   0.121360  0.689109  0.634566  0.140801
    H  H10  0.629109  0.592699  0.708117  0.087831
    H  H11  0.238350  0.802058  0.696270  0.150345
    H  H12  0.606225  0.694353  0.806287  0.146733
    H  H13  0.215562  0.903633  0.794601  0.085006
    H  H14  0.722917  0.807102  0.867817  0.140189
    C  C29  0.426329  0.360814  0.338031  -0.070249
    C  C30  0.413657  0.132683  0.166264  -0.205121
    C  C31  0.240437  0.184743  0.268040  -0.477726
    C  C32  0.269316  0.128781  0.212753  0.443066
    C  C33  0.525271  0.192567  0.174193  -0.148868
    C  C34  0.491357  0.248894  0.228563  0.165073
    C  C35  0.348916  0.244896  0.275370  0.264749
    C  C36  0.315743  0.300875  0.330105  -0.199487
    C  C37  0.568561  0.364972  0.291232  -0.037425
    C  C38  0.600422  0.309161  0.236291  -0.252328
    H  H15  0.206818  0.297239  0.367279  0.128221
    H  H16  0.657389  0.411917  0.298149  0.076944
    H  H17  0.136830  0.182211  0.306695  0.226664
    H  H18  0.712620  0.312380  0.199786  0.129283
    H  H19  0.635224  0.195882  0.137155  0.123066
    C  C39  0.584303  0.139790  0.802285  -0.218582
    H  H20  0.699618  0.134449  0.764259  0.131374
    C  C40  0.594434  0.098534  0.841379  -0.028940
    H  H21  0.718102  0.060981  0.833915  0.091475
    C  C41  0.448819  0.105051  0.890268  -0.034875
    C  C42  0.291298  0.153171  0.899868  -0.128154
    H  H22  0.176951  0.158689  0.938189  0.116940
    C  C43  0.281158  0.194690  0.860571  -0.160594
    H  H23  0.158426  0.232571  0.868206  0.127330
    C  C44  0.428195  0.188075  0.811801  0.270542
    C  C45  0.421437  0.231217  0.770878  -0.161749
    C  C46  0.418293  0.266982  0.736120  -0.156655
    C  C47  0.559374  0.302617  0.646066  -0.151632
    H  H24  0.681357  0.264514  0.638628  0.126366
    C  C48  0.550024  0.343696  0.606353  -0.135732
    H  H25  0.664232  0.337608  0.567899  0.116829
    C  C49  0.393337  0.392042  0.615633  -0.026163
    C  C50  0.247776  0.399258  0.664671  -0.023970
    H  H26  0.124671  0.436966  0.671873  0.091105
    C  C51  0.257141  0.358427  0.704202  -0.219560
    H  H27  0.141797  0.364261  0.742305  0.130284
    C  C52  0.412386  0.309882  0.694954  0.264336
    O  O11  0.273613  0.030691  0.094524  -0.541254
    O  O12  0.642621  0.025497  0.923814  -0.552008
    O  O13  0.848059  0.918972  0.945331  -0.400971
    C  C53  0.470112  0.060839  0.931161  0.607182
    O  O14  0.557123  0.081240  0.059133  -0.426600
    O  O15  0.769239  0.974009  0.080149  -0.523000
    C  C54  0.432339  0.074770  0.106362  0.636399
    O  O16  0.353201  0.070169  0.983317  -0.422104
    O  O17  0.454162  0.944286  0.988966  -0.582540
    V  V3   0.730660  0.005330  0.003719  1.234064
    O  O18  0.051582  0.917634  0.017940  -0.449533
    C  C55  0.931422  0.932187  0.071190  0.674639
    O  O19  0.138269  0.957691  0.906632  -0.553575
    C  C56  0.968700  0.919879  0.896507  0.616855
    V  V4   0.230058  0.988615  0.999432  1.335303
    O  O20  0.958051  0.049846  0.016452  -0.551161
    O  O21  0.160481  0.069952  0.204029  -0.350016
    C  C57  0.984467  0.067666  0.238244  0.730554
    O  O22  0.891044  0.120104  0.266858  -0.515662
    C  C58  0.896606  0.000438  0.238229  -0.576113
    H  H28  0.991260  0.958304  0.205560  0.155256
    H  H29  0.730146  0.995710  0.220777  0.167186
    H  H30  0.901946  0.997792  0.288823  0.152423
