# generated using pymatgen
data_Cu6H38C61SO24
_symmetry_space_group_name_H-M   'P 1'
_cell_length_a   30.30545300
_cell_length_b   21.33352700
_cell_length_c   21.33682500
_cell_angle_alpha   90.00000000
_cell_angle_beta   135.24860900
_cell_angle_gamma   90.00000000
_symmetry_Int_Tables_number   1
_chemical_formula_structural   Cu6H38C61SO24
_chemical_formula_sum   'Cu12 H76 C122 S2 O48'
_cell_volume   9711.93160905
_cell_formula_units_Z   2
loop_
 _symmetry_equiv_pos_site_id
 _symmetry_equiv_pos_as_xyz
  1  'x, y, z'
loop_
 _atom_site_type_symbol
 _atom_site_label
 _atom_site_symmetry_multiplicity
 _atom_site_fract_x
 _atom_site_fract_y
 _atom_site_fract_z
 _atom_site_occupancy
  Cu  Cu1  1  0.00090100  0.49717600  0.06088200  1
  Cu  Cu2  1  0.50090100  0.99717600  0.06088200  1
  Cu  Cu3  1  0.99859900  0.49696200  0.93360000  1
  Cu  Cu4  1  0.49859900  0.99696200  0.93360000  1
  Cu  Cu5  1  0.93668100  0.99680200  0.93328200  1
  Cu  Cu6  1  0.43668100  0.49680200  0.93328200  1
  Cu  Cu7  1  0.06161700  0.99731600  0.06038200  1
  Cu  Cu8  1  0.56161700  0.49731600  0.06038200  1
  Cu  Cu9  1  0.49956500  0.56040500  0.49665500  1
  Cu  Cu10  1  0.49999100  0.43542000  0.49778400  1
  Cu  Cu11  1  0.99956500  0.06040500  0.49665500  1
  Cu  Cu12  1  0.99999100  0.93542000  0.49778400  1
  H  H1  1  0.97291100  0.78600000  0.86636800  1
  H  H2  1  0.97013900  0.20795700  0.86497000  1
  H  H3  1  0.47291100  0.28600000  0.86636800  1
  H  H4  1  0.47013900  0.70795700  0.86497000  1
  H  H5  1  0.07627400  0.70819900  0.99891300  1
  H  H6  1  0.07405300  0.28558600  0.99641300  1
  H  H7  1  0.57627400  0.20819900  0.99891300  1
  H  H8  1  0.57405300  0.78558600  0.99641300  1
  H  H9  1  0.10332200  0.78588700  0.12966400  1
  H  H10  1  0.10243500  0.20814200  0.12828600  1
  H  H11  1  0.60332200  0.28588700  0.12966400  1
  H  H12  1  0.60243500  0.70814200  0.12828600  1
  H  H13  1  0.02740300  0.70854600  0.12839900  1
  H  H14  1  0.02775800  0.28576000  0.12917200  1
  H  H15  1  0.52740300  0.20854600  0.12839900  1
  H  H16  1  0.52775800  0.78576000  0.12917200  1
  H  H17  1  0.92398700  0.78583100  0.99569800  1
  H  H18  1  0.92378900  0.20854700  0.99758500  1
  H  H19  1  0.42398700  0.28583100  0.99569800  1
  H  H20  1  0.42378900  0.70854700  0.99758500  1
  H  H21  1  0.89707100  0.70765400  0.86511000  1
  H  H22  1  0.89554200  0.28661600  0.86588200  1
  H  H23  1  0.39707100  0.20765400  0.86511000  1
  H  H24  1  0.39554200  0.78661600  0.86588200  1
  H  H25  1  0.28815100  0.52464900  0.18103000  1
  H  H26  1  0.78815100  0.02464900  0.18103000  1
  H  H27  1  0.21073100  0.42099600  0.13128600  1
  H  H28  1  0.21005200  0.60008800  0.17812300  1
  H  H29  1  0.71073100  0.92099600  0.13128600  1
  H  H30  1  0.71005200  0.10008800  0.17812300  1
  H  H31  1  0.28899400  0.39382000  0.31325100  1
  H  H32  1  0.28878900  0.57301200  0.36050800  1
  H  H33  1  0.78899400  0.89382000  0.31325100  1
  H  H34  1  0.78878900  0.07301200  0.36050800  1
  H  H35  1  0.21194900  0.46932700  0.31145600  1
  H  H36  1  0.71194900  0.96932700  0.31145600  1
  H  H37  1  0.70974600  0.47137300  0.60524800  1
  H  H38  1  0.20974600  0.97137300  0.60524800  1
  H  H39  1  0.78856100  0.57404400  0.71266200  1
  H  H40  1  0.78803800  0.39467500  0.75863200  1
  H  H41  1  0.28856100  0.07404400  0.71266200  1
  H  H42  1  0.28803800  0.89467500  0.75863200  1
  H  H43  1  0.71194900  0.60141600  0.73952000  1
  H  H44  1  0.71100600  0.42196100  0.78505600  1
  H  H45  1  0.21194900  0.10141600  0.73952000  1
  H  H46  1  0.21100600  0.92196100  0.78505600  1
  H  H47  1  0.78940100  0.52459100  0.89218000  1
  H  H48  1  0.28940100  0.02459100  0.89218000  1
  H  H49  1  0.05910500  0.08748300  0.84790400  1
  H  H50  1  0.04819700  0.90245000  0.83432100  1
  H  H51  1  0.55910500  0.58748300  0.84790400  1
  H  H52  1  0.54819700  0.40245000  0.83432100  1
  H  H53  1  0.45234500  0.59488700  0.66163300  1
  H  H54  1  0.44041200  0.40973400  0.64821300  1
  H  H55  1  0.95234500  0.09488700  0.66163300  1
  H  H56  1  0.94041200  0.90973400  0.64821300  1
  H  H57  1  0.89319000  0.00519200  0.67831000  1
  H  H58  1  0.39319000  0.50519200  0.67831000  1
  H  H59  1  0.60196600  0.52539400  0.38871400  1
  H  H60  1  0.10196600  0.02539400  0.38871400  1
  H  H61  1  0.07482300  0.92157000  0.28380500  1
  H  H62  1  0.02501200  0.10000900  0.23322100  1
  H  H63  1  0.57482300  0.42157000  0.28380500  1
  H  H64  1  0.52501200  0.60000900  0.23322100  1
  H  H65  1  0.47232400  0.39289300  0.25873200  1
  H  H66  1  0.42252000  0.57148700  0.20868200  1
  H  H67  1  0.97232400  0.89289300  0.25873200  1
  H  H68  1  0.92252000  0.07148700  0.20868200  1
  H  H69  1  0.89529800  0.96760400  0.10403900  1
  H  H70  1  0.39529800  0.46760400  0.10403900  1
  H  H71  1  0.68505300  0.57687800  0.83494800  1
  H  H72  1  0.65622600  0.59618400  0.88290900  1
  H  H73  1  0.60255100  0.58904100  0.76281400  1
  H  H74  1  0.18505300  0.07687800  0.83494800  1
  H  H75  1  0.15622600  0.09618400  0.88290900  1
  H  H76  1  0.10255100  0.08904100  0.76281400  1
  C  C1  1  0.11998000  0.49625100  0.11630400  1
  C  C2  1  0.61998000  0.99625100  0.11630400  1
  C  C3  1  0.00057800  0.61727600  0.99780400  1
  C  C4  1  0.99987500  0.37683000  0.99763000  1
  C  C5  1  0.50057800  0.11727600  0.99780400  1
  C  C6  1  0.49987500  0.87683000  0.99763000  1
  C  C7  1  0.87956000  0.49693100  0.87821800  1
  C  C8  1  0.37956000  0.99693100  0.87821800  1
  C  C9  1  0.04170700  0.72669600  0.99816400  1
  C  C10  1  0.03993800  0.26725000  0.99665700  1
  C  C11  1  0.54170700  0.22669600  0.99816400  1
  C  C12  1  0.53993800  0.76725000  0.99665700  1
  C  C13  1  0.98521800  0.76739700  0.92572500  1
  C  C14  1  0.98316400  0.22663400  0.92482700  1
  C  C15  1  0.48521800  0.26739700  0.92572500  1
  C  C16  1  0.48316400  0.72663400  0.92482700  1
  C  C17  1  0.99995400  0.80714600  0.99708200  1
  C  C18  1  0.99862900  0.18696800  0.99678200  1
  C  C19  1  0.49995400  0.30714600  0.99708200  1
  C  C20  1  0.49862900  0.68696800  0.99678200  1
  C  C21  1  0.05641100  0.76760100  0.06945100  1
  C  C22  1  0.05536800  0.22645600  0.06853700  1
  C  C23  1  0.55641100  0.26760100  0.06945100  1
  C  C24  1  0.55536800  0.72645600  0.06853700  1
  C  C25  1  0.01496200  0.72668000  0.06876000  1
  C  C26  1  0.01459500  0.26752100  0.06904200  1
  C  C27  1  0.51496200  0.22668000  0.06876000  1
  C  C28  1  0.51459500  0.76752100  0.06904200  1
  C  C29  1  0.95854100  0.76735800  0.99641000  1
  C  C30  1  0.95787900  0.22689600  0.99730100  1
  C  C31  1  0.45854100  0.26735800  0.99641000  1
  C  C32  1  0.45787900  0.72689600  0.99730100  1
  C  C33  1  0.94381800  0.72644000  0.92503600  1
  C  C34  1  0.94242700  0.26775300  0.92531600  1
  C  C35  1  0.44381800  0.22644000  0.92503600  1
  C  C36  1  0.44242700  0.76775300  0.92531600  1
  C  C37  1  0.00026800  0.68691500  0.99744500  1
  C  C38  1  0.99917900  0.30719600  0.99713000  1
  C  C39  1  0.50026800  0.18691500  0.99744500  1
  C  C40  1  0.49917900  0.80719600  0.99713000  1
  C  C41  1  0.22929800  0.45550300  0.18415900  1
  C  C42  1  0.22897800  0.55333200  0.20975800  1
  C  C43  1  0.72929800  0.95550300  0.18415900  1
  C  C44  1  0.72897800  0.05333200  0.20975800  1
  C  C45  1  0.26983200  0.51213700  0.20955100  1
  C  C46  1  0.76983200  0.01213700  0.20955100  1
  C  C47  1  0.30990500  0.49731300  0.30622300  1
  C  C48  1  0.80990500  0.99731300  0.30622300  1
  C  C49  1  0.27053900  0.44072700  0.28195500  1
  C  C50  1  0.27022900  0.53851900  0.30762500  1
  C  C51  1  0.77053900  0.94072700  0.28195500  1
  C  C52  1  0.77022900  0.03851900  0.30762500  1
  C  C53  1  0.22976800  0.48196800  0.28227400  1
  C  C54  1  0.72976800  0.98196800  0.28227400  1
  C  C55  1  0.18964200  0.49674100  0.18557100  1
  C  C56  1  0.68964200  0.99674100  0.18557100  1
  C  C57  1  0.77012500  0.53949800  0.72824100  1
  C  C58  1  0.76976200  0.44155800  0.75322600  1
  C  C59  1  0.27012500  0.03949800  0.72824100  1
  C  C60  1  0.26976200  0.94155800  0.75322600  1
  C  C61  1  0.72882700  0.48339600  0.67132000  1
  C  C62  1  0.22882700  0.98339600  0.67132000  1
  C  C63  1  0.68966800  0.49831700  0.68867100  1
  C  C64  1  0.18966800  0.99831700  0.68867100  1
  C  C65  1  0.72981100  0.55440200  0.74441100  1
  C  C66  1  0.72946700  0.45646800  0.76947900  1
  C  C67  1  0.22981100  0.05440200  0.74441100  1
  C  C68  1  0.22946700  0.95646800  0.76947900  1
  C  C69  1  0.77076900  0.51249500  0.82640100  1
  C  C70  1  0.27076900  0.01249500  0.82640100  1
  C  C71  1  0.80991600  0.49762200  0.80903200  1
  C  C72  1  0.30991600  0.99762200  0.80903200  1
  C  C73  1  0.99962800  0.99727900  0.87711600  1
  C  C74  1  0.49962800  0.49727900  0.87711600  1
  C  C75  1  0.99965700  0.87679100  0.99686100  1
  C  C76  1  0.99869800  0.11732500  0.99684900  1
  C  C77  1  0.49965700  0.37679100  0.99686100  1
  C  C78  1  0.49869800  0.61732500  0.99684900  1
  C  C79  1  0.99865800  0.99605000  0.11652900  1
  C  C80  1  0.49865800  0.49605000  0.11652900  1
  C  C81  1  0.49998100  0.49712200  0.37725000  1
  C  C82  1  0.99998100  0.99712200  0.37725000  1
  C  C83  1  0.37957400  0.49760100  0.37660800  1
  C  C84  1  0.87957400  0.99760100  0.37660800  1
  C  C85  1  0.50074400  0.49869700  0.61837400  1
  C  C86  1  0.00074400  0.99869700  0.61837400  1
  C  C87  1  0.62000700  0.49821500  0.61895900  1
  C  C88  1  0.12000700  0.99821500  0.61895900  1
  C  C89  1  0.03252800  0.04731600  0.80159200  1
  C  C90  1  0.02594700  0.94587500  0.79397000  1
  C  C91  1  0.53252800  0.54731600  0.80159200  1
  C  C92  1  0.52594700  0.44587500  0.79397000  1
  C  C93  1  0.55727400  0.49515300  0.78534100  1
  C  C94  1  0.05727400  0.99515300  0.78534100  1
  C  C95  1  0.49991900  0.49895700  0.68715000  1
  C  C96  1  0.99991900  0.99895700  0.68715000  1
  C  C97  1  0.47420600  0.55124200  0.70153100  1
  C  C98  1  0.46764600  0.44997300  0.69413700  1
  C  C99  1  0.97420600  0.05124200  0.70153100  1
  C  C100  1  0.96764600  0.94997300  0.69413700  1
  C  C101  1  0.94183600  0.00216600  0.70933500  1
  C  C102  1  0.44183600  0.50216600  0.70933500  1
  C  C103  1  0.00007600  0.99809800  0.80797600  1
  C  C104  1  0.50007600  0.49809800  0.80797600  1
  C  C105  1  0.04027700  0.95560700  0.26764700  1
  C  C106  1  0.01312400  0.05306900  0.24012200  1
  C  C107  1  0.54027700  0.45560700  0.26764700  1
  C  C108  1  0.51312400  0.55306900  0.24012200  1
  C  C109  1  0.55510500  0.51234500  0.32313900  1
  C  C110  1  0.05510500  0.01234500  0.32313900  1
  C  C111  1  0.49912800  0.49672600  0.30678500  1
  C  C112  1  0.99912800  0.99672600  0.30678500  1
  C  C113  1  0.48432500  0.44000600  0.25244800  1
  C  C114  1  0.45709200  0.53747000  0.22487300  1
  C  C115  1  0.98432500  0.94000600  0.25244800  1
  C  C116  1  0.95709200  0.03747000  0.22487300  1
  C  C117  1  0.94227300  0.98077900  0.16933800  1
  C  C118  1  0.44227300  0.48077900  0.16933800  1
  C  C119  1  0.99828500  0.99636400  0.18575700  1
  C  C120  1  0.49828500  0.49636400  0.18575700  1
  C  C121  1  0.64566400  0.57037200  0.82841300  1
  C  C122  1  0.14566400  0.07037200  0.82841300  1
  S  S1  1  0.63689500  0.48729800  0.83617400  1
  S  S2  1  0.13689500  0.98729800  0.83617400  1
  O  O1  1  0.09184700  0.49843800  0.14244200  1
  O  O2  1  0.59184700  0.99843800  0.14244200  1
  O  O3  1  0.08984500  0.49985400  0.03250300  1
  O  O4  1  0.58984500  0.99985400  0.03250300  1
  O  O5  1  0.99946300  0.58830700  0.05089800  1
  O  O6  1  0.99741200  0.40608300  0.04906400  1
  O  O7  1  0.49946300  0.08830700  0.05089800  1
  O  O8  1  0.49741200  0.90608300  0.04906400  1
  O  O9  1  0.99587500  0.58809700  0.93913200  1
  O  O10  1  0.99688400  0.40584600  0.94057800  1
  O  O11  1  0.49587500  0.08809700  0.93913200  1
  O  O12  1  0.49688400  0.90584600  0.94057800  1
  O  O13  1  0.90966900  0.50055600  0.96210000  1
  O  O14  1  0.40966900  0.00055600  0.96210000  1
  O  O15  1  0.90763900  0.49877300  0.85188300  1
  O  O16  1  0.40763900  0.99877300  0.85188300  1
  O  O17  1  0.94538500  0.00012200  0.85102900  1
  O  O18  1  0.44538500  0.50012200  0.85102900  1
  O  O19  1  0.05346700  0.99945000  0.96100400  1
  O  O20  1  0.55346700  0.49945000  0.96100400  1
  O  O21  1  0.94560700  0.90575400  0.93883300  1
  O  O22  1  0.94468200  0.08799700  0.93971500  1
  O  O23  1  0.44560700  0.40575400  0.93883300  1
  O  O24  1  0.44468200  0.58799700  0.93971500  1
  O  O25  1  0.05345000  0.90617800  0.05484900  1
  O  O26  1  0.05290200  0.08840600  0.05396500  1
  O  O27  1  0.55345000  0.40617800  0.05484900  1
  O  O28  1  0.55290200  0.58840600  0.05396500  1
  O  O29  1  0.94481200  0.99823400  0.03265400  1
  O  O30  1  0.44481200  0.49823400  0.03265400  1
  O  O31  1  0.05287400  0.99983200  0.14262300  1
  O  O32  1  0.55287400  0.49983200  0.14262300  1
  O  O33  1  0.49874300  0.55147800  0.40473300  1
  O  O34  1  0.49594400  0.44329000  0.40260400  1
  O  O35  1  0.99874300  0.05147800  0.40473300  1
  O  O36  1  0.99594400  0.94329000  0.40260400  1
  O  O37  1  0.40851400  0.55167100  0.40110000  1
  O  O38  1  0.40881800  0.44351200  0.40517000  1
  O  O39  1  0.90851400  0.05167100  0.40110000  1
  O  O40  1  0.90881800  0.94351200  0.40517000  1
  O  O41  1  0.49586400  0.55237200  0.58402100  1
  O  O42  1  0.49935500  0.44446200  0.58821500  1
  O  O43  1  0.99586400  0.05237200  0.58402100  1
  O  O44  1  0.99935500  0.94446200  0.58821500  1
  O  O45  1  0.59073100  0.55218500  0.58781600  1
  O  O46  1  0.59100900  0.44424100  0.58554700  1
  O  O47  1  0.09073100  0.05218500  0.58781600  1
  O  O48  1  0.09100900  0.94424100  0.58554700  1
