# generated using pymatgen
data_ZnH17C25NO4
_symmetry_space_group_name_H-M   'P 1'
_cell_length_a   11.89293300
_cell_length_b   13.07826500
_cell_length_c   17.49522600
_cell_angle_alpha   90.34666700
_cell_angle_beta   82.23891400
_cell_angle_gamma   91.19278800
_symmetry_Int_Tables_number   1
_chemical_formula_structural   ZnH17C25NO4
_chemical_formula_sum   'Zn2 H34 C50 N2 O8'
_cell_volume   2695.66339241
_cell_formula_units_Z   2
loop_
 _symmetry_equiv_pos_site_id
 _symmetry_equiv_pos_as_xyz
  1  'x, y, z'
loop_
 _atom_site_type_symbol
 _atom_site_label
 _atom_site_symmetry_multiplicity
 _atom_site_fract_x
 _atom_site_fract_y
 _atom_site_fract_z
 _atom_site_occupancy
  Zn  Zn1  1  0.37130600  0.50610800  0.50835800  1
  Zn  Zn2  1  0.62796400  0.48984800  0.49439700  1
  H  H1  1  0.65964400  0.48006300  0.73589200  1
  H  H2  1  0.33971800  0.51607200  0.26683400  1
  H  H3  1  0.70043200  0.48746200  0.24522300  1
  H  H4  1  0.29882900  0.50809600  0.75755600  1
  H  H5  1  0.62598200  0.52800400  0.99218800  1
  H  H6  1  0.37339000  0.46771300  0.01056900  1
  H  H7  1  0.28941200  0.50371200  0.89699600  1
  H  H8  1  0.70989900  0.49180500  0.10577400  1
  H  H9  1  0.34933200  0.52259600  0.12912400  1
  H  H10  1  0.65004100  0.47339400  0.87359300  1
  H  H11  1  0.64743600  0.16117800  0.49338700  1
  H  H12  1  0.35183000  0.83478100  0.50951300  1
  H  H13  1  0.28632700  0.18428500  0.51078300  1
  H  H14  1  0.71292100  0.81167200  0.49208400  1
  H  H15  1  0.73128000  0.99706900  0.49028300  1
  H  H16  1  0.26798700  0.99888500  0.51265500  1
  H  H17  1  0.19272500  0.40438600  0.43324500  1
  H  H18  1  0.80597800  0.58832800  0.57191000  1
  H  H19  1  0.19676300  0.63206600  0.60125700  1
  H  H20  1  0.80342400  0.36892500  0.39773700  1
  H  H21  1  0.11336800  0.45671500  0.30008700  1
  H  H22  1  0.19910900  0.34056300  0.19972600  1
  H  H23  1  0.22475900  0.17716300  0.14703000  1
  H  H24  1  0.09944100  0.09575900  0.16539300  1
  H  H25  1  0.21779500  0.07718700  0.21848000  1
  H  H26  1  0.02272400  0.08834400  0.31835500  1
  H  H27  1  0.93748300  0.20484600  0.41925500  1
  H  H28  1  0.92622300  0.76437900  0.53425800  1
  H  H29  1  0.84351700  0.89698000  0.62231300  1
  H  H30  1  0.80103300  0.96575900  0.74586300  1
  H  H31  1  0.90720400  0.94002400  0.80764500  1
  H  H32  1  0.77300900  0.87035700  0.82069300  1
  H  H33  1  0.94613300  0.73688000  0.81229600  1
  H  H34  1  0.02824500  0.60353100  0.72397700  1
  C  C1  1  0.51944000  0.69783300  0.50158100  1
  C  C2  1  0.47982500  0.29813000  0.50126200  1
  C  C3  1  0.48656000  0.49708000  0.65203100  1
  C  C4  1  0.51270400  0.49876900  0.35071900  1
  C  C5  1  0.48011700  0.49548200  0.73637700  1
  C  C6  1  0.51917400  0.50033300  0.26637100  1
  C  C7  1  0.57767000  0.48636500  0.77051100  1
  C  C8  1  0.42166300  0.50959500  0.23222100  1
  C  C9  1  0.57210600  0.48385800  0.84972500  1
  C  C10  1  0.42724300  0.51204600  0.15300500  1
  C  C11  1  0.46849600  0.49123500  0.89614900  1
  C  C12  1  0.53084500  0.50451100  0.10659700  1
  C  C13  1  0.37111100  0.49890800  0.86174800  1
  C  C14  1  0.62820400  0.49672500  0.14101300  1
  C  C15  1  0.37662300  0.50151100  0.78254400  1
  C  C16  1  0.62266500  0.49414800  0.22021900  1
  C  C17  1  0.45672000  0.48756200  0.98115100  1
  C  C18  1  0.54264300  0.50816800  0.02159600  1
  C  C19  1  0.46842000  0.18617300  0.50191100  1
  C  C20  1  0.53084000  0.80979100  0.50097600  1
  C  C21  1  0.64776200  0.96160200  0.49452000  1
  C  C22  1  0.35150000  0.03436000  0.50840200  1
  C  C23  1  0.63705900  0.85644600  0.49558400  1
  C  C24  1  0.36219800  0.13951700  0.50731000  1
  C  C25  1  0.43558900  0.86964000  0.50533000  1
  C  C26  1  0.56367200  0.12632400  0.49757900  1
  C  C27  1  0.44662700  0.97495800  0.50417300  1
  C  C28  1  0.55263600  0.02100600  0.49874800  1
  C  C29  1  0.96781200  0.40769900  0.42630800  1
  C  C30  1  0.03282100  0.59586200  0.57079600  1
  C  C31  1  0.85130900  0.41469400  0.43417900  1
  C  C32  1  0.14854100  0.58451500  0.56615900  1
  C  C33  1  0.85412600  0.53898400  0.53068900  1
  C  C34  1  0.14540300  0.45842400  0.47098400  1
  C  C35  1  0.97153100  0.53513700  0.52475000  1
  C  C36  1  0.02890100  0.46726300  0.47321200  1
  C  C37  1  0.02226700  0.33796700  0.36728700  1
  C  C38  1  0.09446900  0.37560700  0.30480400  1
  C  C39  1  0.14231000  0.31007500  0.24804100  1
  C  C40  1  0.11705000  0.20660000  0.25300600  1
  C  C41  1  0.16802400  0.13495600  0.19214500  1
  C  C42  1  0.04330300  0.16921600  0.31456800  1
  C  C43  1  0.99540600  0.23477000  0.37127800  1
  C  C44  1  0.97987900  0.67387700  0.62364200  1
  C  C45  1  0.92938800  0.75739300  0.59546500  1
  C  C46  1  0.88329000  0.83240100  0.64515000  1
  C  C47  1  0.88872400  0.82490800  0.72325100  1
  C  C48  1  0.83938400  0.90532800  0.77756400  1
  C  C49  1  0.94103000  0.74261900  0.75125000  1
  C  C50  1  0.98718800  0.66767100  0.70155100  1
  N  N1  1  0.20252200  0.51671700  0.51696400  1
  N  N2  1  0.79677300  0.47939500  0.48567600  1
  O  O1  1  0.41735300  0.65618300  0.50700400  1
  O  O2  1  0.58197100  0.33975500  0.49583600  1
  O  O3  1  0.61190700  0.64379500  0.49619100  1
  O  O4  1  0.38729400  0.35215100  0.50667600  1
  O  O5  1  0.39208900  0.50354600  0.62139300  1
  O  O6  1  0.60710700  0.49230100  0.38137700  1
  O  O7  1  0.58676300  0.49116100  0.61059400  1
  O  O8  1  0.41255100  0.50465300  0.39216700  1
