# generated using pymatgen
data_ZnH30C34(NO2)3
_symmetry_space_group_name_H-M   'P 1'
_cell_length_a   19.46553600
_cell_length_b   18.24370000
_cell_length_c   17.88494900
_cell_angle_alpha   90.00000000
_cell_angle_beta   90.00590000
_cell_angle_gamma   90.00000000
_symmetry_Int_Tables_number   1
_chemical_formula_structural   ZnH30C34(NO2)3
_chemical_formula_sum   'Zn2 H60 C68 N6 O12'
_cell_volume   6351.36384835
_cell_formula_units_Z   2
loop_
 _symmetry_equiv_pos_site_id
 _symmetry_equiv_pos_as_xyz
  1  'x, y, z'
loop_
 _atom_site_type_symbol
 _atom_site_label
 _atom_site_symmetry_multiplicity
 _atom_site_fract_x
 _atom_site_fract_y
 _atom_site_fract_z
 _atom_site_occupancy
  Zn  Zn1  1  0.50000000  0.58283600  0.50000000  1
  Zn  Zn2  1  0.50000000  0.41677300  0.50000000  1
  H  H1  1  0.51440500  0.61473300  0.87911000  1
  H  H2  1  0.51337100  0.38568400  0.12069400  1
  H  H3  1  0.48559600  0.61473300  0.12089000  1
  H  H4  1  0.48663000  0.38568400  0.87930600  1
  H  H5  1  0.71809800  0.39767300  0.43967000  1
  H  H6  1  0.28226300  0.60198800  0.44431100  1
  H  H7  1  0.28190200  0.39767300  0.56033000  1
  H  H8  1  0.71773700  0.60198800  0.55568900  1
  H  H9  1  0.84216100  0.39886900  0.43674100  1
  H  H10  1  0.15839700  0.60059700  0.43987100  1
  H  H11  1  0.15784000  0.39886900  0.56325900  1
  H  H12  1  0.84160400  0.60059700  0.56012900  1
  H  H13  1  0.93871200  0.61709900  0.49627100  1
  H  H14  1  0.06139900  0.38226800  0.49778300  1
  H  H15  1  0.06128800  0.61709900  0.50372900  1
  H  H16  1  0.93860100  0.38226800  0.50221700  1
  H  H17  1  0.59623600  0.69913200  0.55318000  1
  H  H18  1  0.40411100  0.30051200  0.44601100  1
  H  H19  1  0.40376500  0.69913200  0.44682000  1
  H  H20  1  0.59589000  0.30051200  0.55398900  1
  H  H21  1  0.59807400  0.83260500  0.55388500  1
  H  H22  1  0.40209900  0.16701700  0.44574500  1
  H  H23  1  0.40192700  0.83260500  0.44611500  1
  H  H24  1  0.59790200  0.16701700  0.55425500  1
  H  H25  1  0.45777600  0.93344000  0.38964000  1
  H  H26  1  0.54219800  0.06612900  0.61038000  1
  H  H27  1  0.54222500  0.93344000  0.61036000  1
  H  H28  1  0.45780300  0.06612900  0.38962000  1
  H  H29  1  0.41330800  0.64750200  0.74421900  1
  H  H30  1  0.45372900  0.69859100  0.66998000  1
  H  H31  1  0.46169800  0.72888300  0.83874200  1
  H  H32  1  0.42238800  0.78276900  0.76725100  1
  H  H33  1  0.57247700  0.72305200  0.85100100  1
  H  H34  1  0.62907100  0.76670900  0.78682500  1
  H  H35  1  0.62123600  0.62918000  0.77065500  1
  H  H36  1  0.60610900  0.68311800  0.68832500  1
  H  H37  1  0.41800800  0.33613600  0.22405400  1
  H  H38  1  0.44483400  0.28961700  0.30754700  1
  H  H39  1  0.49545500  0.26341000  0.14721100  1
  H  H40  1  0.45211200  0.20293000  0.20930500  1
  H  H41  1  0.60126800  0.29685800  0.16596200  1
  H  H42  1  0.65188500  0.25778200  0.23919500  1
  H  H43  1  0.61956000  0.38821600  0.26404000  1
  H  H44  1  0.59139300  0.32478400  0.33515300  1
  H  H45  1  0.58669300  0.64750200  0.25578100  1
  H  H46  1  0.54627200  0.69859100  0.33002100  1
  H  H47  1  0.53830300  0.72888300  0.16125800  1
  H  H48  1  0.57761300  0.78276900  0.23274900  1
  H  H49  1  0.42752500  0.72305200  0.14899900  1
  H  H50  1  0.37093000  0.76670900  0.21317500  1
  H  H51  1  0.37876500  0.62918100  0.22934500  1
  H  H52  1  0.39389200  0.68311800  0.31167500  1
  H  H53  1  0.58199200  0.33613500  0.77594600  1
  H  H54  1  0.55516600  0.28961700  0.69245300  1
  H  H55  1  0.50454500  0.26341000  0.85278900  1
  H  H56  1  0.54788800  0.20293000  0.79069500  1
  H  H57  1  0.39873200  0.29685900  0.83403800  1
  H  H58  1  0.34811500  0.25778300  0.76080500  1
  H  H59  1  0.38044100  0.38821600  0.73596000  1
  H  H60  1  0.40860700  0.32478400  0.66484700  1
  C  C1  1  0.36557900  0.49981200  0.50228600  1
  C  C2  1  0.63442200  0.49981200  0.49771400  1
  C  C3  1  0.49794200  0.49981800  0.35278000  1
  C  C4  1  0.50205900  0.49981800  0.64722000  1
  C  C5  1  0.50887400  0.56459900  0.84779400  1
  C  C6  1  0.50648400  0.43554900  0.15212400  1
  C  C7  1  0.49112700  0.56459900  0.15220600  1
  C  C8  1  0.49351700  0.43554900  0.84787600  1
  C  C9  1  0.50974200  0.56537700  0.77056300  1
  C  C10  1  0.50574600  0.43442700  0.22936400  1
  C  C11  1  0.49025900  0.56537700  0.22943700  1
  C  C12  1  0.49425500  0.43442700  0.77063600  1
  C  C13  1  0.50197500  0.49988100  0.73052400  1
  C  C14  1  0.49802500  0.49988100  0.26947600  1
  C  C15  1  0.50083000  0.50015000  0.88614700  1
  C  C16  1  0.49917100  0.50015000  0.11385300  1
  C  C17  1  0.50022400  0.50026000  0.96632700  1
  C  C18  1  0.49977700  0.50026000  0.03367300  1
  C  C19  1  0.74523300  0.44247600  0.46597900  1
  C  C20  1  0.25498400  0.55723400  0.47051500  1
  C  C21  1  0.25476800  0.44247600  0.53402100  1
  C  C22  1  0.74501700  0.55723400  0.52948500  1
  C  C23  1  0.81606100  0.44301100  0.46515200  1
  C  C24  1  0.18420700  0.55657100  0.46877900  1
  C  C25  1  0.18394000  0.44301100  0.53484800  1
  C  C26  1  0.81579400  0.55657100  0.53122100  1
  C  C27  1  0.85227100  0.49975400  0.49844900  1
  C  C28  1  0.14773000  0.49975400  0.50155100  1
  C  C29  1  0.70948700  0.49988400  0.49753200  1
  C  C30  1  0.29051400  0.49988400  0.50246800  1
  C  C31  1  0.96461400  0.56486400  0.49896700  1
  C  C32  1  0.03541100  0.43448400  0.49983300  1
  C  C33  1  0.03538700  0.56486400  0.50103300  1
  C  C34  1  0.96459000  0.43448400  0.50016700  1
  C  C35  1  0.07177700  0.49968200  0.50085500  1
  C  C36  1  0.92822400  0.49968200  0.49914500  1
  C  C37  1  0.55342100  0.72900300  0.52984500  1
  C  C38  1  0.44669800  0.27061800  0.46990400  1
  C  C39  1  0.44658000  0.72900300  0.47015500  1
  C  C40  1  0.55330300  0.27061800  0.53009600  1
  C  C41  1  0.55410400  0.80452200  0.53067900  1
  C  C42  1  0.44598300  0.19509300  0.46914900  1
  C  C43  1  0.44589700  0.80452200  0.46932100  1
  C  C44  1  0.55401800  0.19509300  0.53085100  1
  C  C45  1  0.50000000  0.84315300  0.50000000  1
  C  C46  1  0.50000000  0.15645200  0.50000000  1
  C  C47  1  0.47554200  0.96201900  0.43889600  1
  C  C48  1  0.52444900  0.03756700  0.56111000  1
  C  C49  1  0.52445900  0.96201900  0.56110400  1
  C  C50  1  0.47555200  0.03756700  0.43889000  1
  C  C51  1  0.50000000  0.07591700  0.50000000  1
  C  C52  1  0.50000000  0.92367700  0.50000000  1
  C  C53  1  0.45962000  0.67934900  0.72844900  1
  C  C54  1  0.46583300  0.74526200  0.77926300  1
  C  C55  1  0.57970000  0.73671900  0.79119000  1
  C  C56  1  0.58505800  0.66800800  0.74374100  1
  C  C57  1  0.46267000  0.31137300  0.25310100  1
  C  C58  1  0.49018700  0.24807400  0.20683100  1
  C  C59  1  0.60002000  0.27874000  0.22508400  1
  C  C60  1  0.58394200  0.34233900  0.27632900  1
  C  C61  1  0.54038200  0.67934900  0.27155200  1
  C  C62  1  0.53416800  0.74526200  0.22073700  1
  C  C63  1  0.42030100  0.73671900  0.20881000  1
  C  C64  1  0.41494300  0.66800800  0.25625900  1
  C  C65  1  0.53733000  0.31137300  0.74689900  1
  C  C66  1  0.50981300  0.24807400  0.79316900  1
  C  C67  1  0.39998000  0.27874000  0.77491600  1
  C  C68  1  0.41605900  0.34234000  0.72367100  1
  N  N1  1  0.50000000  0.69246500  0.50000000  1
  N  N2  1  0.50000000  0.30714800  0.50000000  1
  N  N3  1  0.51934600  0.63296100  0.73331200  1
  N  N4  1  0.51417900  0.36665200  0.26661500  1
  N  N5  1  0.48065500  0.63296100  0.26668800  1
  N  N6  1  0.48582100  0.36665200  0.73338500  1
  O  O1  1  0.39765200  0.56285400  0.50102700  1
  O  O2  1  0.60234200  0.43674800  0.49744700  1
  O  O3  1  0.60234900  0.56285400  0.49897300  1
  O  O4  1  0.39765900  0.43674800  0.50255300  1
  O  O5  1  0.49899400  0.56259200  0.38864500  1
  O  O6  1  0.50230500  0.43701500  0.61134300  1
  O  O7  1  0.50100700  0.56259200  0.61135500  1
  O  O8  1  0.49769600  0.43701500  0.38865700  1
  O  O9  1  0.52724800  0.78217600  0.76501100  1
  O  O10  1  0.55232100  0.22261500  0.23600400  1
  O  O11  1  0.47275300  0.78217700  0.23498900  1
  O  O12  1  0.44767900  0.22261500  0.76399600  1
