# generated using pymatgen
data_Cd2H15C30IO8
_symmetry_space_group_name_H-M   'P 1'
_cell_length_a   16.52581100
_cell_length_b   16.65558000
_cell_length_c   16.58208300
_cell_angle_alpha   87.85048600
_cell_angle_beta   60.96811200
_cell_angle_gamma   118.58686900
_symmetry_Int_Tables_number   1
_chemical_formula_structural   Cd2H15C30IO8
_chemical_formula_sum   'Cd4 H30 C60 I2 O16'
_cell_volume   3280.83462988
_cell_formula_units_Z   2
loop_
 _symmetry_equiv_pos_site_id
 _symmetry_equiv_pos_as_xyz
  1  'x, y, z'
loop_
 _atom_site_type_symbol
 _atom_site_label
 _atom_site_symmetry_multiplicity
 _atom_site_fract_x
 _atom_site_fract_y
 _atom_site_fract_z
 _atom_site_occupancy
  Cd  Cd1  1  0.79986200  0.34817500  0.04867000  1
  Cd  Cd2  1  0.19965200  0.65303000  0.95349000  1
  Cd  Cd3  1  0.89242400  0.54798900  0.15313500  1
  Cd  Cd4  1  0.10730300  0.45325100  0.84867800  1
  H  H1  1  0.24690600  0.51707200  0.06743400  1
  H  H2  1  0.75416700  0.48681000  0.93349400  1
  H  H3  1  0.43216200  0.47732100  0.80305900  1
  H  H4  1  0.56898600  0.52644900  0.19806400  1
  H  H5  1  0.58729500  0.47159100  0.76889100  1
  H  H6  1  0.41601500  0.53553400  0.23083400  1
  H  H7  1  0.70638000  0.47494100  0.81755600  1
  H  H8  1  0.29778000  0.53380400  0.18154600  1
  H  H9  1  0.15085200  0.53699300  0.50767000  1
  H  H10  1  0.86994400  0.38001400  0.47380000  1
  H  H11  1  0.09702600  0.48839300  0.67486800  1
  H  H12  1  0.92186900  0.43353700  0.30873500  1
  H  H13  1  0.75327600  0.35637100  0.78552000  1
  H  H14  1  0.22043800  0.69856300  0.23430100  1
  H  H15  1  0.80512000  0.40754000  0.62020000  1
  H  H16  1  0.16706100  0.64762700  0.40131500  1
  H  H17  1  0.68949100  0.05775600  0.38030400  1
  H  H18  1  0.36420300  0.97400600  0.66042700  1
  H  H19  1  0.80030200  0.22088800  0.26550700  1
  H  H20  1  0.24580700  0.80709000  0.76858700  1
  H  H21  1  0.40519200  0.07539100  0.53228000  1
  H  H22  1  0.55403300  0.90146400  0.42872400  1
  H  H23  1  0.14878300  0.15577300  0.88388100  1
  H  H24  1  0.86483300  0.84467700  0.02145300  1
  H  H25  1  0.09471100  0.26907400  0.88996100  1
  H  H26  1  0.91758900  0.73129100  0.01697500  1
  H  H27  1  0.75642900  0.04327900  0.12282000  1
  H  H28  1  0.22621100  0.95486200  0.96910400  1
  H  H29  1  0.80897000  0.92986400  0.11877400  1
  H  H30  1  0.17341000  0.06908100  0.97529400  1
  C  C1  1  0.89060300  0.39990900  0.84317700  1
  C  C2  1  0.10768700  0.59915800  0.15941100  1
  C  C3  1  0.10827900  0.76702300  0.98744600  1
  C  C4  1  0.89052000  0.23364300  0.01488500  1
  C  C5  1  0.74279100  0.51171900  0.09684900  1
  C  C6  1  0.25698100  0.48992700  0.90508900  1
  C  C7  1  0.25847400  0.65761700  0.73265400  1
  C  C8  1  0.74113100  0.34398800  0.26845200  1
  C  C9  1  0.31556200  0.51166700  0.01864500  1
  C  C10  1  0.68585300  0.49271400  0.98214400  1
  C  C11  1  0.33287300  0.49860300  0.93131900  1
  C  C12  1  0.66783300  0.50460200  0.06997500  1
  C  C13  1  0.41831100  0.48790400  0.87135500  1
  C  C14  1  0.58303500  0.51625500  0.12959800  1
  C  C15  1  0.48612600  0.49046600  0.89847100  1
  C  C16  1  0.51593700  0.51491400  0.10205200  1
  C  C17  1  0.46790900  0.50254800  0.98619300  1
  C  C18  1  0.53425500  0.50303800  0.01426400  1
  C  C19  1  0.38284900  0.51349800  0.04612600  1
  C  C20  1  0.61938000  0.49220300  0.95424300  1
  C  C21  1  0.57193600  0.48047100  0.83807500  1
  C  C22  1  0.43093300  0.52611300  0.16191600  1
  C  C23  1  0.63879200  0.48190700  0.86569500  1
  C  C24  1  0.36436400  0.52522700  0.13408700  1
  C  C25  1  0.06336000  0.49932900  0.56812200  1
  C  C26  1  0.94557500  0.45147700  0.42316600  1
  C  C27  1  0.03337600  0.47191100  0.66294700  1
  C  C28  1  0.97492400  0.48182900  0.32913700  1
  C  C29  1  0.92259200  0.42233300  0.74183200  1
  C  C30  1  0.07347900  0.57059300  0.26084000  1
  C  C31  1  0.84096800  0.39633400  0.72489500  1
  C  C32  1  0.14274200  0.62897400  0.28724700  1
  C  C33  1  0.87058500  0.42466800  0.63041300  1
  C  C34  1  0.11285400  0.59928000  0.38177400  1
  C  C35  1  0.98230000  0.47755200  0.55115800  1
  C  C36  1  0.01416000  0.50997000  0.45044600  1
  C  C37  1  0.64933800  0.09542700  0.38945400  1
  C  C38  1  0.38161600  0.92286400  0.63185300  1
  C  C39  1  0.71329000  0.18890500  0.32420700  1
  C  C40  1  0.31545600  0.82781400  0.69484400  1
  C  C41  1  0.66879200  0.24303300  0.33603300  1
  C  C42  1  0.33556300  0.75948600  0.66393400  1
  C  C43  1  0.55802100  0.20168500  0.41264500  1
  C  C44  1  0.42474800  0.78859100  0.56739800  1
  C  C45  1  0.49272500  0.10680800  0.47608900  1
  C  C46  1  0.48866600  0.88311800  0.50397600  1
  C  C47  1  0.53781900  0.05277000  0.46605600  1
  C  C48  1  0.46832600  0.95152400  0.53498500  1
  C  C49  1  0.06265700  0.13052400  0.93802500  1
  C  C50  1  0.94325000  0.86945600  0.01241400  1
  C  C51  1  0.03248400  0.19518500  0.94122500  1
  C  C52  1  0.97290900  0.80464800  0.01015100  1
  C  C53  1  0.92286900  0.16488900  0.00768400  1
  C  C54  1  0.07426400  0.83452300  0.99500000  1
  C  C55  1  0.84280500  0.06855700  0.06966200  1
  C  C56  1  0.14628900  0.93020300  0.98139000  1
  C  C57  1  0.87270500  0.00388200  0.06694800  1
  C  C58  1  0.11663800  0.99516900  0.98393500  1
  C  C59  1  0.98305800  0.03441800  0.00150300  1
  C  C60  1  0.01484800  0.96531300  0.99932800  1
  I  I1  1  0.48251900  0.27799700  0.43083800  1
  I  I2  1  0.47556700  0.69764300  0.50893900  1
  O  O1  1  0.95904400  0.45002700  0.86750600  1
  O  O2  1  0.04027400  0.55051100  0.13419700  1
  O  O3  1  0.78411100  0.34578500  0.91798100  1
  O  O4  1  0.21454000  0.65492200  0.08478700  1
  O  O5  1  0.04056700  0.67452500  0.00696000  1
  O  O6  1  0.95898200  0.32644300  0.99468800  1
  O  O7  1  0.21503400  0.79875200  0.93709600  1
  O  O8  1  0.78403700  0.20235300  0.06582300  1
  O  O9  1  0.81762600  0.49299900  0.04857500  1
  O  O10  1  0.18200200  0.50831600  0.95330000  1
  O  O11  1  0.76021900  0.56186800  0.15294700  1
  O  O12  1  0.23970400  0.43975700  0.84900500  1
  O  O13  1  0.18254000  0.63228900  0.82572200  1
  O  O14  1  0.81760900  0.36920100  0.17598000  1
  O  O15  1  0.23969600  0.58328800  0.70158400  1
  O  O16  1  0.75994200  0.41801700  0.30040100  1
