# Generated by REPEAT Assigner based on pymatgen
data_DB0-m2_o8_o14_f0_pcu.sym.45
_audit_creation_date              2022-05-24
_audit_creation_method            REPEAT_Assigner
_cell_length_a                    10.861031
_cell_length_b                    15.559829
_cell_length_c                    17.016135
_cell_angle_alpha                 96.357687
_cell_angle_beta                  89.994634
_cell_angle_gamma                 92.853859
_cell_volume                      2854.382678
_symmetry_space_group_name_H-M    P1
_symmetry_Int_Tables_number       1
loop_
    _symmetry_equiv_pos_site_id
    _symmetry_equiv_pos_as_xyz
    1  x,y,z
loop_
    _atom_site_type_symbol
    _atom_site_label
    _atom_site_fract_x
    _atom_site_fract_y
    _atom_site_fract_z
    _atom_type_partial_charge
    O   O1   0.498527  0.414591  0.372437  -0.632762
    O   O2   0.507980  0.562898  0.379443  -0.584183
    C   C1   0.500505  0.486503  0.338681  0.751680
    O   O3   0.315098  0.420317  0.489435  -0.635373
    O   O4   0.324191  0.568414  0.490893  -0.635321
    C   C2   0.261639  0.494204  0.491860  0.767445
    Cu  Cu1  0.493888  0.409100  0.486666  0.891183
    Cu  Cu2  0.502560  0.582035  0.494470  0.927208
    O   O5   0.497570  0.428149  0.601849  -0.603803
    O   O6   0.506085  0.576849  0.608897  -0.661099
    O   O7   0.672986  0.422493  0.490694  -0.623176
    O   O8   0.682389  0.570769  0.492743  -0.647695
    C   C3   0.498210  0.504683  0.642220  0.778922
    C   C4   0.735379  0.497003  0.494137  0.848454
    H   H1   0.115641  0.574905  0.403303  0.118133
    C   C5   0.119107  0.413010  0.610681  -0.302805
    H   H2   0.218069  0.414206  0.616285  0.173101
    C   C6   0.052961  0.373663  0.666765  -0.078305
    H   H3   0.100506  0.343885  0.711668  0.097800
    C   C7   0.926865  0.374019  0.667174  -0.038234
    H   H4   0.875291  0.344824  0.712535  0.083383
    C   C8   0.866303  0.413926  0.611354  -0.327547
    H   H5   0.767794  0.416149  0.616797  0.169368
    C   C9   0.931279  0.453136  0.553236  0.253586
    C   C10  0.059513  0.452099  0.552531  0.232717
    C   C11  0.126388  0.494452  0.496776  -0.205262
    C   C12  0.064776  0.541224  0.446231  -0.110734
    H   H6   0.890987  0.577644  0.406169  0.113480
    C   C13  0.938140  0.543069  0.447737  -0.062634
    C   C14  0.870498  0.497353  0.499022  -0.290701
    C   C15  0.502003  0.481111  0.252027  -0.226129
    C   C16  0.509774  0.555402  0.214057  -0.029719
    C   C17  0.509888  0.549885  0.132552  -0.163689
    C   C18  0.502195  0.469276  0.088139  0.471039
    C   C19  0.494357  0.395639  0.126321  -0.356185
    C   C20  0.494081  0.401202  0.207517  0.071463
    C   C21  0.489754  0.440584  0.847893  -0.186417
    C   C22  0.489152  0.435606  0.766333  0.006261
    C   C23  0.499143  0.520981  0.892652  0.488126
    N   N1   0.500255  0.459703  0.004426  -0.239940
    N   N2   0.501955  0.530174  0.976313  -0.238247
    C   C24  0.497788  0.509970  0.728746  -0.263933
    H   H7   0.481705  0.372590  0.732378  0.100121
    H   H8   0.482978  0.380369  0.874160  0.072224
    H   H9   0.487179  0.332797  0.092148  0.139936
    H   H10  0.487005  0.341921  0.235203  0.108555
    C   C25  0.504851  0.589659  0.773415  0.086336
    C   C26  0.505611  0.594928  0.854753  -0.380501
    H   H11  0.510126  0.648499  0.745281  0.103369
    H   H12  0.515719  0.610019  0.106180  0.066723
    H   H13  0.512235  0.657783  0.889146  0.142869
    H   H14  0.515552  0.618937  0.247313  0.104057
    N   N3   0.512700  0.711425  0.501132  -0.153880
    C   C27  0.436779  0.750575  0.454431  0.071341
    C   C28  0.439567  0.839602  0.457065  -0.374706
    C   C29  0.519304  0.889452  0.509245  0.591897
    C   C30  0.591325  0.848409  0.558399  -0.411157
    C   C31  0.586594  0.759232  0.553976  0.167642
    C   C32  0.556017  0.149791  0.520887  -0.154874
    C   C33  0.558872  0.238934  0.526523  -0.053942
    C   C34  0.477618  0.101234  0.466890  0.392668
    N   N4   0.527792  0.980851  0.514730  -0.303740
    N   N5   0.470267  0.009763  0.461113  -0.103723
    N   N6   0.485843  0.279710  0.480293  -0.083186
    H   H15  0.619245  0.275486  0.570273  0.171157
    H   H16  0.617674  0.121068  0.559196  0.086722
    H   H17  0.652728  0.886543  0.600056  0.151501
    H   H18  0.645087  0.728177  0.592742  0.110367
    C   C35  0.411895  0.233880  0.425637  0.086808
    C   C36  0.405144  0.144277  0.418133  -0.240779
    H   H19  0.354448  0.268146  0.389263  0.137602
    H   H20  0.377812  0.867238  0.418118  0.175831
    H   H21  0.374559  0.712536  0.413375  0.129231
    C   C37  0.321022  0.096892  0.358208  0.664046
    O   O9   0.276025  0.135292  0.307446  -0.512789
    O   O10  0.288645  0.009327  0.359759  -0.599645
    H   H22  0.226989  0.989441  0.316190  0.412468
