# generated using pymatgen
data_Zn3H40C53O12
_symmetry_space_group_name_H-M   'P 1'
_cell_length_a   44.22989600
_cell_length_b   38.86952000
_cell_length_c   21.49912700
_cell_angle_alpha   90.00000000
_cell_angle_beta   118.50983000
_cell_angle_gamma   90.00000000
_symmetry_Int_Tables_number   1
_chemical_formula_structural   Zn3H40C53O12
_chemical_formula_sum   'Zn12 H160 C212 O48'
_cell_volume   32479.09818014
_cell_formula_units_Z   4
loop_
 _symmetry_equiv_pos_site_id
 _symmetry_equiv_pos_as_xyz
  1  'x, y, z'
loop_
 _atom_site_type_symbol
 _atom_site_label
 _atom_site_symmetry_multiplicity
 _atom_site_fract_x
 _atom_site_fract_y
 _atom_site_fract_z
 _atom_site_occupancy
  Zn  Zn1  1  0.99962900  0.03475600  0.49956200  1
  Zn  Zn2  1  0.49962900  0.53475600  0.49956200  1
  Zn  Zn3  1  0.99993400  0.95686200  0.49993500  1
  Zn  Zn4  1  0.49993400  0.45686200  0.49993500  1
  Zn  Zn5  1  0.03907200  0.99430600  0.03892200  1
  Zn  Zn6  1  0.96120000  0.99477300  0.96140400  1
  Zn  Zn7  1  0.53907200  0.49430600  0.03892200  1
  Zn  Zn8  1  0.46120000  0.49477300  0.96140400  1
  Zn  Zn9  1  0.49951400  0.99458300  0.92935800  1
  Zn  Zn10  1  0.50001700  0.99436900  0.07061200  1
  Zn  Zn11  1  0.99951400  0.49458300  0.92935800  1
  Zn  Zn12  1  0.00001700  0.49436900  0.07061200  1
  H  H1  1  0.05476000  0.99611400  0.35922300  1
  H  H2  1  0.94579700  0.98605000  0.64270400  1
  H  H3  1  0.55476000  0.49611400  0.35922300  1
  H  H4  1  0.44579700  0.48605000  0.64270400  1
  H  H5  1  0.03537900  0.95409800  0.33352400  1
  H  H6  1  0.97188500  0.94776100  0.67329100  1
  H  H7  1  0.53537900  0.45409800  0.33352400  1
  H  H8  1  0.47188500  0.44776100  0.67329100  1
  H  H9  1  0.04144000  0.95906800  0.23611100  1
  H  H10  1  0.96724700  0.95074800  0.77261000  1
  H  H11  1  0.54144000  0.45906800  0.23611100  1
  H  H12  1  0.46724700  0.45074800  0.77261000  1
  H  H13  1  0.05347000  0.00396400  0.25460400  1
  H  H14  1  0.94591400  0.99202700  0.74609700  1
  H  H15  1  0.55347000  0.50396400  0.25460400  1
  H  H16  1  0.44591400  0.49202700  0.74609700  1
  H  H17  1  0.01850000  0.04757500  0.31261800  1
  H  H18  1  0.97291000  0.04298600  0.67717000  1
  H  H19  1  0.51850000  0.54757500  0.31261800  1
  H  H20  1  0.47291000  0.54298600  0.67717000  1
  H  H21  1  0.00850800  0.04962500  0.19990500  1
  H  H22  1  0.98031900  0.04607400  0.78775900  1
  H  H23  1  0.50850800  0.54962500  0.19990500  1
  H  H24  1  0.48031900  0.54607400  0.78775900  1
  H  H25  1  0.97416700  0.94655500  0.27999700  1
  H  H26  1  0.03329700  0.95064700  0.72850800  1
  H  H27  1  0.47416700  0.44655500  0.27999700  1
  H  H28  1  0.53329700  0.45064700  0.72850800  1
  H  H29  1  0.97874400  0.94358200  0.18153200  1
  H  H30  1  0.03206900  0.94868000  0.83071500  1
  H  H31  1  0.47874400  0.44358200  0.18153200  1
  H  H32  1  0.53206900  0.44868000  0.83071500  1
  H  H33  1  0.94622800  0.97630900  0.14273800  1
  H  H34  1  0.05668300  0.98790600  0.85841100  1
  H  H35  1  0.44622800  0.47630900  0.14273800  1
  H  H36  1  0.55668300  0.48790600  0.85841100  1
  H  H37  1  0.97253400  0.04552900  0.27733300  1
  H  H38  1  0.01869500  0.04848300  0.71432300  1
  H  H39  1  0.47253400  0.54552900  0.27733300  1
  H  H40  1  0.51869500  0.54848300  0.71432300  1
  H  H41  1  0.96392100  0.03778800  0.16574700  1
  H  H42  1  0.02652700  0.04383300  0.82554000  1
  H  H43  1  0.46392100  0.53778800  0.16574700  1
  H  H44  1  0.52652700  0.54383300  0.82554000  1
  H  H45  1  0.39011000  0.99314000  0.99413000  1
  H  H46  1  0.60950400  0.99050400  0.00632300  1
  H  H47  1  0.89011000  0.49314000  0.99413000  1
  H  H48  1  0.10950400  0.49050400  0.00632300  1
  H  H49  1  0.32782200  0.99412000  0.93303300  1
  H  H50  1  0.67181300  0.99105300  0.06761400  1
  H  H51  1  0.82782200  0.49412000  0.93303300  1
  H  H52  1  0.17181300  0.49105300  0.06761400  1
  H  H53  1  0.32770500  0.99645800  0.73411500  1
  H  H54  1  0.67171600  0.99864000  0.26589500  1
  H  H55  1  0.82770500  0.49645800  0.73411500  1
  H  H56  1  0.17171600  0.49864000  0.26589500  1
  H  H57  1  0.38995600  0.99619300  0.79494900  1
  H  H58  1  0.60948400  0.99882200  0.20484300  1
  H  H59  1  0.88995600  0.49619300  0.79494900  1
  H  H60  1  0.10948400  0.49882200  0.20484300  1
  H  H61  1  0.28141900  0.03348800  0.71545000  1
  H  H62  1  0.71814700  0.03467500  0.28179300  1
  H  H63  1  0.78141900  0.53348800  0.71545000  1
  H  H64  1  0.21814700  0.53467500  0.28179300  1
  H  H65  1  0.21910200  0.03329000  0.65237600  1
  H  H66  1  0.78043200  0.03443600  0.34494700  1
  H  H67  1  0.71910200  0.53329000  0.65237600  1
  H  H68  1  0.28043200  0.53443600  0.34494700  1
  H  H69  1  0.21793300  0.95935400  0.79842000  1
  H  H70  1  0.78158500  0.95673000  0.20536800  1
  H  H71  1  0.71793300  0.45935400  0.79842000  1
  H  H72  1  0.28158500  0.45673000  0.20536800  1
  H  H73  1  0.28032000  0.95840700  0.85968800  1
  H  H74  1  0.71917700  0.95586700  0.14408800  1
  H  H75  1  0.78032000  0.45840700  0.85968800  1
  H  H76  1  0.21917700  0.45586700  0.14408800  1
  H  H77  1  0.17184000  0.94143800  0.68772500  1
  H  H78  1  0.82817300  0.94084600  0.31730900  1
  H  H79  1  0.67184000  0.44143800  0.68772500  1
  H  H80  1  0.32817300  0.44084600  0.31730900  1
  H  H81  1  0.10962200  0.94098000  0.62298800  1
  H  H82  1  0.89046200  0.94105400  0.38166000  1
  H  H83  1  0.60962200  0.44098000  0.62298800  1
  H  H84  1  0.39046200  0.44105400  0.38166000  1
  H  H85  1  0.10927900  0.05049500  0.60180900  1
  H  H86  1  0.88975200  0.05097500  0.39282400  1
  H  H87  1  0.60927900  0.55049500  0.60180900  1
  H  H88  1  0.38975200  0.55097500  0.39282400  1
  H  H89  1  0.17152400  0.05087700  0.66778700  1
  H  H90  1  0.82756100  0.05067000  0.32733300  1
  H  H91  1  0.67152400  0.55087700  0.66778700  1
  H  H92  1  0.32756100  0.55067000  0.32733300  1
  H  H93  1  0.49697500  0.88475200  0.89634100  1
  H  H94  1  0.50304000  0.88479100  0.10111000  1
  H  H95  1  0.99697500  0.38475200  0.89634100  1
  H  H96  1  0.00304000  0.38479100  0.10111000  1
  H  H97  1  0.49764000  0.82248100  0.89710200  1
  H  H98  1  0.50309000  0.82249300  0.10103300  1
  H  H99  1  0.99764000  0.32248100  0.89710200  1
  H  H100  1  0.00309000  0.32249300  0.10103300  1
  H  H101  1  0.53955600  0.77577200  0.10757500  1
  H  H102  1  0.46150800  0.77560700  0.89083300  1
  H  H103  1  0.03955600  0.27577200  0.10757500  1
  H  H104  1  0.96150800  0.27560700  0.89083300  1
  H  H105  1  0.03914000  0.21338100  0.10813400  1
  H  H106  1  0.96207600  0.21325400  0.89059100  1
  H  H107  1  0.53914000  0.71338100  0.10813400  1
  H  H108  1  0.46207600  0.71325400  0.89059100  1
  H  H109  1  0.94553400  0.16679400  0.94022200  1
  H  H110  1  0.05534700  0.16624900  0.05897000  1
  H  H111  1  0.44553400  0.66679400  0.94022200  1
  H  H112  1  0.55534700  0.66624900  0.05897000  1
  H  H113  1  0.94513200  0.10455300  0.93963400  1
  H  H114  1  0.05507000  0.10392100  0.05961900  1
  H  H115  1  0.44513200  0.60455300  0.93963400  1
  H  H116  1  0.55507000  0.60392100  0.05961900  1
  H  H117  1  0.49582200  0.10434900  0.09679900  1
  H  H118  1  0.50340500  0.10409100  0.90560300  1
  H  H119  1  0.99582200  0.60434900  0.09679900  1
  H  H120  1  0.00340500  0.60409100  0.90560300  1
  H  H121  1  0.49602500  0.16662200  0.09661200  1
  H  H122  1  0.50285400  0.16633600  0.90484700  1
  H  H123  1  0.99602500  0.66666667  0.09661200  1
  H  H124  1  0.00285400  0.66633600  0.90484700  1
  H  H125  1  0.53853600  0.21321800  0.96895600  1
  H  H126  1  0.46031700  0.21350400  0.03197800  1
  H  H127  1  0.03853600  0.71321800  0.96895600  1
  H  H128  1  0.96031700  0.71350400  0.03197800  1
  H  H129  1  0.03805300  0.77552700  0.96717500  1
  H  H130  1  0.96096400  0.77585300  0.03334100  1
  H  H131  1  0.53805300  0.27552700  0.96717500  1
  H  H132  1  0.46096400  0.27585300  0.03334100  1
  H  H133  1  0.94486200  0.82291500  0.95310800  1
  H  H134  1  0.05462400  0.82222700  0.04791200  1
  H  H135  1  0.44486200  0.32291500  0.95310800  1
  H  H136  1  0.55462400  0.32222700  0.04791200  1
  H  H137  1  0.94521600  0.88521200  0.95391900  1
  H  H138  1  0.05506900  0.88444800  0.04744400  1
  H  H139  1  0.44521600  0.38521200  0.95391900  1
  H  H140  1  0.55506900  0.38444800  0.04744400  1
  H  H141  1  0.92606800  0.00771400  0.20740900  1
  H  H142  1  0.93502600  0.99255500  0.29342700  1
  H  H143  1  0.91592900  0.93254000  0.19779700  1
  H  H144  1  0.86923300  0.98636700  0.21202800  1
  H  H145  1  0.85779200  0.94159900  0.17554100  1
  H  H146  1  0.07092100  0.01935100  0.78534700  1
  H  H147  1  0.06428700  0.00096600  0.70317200  1
  H  H148  1  0.09333000  0.94687100  0.81244300  1
  H  H149  1  0.13026400  0.00607700  0.78323400  1
  H  H150  1  0.14900200  0.96442400  0.82983800  1
  H  H151  1  0.42606800  0.50771400  0.20740900  1
  H  H152  1  0.43502600  0.49255500  0.29342700  1
  H  H153  1  0.41592900  0.43254000  0.19779700  1
  H  H154  1  0.36923300  0.48636700  0.21202800  1
  H  H155  1  0.35779200  0.44159900  0.17554100  1
  H  H156  1  0.57092100  0.51935100  0.78534700  1
  H  H157  1  0.56428700  0.50096600  0.70317200  1
  H  H158  1  0.59333000  0.44687100  0.81244300  1
  H  H159  1  0.63026400  0.50607700  0.78323400  1
  H  H160  1  0.64900200  0.46442400  0.82983800  1
  C  C1  1  0.06718700  0.99539000  0.56761400  1
  C  C2  1  0.93237400  0.99624800  0.43186200  1
  C  C3  1  0.56718700  0.49539000  0.56761400  1
  C  C4  1  0.43237400  0.49624800  0.43186200  1
  C  C5  1  0.00044800  0.99643300  0.37867900  1
  C  C6  1  0.99909400  0.99519400  0.62081200  1
  C  C7  1  0.50044800  0.49643300  0.37867900  1
  C  C8  1  0.49909400  0.49519400  0.62081200  1
  C  C9  1  0.03294900  0.98151400  0.31758400  1
  C  C10  1  0.96990800  0.97510600  0.68558600  1
  C  C11  1  0.53294900  0.48151400  0.31758400  1
  C  C12  1  0.46990800  0.47510600  0.68558600  1
  C  C13  1  0.03400400  0.98437200  0.24852300  1
  C  C14  1  0.96899600  0.97711500  0.75486300  1
  C  C15  1  0.53400400  0.48437200  0.24852300  1
  C  C16  1  0.46899600  0.47711500  0.75486300  1
  C  C17  1  0.99510100  0.03237700  0.27878100  1
  C  C18  1  0.99831900  0.03186300  0.71426600  1
  C  C19  1  0.49510100  0.53237700  0.27878100  1
  C  C20  1  0.49831900  0.53186300  0.71426600  1
  C  C21  1  0.97007800  0.97272600  0.25688900  1
  C  C22  1  0.03331900  0.97742500  0.74627200  1
  C  C23  1  0.47007800  0.47272600  0.25688900  1
  C  C24  1  0.53331900  0.47742500  0.74627200  1
  C  C25  1  0.99923400  0.99600600  0.30818200  1
  C  C26  1  0.00052000  0.99522300  0.69151500  1
  C  C27  1  0.49923400  0.49600600  0.30818200  1
  C  C28  1  0.50052000  0.49522300  0.69151500  1
  C  C29  1  0.99879600  0.99494700  0.18990500  1
  C  C30  1  0.00137400  0.99467400  0.81025200  1
  C  C31  1  0.49879600  0.49494700  0.18990500  1
  C  C32  1  0.50137400  0.49467400  0.81025200  1
  C  C33  1  0.99074000  0.03095300  0.20456800  1
  C  C34  1  0.00190300  0.03150100  0.78790100  1
  C  C35  1  0.49074000  0.53095300  0.20456800  1
  C  C36  1  0.50190300  0.53150100  0.78790100  1
  C  C37  1  0.97172400  0.97022700  0.18800700  1
  C  C38  1  0.03292200  0.97596000  0.81652700  1
  C  C39  1  0.47172400  0.47022700  0.18800700  1
  C  C40  1  0.53292200  0.47596000  0.81652700  1
  C  C41  1  0.37671800  0.99388000  0.93696600  1
  C  C42  1  0.62286000  0.99233000  0.06338400  1
  C  C43  1  0.87671800  0.49388000  0.93696600  1
  C  C44  1  0.12286000  0.49233000  0.06338400  1
  C  C45  1  0.34124300  0.99412400  0.90220100  1
  C  C46  1  0.65834000  0.99231600  0.09828500  1
  C  C47  1  0.84124300  0.49412400  0.90220100  1
  C  C48  1  0.15834000  0.49231600  0.09828500  1
  C  C49  1  0.32322200  0.99538600  0.82913400  1
  C  C50  1  0.67630700  0.99490800  0.17120800  1
  C  C51  1  0.82322200  0.49538600  0.82913400  1
  C  C52  1  0.17630700  0.49490800  0.17120800  1
  C  C53  1  0.34118100  0.99618400  0.79130100  1
  C  C54  1  0.65829200  0.99730300  0.20877200  1
  C  C55  1  0.84118100  0.49618400  0.79130100  1
  C  C56  1  0.15829200  0.49730300  0.20877200  1
  C  C57  1  0.37664100  0.99569800  0.82597500  1
  C  C58  1  0.62283400  0.99708300  0.17399000  1
  C  C59  1  0.87664100  0.49569800  0.82597500  1
  C  C60  1  0.12283400  0.49708300  0.17399000  1
  C  C61  1  0.39464300  0.99463700  0.89905200  1
  C  C62  1  0.60488400  0.99468700  0.10104700  1
  C  C63  1  0.89464300  0.49463700  0.89905200  1
  C  C64  1  0.10488400  0.49468700  0.10104700  1
  C  C65  1  0.26774000  0.01677900  0.73366200  1
  C  C66  1  0.73180400  0.01711300  0.26507600  1
  C  C67  1  0.76774000  0.51677900  0.73366200  1
  C  C68  1  0.23180400  0.51711300  0.26507600  1
  C  C69  1  0.23228500  0.01712600  0.69854000  1
  C  C70  1  0.76725100  0.01741500  0.30021300  1
  C  C71  1  0.73228500  0.51712600  0.69854000  1
  C  C72  1  0.26725100  0.51741500  0.30021300  1
  C  C73  1  0.21398200  0.99634600  0.72087500  1
  C  C74  1  0.78555100  0.99562300  0.27965300  1
  C  C75  1  0.71398200  0.49634600  0.72087500  1
  C  C76  1  0.28555100  0.49562300  0.27965300  1
  C  C77  1  0.23165100  0.97545600  0.77927600  1
  C  C78  1  0.76787400  0.97366200  0.22312200  1
  C  C79  1  0.73165100  0.47545600  0.77927600  1
  C  C80  1  0.26787400  0.47366200  0.22312200  1
  C  C81  1  0.26712400  0.97535000  0.81482100  1
  C  C82  1  0.73239400  0.97358700  0.18753500  1
  C  C83  1  0.76712400  0.47535000  0.81482100  1
  C  C84  1  0.23239400  0.47358700  0.18753500  1
  C  C85  1  0.28542600  0.99587700  0.79203400  1
  C  C86  1  0.71410500  0.99521800  0.20845400  1
  C  C87  1  0.78542600  0.49587700  0.79203400  1
  C  C88  1  0.21410500  0.49521800  0.20845400  1
  C  C89  1  0.15831600  0.96558900  0.66986800  1
  C  C90  1  0.84149600  0.96520200  0.33290600  1
  C  C91  1  0.65831600  0.46558900  0.66986800  1
  C  C92  1  0.34149600  0.46520200  0.33290600  1
  C  C93  1  0.12289100  0.96531300  0.63228900  1
  C  C94  1  0.87694400  0.96531800  0.37023900  1
  C  C95  1  0.62289100  0.46531300  0.63228900  1
  C  C96  1  0.37694400  0.46531800  0.37023900  1
  C  C97  1  0.10487200  0.99568900  0.60718300  1
  C  C98  1  0.89468500  0.99601800  0.39244100  1
  C  C99  1  0.60487200  0.49568900  0.60718300  1
  C  C100  1  0.39468500  0.49601800  0.39244100  1
  C  C101  1  0.12270900  0.02634500  0.62039300  1
  C  C102  1  0.87656200  0.02658000  0.37655100  1
  C  C103  1  0.62270900  0.52634500  0.62039300  1
  C  C104  1  0.37656200  0.52658000  0.37655100  1
  C  C105  1  0.15815300  0.02655500  0.65746200  1
  C  C106  1  0.84112900  0.02641300  0.33977600  1
  C  C107  1  0.65815300  0.52655500  0.65746200  1
  C  C108  1  0.34112900  0.52641300  0.33977600  1
  C  C109  1  0.17620400  0.99618300  0.68238000  1
  C  C110  1  0.82333600  0.99573800  0.31781800  1
  C  C111  1  0.67620400  0.49618300  0.68238000  1
  C  C112  1  0.32333600  0.49573800  0.31781800  1
  C  C113  1  0.99978900  0.06192800  0.99954800  1
  C  C114  1  0.49978900  0.56192800  0.99954800  1
  C  C115  1  0.99884800  0.99456600  0.12058900  1
  C  C116  1  0.00138100  0.99442800  0.87966300  1
  C  C117  1  0.49884800  0.49456600  0.12058900  1
  C  C118  1  0.50138100  0.49442800  0.87966300  1
  C  C119  1  0.00047900  0.92715300  0.00078900  1
  C  C120  1  0.50047900  0.42715300  0.00078900  1
  C  C121  1  0.49981600  0.92708700  0.99850000  1
  C  C122  1  0.99981600  0.42708700  0.99850000  1
  C  C123  1  0.43237800  0.99445100  0.93595700  1
  C  C124  1  0.56714900  0.99461900  0.06408700  1
  C  C125  1  0.93237800  0.49445100  0.93595700  1
  C  C126  1  0.06714900  0.49461900  0.06408700  1
  C  C127  1  0.49972600  0.06188900  0.00147200  1
  C  C128  1  0.99972600  0.56188900  0.00147200  1
  C  C129  1  0.49834600  0.87140600  0.94169700  1
  C  C130  1  0.50181000  0.87142400  0.05590000  1
  C  C131  1  0.99834600  0.37140600  0.94169700  1
  C  C132  1  0.00181000  0.37142400  0.05590000  1
  C  C133  1  0.49840400  0.83594800  0.94179700  1
  C  C134  1  0.50217300  0.83596100  0.05620000  1
  C  C135  1  0.99840400  0.33594800  0.94179700  1
  C  C136  1  0.00217300  0.33596100  0.05620000  1
  C  C137  1  0.50039100  0.81798200  0.99909200  1
  C  C138  1  0.00039100  0.31798200  0.99909200  1
  C  C139  1  0.49996600  0.88936700  0.99868900  1
  C  C140  1  0.99996600  0.38936700  0.99868900  1
  C  C141  1  0.52212400  0.76227500  0.05984600  1
  C  C142  1  0.47900400  0.76219000  0.93862200  1
  C  C143  1  0.02212400  0.26227500  0.05984600  1
  C  C144  1  0.97900400  0.26219000  0.93862200  1
  C  C145  1  0.02230500  0.22681200  0.05982500  1
  C  C146  1  0.97891100  0.22673800  0.93882600  1
  C  C147  1  0.52230500  0.72681200  0.05982500  1
  C  C148  1  0.47891100  0.72673800  0.93882600  1
  C  C149  1  0.00060300  0.20879900  0.99938500  1
  C  C150  1  0.50060300  0.70879900  0.99938500  1
  C  C151  1  0.50052300  0.78020900  0.99919600  1
  C  C152  1  0.00052300  0.28020900  0.99919600  1
  C  C153  1  0.96976800  0.15321000  0.96583200  1
  C  C154  1  0.03098200  0.15289800  0.03334500  1
  C  C155  1  0.46976800  0.65321000  0.96583200  1
  C  C156  1  0.53098200  0.65289800  0.03334500  1
  C  C157  1  0.96954900  0.11776100  0.96611300  1
  C  C158  1  0.03082000  0.11742600  0.03312600  1
  C  C159  1  0.46954900  0.61776100  0.96611300  1
  C  C160  1  0.53082000  0.61742600  0.03312600  1
  C  C161  1  0.00008300  0.09964300  0.99961600  1
  C  C162  1  0.50008300  0.59964300  0.99961600  1
  C  C163  1  0.00046500  0.17102500  0.99953200  1
  C  C164  1  0.50046500  0.67102500  0.99953200  1
  C  C165  1  0.49740400  0.11764500  0.05431700  1
  C  C166  1  0.50175300  0.11749600  0.94789800  1
  C  C167  1  0.99740400  0.61764500  0.05431700  1
  C  C168  1  0.00175300  0.61749600  0.94789800  1
  C  C169  1  0.49718900  0.15311000  0.05388700  1
  C  C170  1  0.50175900  0.15295500  0.94777700  1
  C  C171  1  0.99718900  0.65311000  0.05388700  1
  C  C172  1  0.00175900  0.65295500  0.94777700  1
  C  C173  1  0.49943300  0.17101800  0.00070100  1
  C  C174  1  0.99943300  0.67101800  0.00070100  1
  C  C175  1  0.49964100  0.09961400  0.00125400  1
  C  C176  1  0.99964100  0.59961400  0.00125400  1
  C  C177  1  0.52102800  0.22671300  0.98223400  1
  C  C178  1  0.47783700  0.22688000  0.01856000  1
  C  C179  1  0.02102800  0.72671300  0.98223400  1
  C  C180  1  0.97783700  0.72688000  0.01856000  1
  C  C181  1  0.02118500  0.76216600  0.98242600  1
  C  C182  1  0.97777400  0.76234300  0.01813700  1
  C  C183  1  0.52118500  0.26216600  0.98242600  1
  C  C184  1  0.47777400  0.26234300  0.01813700  1
  C  C185  1  0.99952500  0.78024400  0.00027400  1
  C  C186  1  0.49952500  0.28024400  0.00027400  1
  C  C187  1  0.49942100  0.20880700  0.00048300  1
  C  C188  1  0.99942100  0.70880700  0.00048300  1
  C  C189  1  0.96924200  0.83621400  0.97480500  1
  C  C190  1  0.03040400  0.83582000  0.02625100  1
  C  C191  1  0.46924200  0.33621400  0.97480500  1
  C  C192  1  0.53040400  0.33582000  0.02625100  1
  C  C193  1  0.96944100  0.87168500  0.97468000  1
  C  C194  1  0.03065500  0.87127200  0.02658000  1
  C  C195  1  0.46944100  0.37168500  0.97468000  1
  C  C196  1  0.53065500  0.37127200  0.02658000  1
  C  C197  1  0.00016600  0.88943300  0.00066100  1
  C  C198  1  0.50016600  0.38943300  0.00066100  1
  C  C199  1  0.99971300  0.81803200  0.00043900  1
  C  C200  1  0.49971300  0.31803200  0.00043900  1
  C  C201  1  0.93459300  0.98516100  0.24329900  1
  C  C202  1  0.90873800  0.95707000  0.21090200  1
  C  C203  1  0.87661700  0.96201100  0.19863200  1
  C  C204  1  0.06612900  0.99501700  0.75518500  1
  C  C205  1  0.09629800  0.97174900  0.79320900  1
  C  C206  1  0.12707300  0.98138000  0.80281700  1
  C  C207  1  0.43459300  0.48516100  0.24329900  1
  C  C208  1  0.40873800  0.45707000  0.21090200  1
  C  C209  1  0.37661700  0.46201100  0.19863200  1
  C  C210  1  0.56612900  0.49501700  0.75518500  1
  C  C211  1  0.59629800  0.47174900  0.79320900  1
  C  C212  1  0.62707300  0.48138000  0.80281700  1
  O  O1  1  0.05082700  0.02491300  0.54942300  1
  O  O2  1  0.94827300  0.02601000  0.44667900  1
  O  O3  1  0.55082700  0.52491300  0.54942300  1
  O  O4  1  0.44827300  0.52601000  0.44667900  1
  O  O5  1  0.05133600  0.96561100  0.55312500  1
  O  O6  1  0.94868400  0.96669700  0.44978100  1
  O  O7  1  0.55133600  0.46561100  0.55312500  1
  O  O8  1  0.44868400  0.46669700  0.44978100  1
  O  O9  1  0.99933800  0.02617000  0.40631200  1
  O  O10  1  0.99825500  0.02480200  0.59072400  1
  O  O11  1  0.49933800  0.52617000  0.40631200  1
  O  O12  1  0.49825500  0.52480200  0.59072400  1
  O  O13  1  0.00149600  0.96683200  0.40894300  1
  O  O14  1  0.00004400  0.96545200  0.59303700  1
  O  O15  1  0.50149600  0.46683200  0.40894300  1
  O  O16  1  0.50004400  0.46545200  0.59303700  1
  O  O17  1  0.02930300  0.04550800  0.02772500  1
  O  O18  1  0.96998000  0.04612900  0.97127400  1
  O  O19  1  0.52930300  0.54550800  0.02772500  1
  O  O20  1  0.46998000  0.54612900  0.97127400  1
  O  O21  1  0.02856600  0.99351100  0.12089100  1
  O  O22  1  0.97166900  0.99549600  0.87938400  1
  O  O23  1  0.52856600  0.49351100  0.12089100  1
  O  O24  1  0.47166900  0.49549600  0.87938400  1
  O  O25  1  0.96926200  0.99591900  0.06232700  1
  O  O26  1  0.03097600  0.99359100  0.93796200  1
  O  O27  1  0.46926200  0.49591900  0.06232700  1
  O  O28  1  0.53097600  0.49359100  0.93796200  1
  O  O29  1  0.03028500  0.94295300  0.02859800  1
  O  O30  1  0.97097200  0.94357600  0.97305400  1
  O  O31  1  0.53028500  0.44295300  0.02859800  1
  O  O32  1  0.47097200  0.44357600  0.97305400  1
  O  O33  1  0.50039000  0.94316300  0.94543300  1
  O  O34  1  0.49922200  0.94324100  0.05151400  1
  O  O35  1  0.00039000  0.44316300  0.94543300  1
  O  O36  1  0.99922200  0.44324100  0.05151400  1
  O  O37  1  0.44843800  0.99387300  0.89804200  1
  O  O38  1  0.55109100  0.99542400  0.10198700  1
  O  O39  1  0.94843800  0.49387300  0.89804200  1
  O  O40  1  0.05109100  0.49542400  0.10198700  1
  O  O41  1  0.44857300  0.99517200  0.00536200  1
  O  O42  1  0.55095500  0.99384300  0.99467700  1
  O  O43  1  0.94857300  0.49517200  0.00536200  1
  O  O44  1  0.05095500  0.49384300  0.99467700  1
  O  O45  1  0.50047000  0.04573300  0.94861000  1
  O  O46  1  0.49898000  0.04581600  0.05438700  1
  O  O47  1  0.00047000  0.54573300  0.94861000  1
  O  O48  1  0.99898000  0.54581600  0.05438700  1
