# generated using pymatgen
data_ZnH11C26N2O7
_symmetry_space_group_name_H-M   'P 1'
_cell_length_a   21.31722500
_cell_length_b   8.55294800
_cell_length_c   12.31285400
_cell_angle_alpha   90.00000000
_cell_angle_beta   82.45666500
_cell_angle_gamma   90.00000000
_symmetry_Int_Tables_number   1
_chemical_formula_structural   ZnH11C26N2O7
_chemical_formula_sum   'Zn2 H22 C52 N4 O14'
_cell_volume   2225.51448885
_cell_formula_units_Z   2
loop_
 _symmetry_equiv_pos_site_id
 _symmetry_equiv_pos_as_xyz
  1  'x, y, z'
loop_
 _atom_site_type_symbol
 _atom_site_label
 _atom_site_symmetry_multiplicity
 _atom_site_fract_x
 _atom_site_fract_y
 _atom_site_fract_z
 _atom_site_occupancy
  Zn  Zn1  1  0.51465300  0.49735000  0.61406200  1
  Zn  Zn2  1  0.48642400  0.49924300  0.38241800  1
  H  H1  1  0.30322400  0.74911800  0.67399000  1
  H  H2  1  0.30241700  0.24886400  0.66963600  1
  H  H3  1  0.19794300  0.76871800  0.02354300  1
  H  H4  1  0.08511700  0.23307300  0.66365200  1
  H  H5  1  0.69631600  0.74772900  0.32031200  1
  H  H6  1  0.69821000  0.24802800  0.32295100  1
  H  H7  1  0.91048600  0.73066100  0.31221200  1
  H  H8  1  0.80692300  0.25921000  0.98398900  1
  H  H9  1  0.01008900  0.72578100  0.20601200  1
  H  H10  1  0.90572300  0.26687300  0.87522900  1
  H  H11  1  0.09983500  0.76670700  0.13478000  1
  H  H12  1  0.98460300  0.23227600  0.76683200  1
  H  H13  1  0.44937600  0.99725100  0.47878100  1
  H  H14  1  0.55248300  0.99925800  0.51844000  1
  H  H15  1  0.37330600  0.50542700  0.32335300  1
  H  H16  1  0.34140700  0.51130800  0.96114200  1
  H  H17  1  0.55745100  0.49483600  0.15935200  1
  H  H18  1  0.62600700  0.49378900  0.67017900  1
  H  H19  1  0.61287600  0.49661700  0.01078500  1
  H  H20  1  0.67451200  0.49277700  0.83569400  1
  H  H21  1  0.30471400  0.62536300  0.15984200  1
  H  H22  1  0.36728900  0.40502100  0.78582400  1
  C  C1  1  0.22600100  0.91710000  0.83544800  1
  C  C2  1  0.18667800  0.08464700  0.71056600  1
  C  C3  1  0.32285500  0.13888800  0.63976500  1
  C  C4  1  0.32391600  0.85897300  0.64442200  1
  C  C5  1  0.37874500  0.13766200  0.56939800  1
  C  C6  1  0.37920800  0.85885500  0.57235100  1
  C  C7  1  0.29419200  0.99927300  0.67450300  1
  C  C8  1  0.11797000  0.00014600  0.86882700  1
  C  C9  1  0.16772300  0.91615300  0.89991900  1
  C  C10  1  0.12792600  0.08503700  0.77326500  1
  C  C11  1  0.15933200  0.83296200  0.99602800  1
  C  C12  1  0.07886600  0.16788500  0.73946400  1
  C  C13  1  0.40492200  0.99780300  0.53198600  1
  C  C14  1  0.59655800  0.99873200  0.46419500  1
  C  C15  1  0.98979700  0.90463900  0.08925400  1
  C  C16  1  0.95103000  0.08987800  0.96608400  1
  C  C17  1  0.94121000  0.99671200  0.05916600  1
  C  C18  1  0.97682900  0.80746600  0.18026900  1
  C  C19  1  0.90165300  0.18517900  0.94185500  1
  C  C20  1  0.91838700  0.80742100  0.24205900  1
  C  C21  1  0.84383800  0.18339000  0.00580000  1
  C  C22  1  0.87109300  0.90234900  0.21425000  1
  C  C23  1  0.83375400  0.08829200  0.09618600  1
  C  C24  1  0.88225200  0.99574600  0.12288700  1
  C  C25  1  0.77537700  0.08645400  0.16038600  1
  C  C26  1  0.81262500  0.90395800  0.27783000  1
  C  C27  1  0.67709700  0.85775800  0.35257100  1
  C  C28  1  0.67725200  0.13783100  0.35107300  1
  C  C29  1  0.62229000  0.85869700  0.42564600  1
  C  C30  1  0.62208200  0.13795900  0.42347100  1
  C  C31  1  0.70627600  0.99730600  0.31877100  1
  C  C32  1  0.04979000  0.91044900  0.02766000  1
  C  C33  1  0.00972500  0.08672300  0.90007400  1
  C  C34  1  0.05897400  0.99915300  0.93241400  1
  C  C35  1  0.10138200  0.83055800  0.05950600  1
  C  C36  1  0.02046600  0.16840000  0.80143800  1
  C  C37  1  0.41642000  0.27896200  0.54680600  1
  C  C38  1  0.41648300  0.71710400  0.54910600  1
  C  C39  1  0.58482600  0.28019100  0.44665600  1
  C  C40  1  0.58479100  0.71694500  0.44873900  1
  C  C41  1  0.37973500  0.50837200  0.15162300  1
  C  C42  1  0.59545200  0.49414700  0.74721300  1
  C  C43  1  0.62349300  0.49391700  0.84097500  1
  C  C44  1  0.58744800  0.49594600  0.94118000  1
  C  C45  1  0.52203500  0.49824300  0.94824200  1
  C  C46  1  0.49438200  0.49789100  0.85008000  1
  C  C47  1  0.48384900  0.50096400  0.05126400  1
  C  C48  1  0.41891100  0.50604100  0.05374400  1
  C  C49  1  0.39220400  0.50731300  0.95897100  1
  C  C50  1  0.42830600  0.50096500  0.85910900  1
  C  C51  1  0.50778700  0.49890600  0.15264700  1
  C  C52  1  0.40501700  0.50504900  0.24746400  1
  N  N1  1  0.23454400  0.00062900  0.74202600  1
  N  N2  1  0.76576200  0.99557700  0.25040500  1
  N  N3  1  0.46796400  0.50091300  0.24775400  1
  N  N4  1  0.53194100  0.49576100  0.75004300  1
  O  O1  1  0.27482600  0.83777000  0.86732700  1
  O  O2  1  0.19574100  0.16452800  0.61584400  1
  O  O3  1  0.80307100  0.81765000  0.36969400  1
  O  O4  1  0.72752800  0.17237900  0.13127600  1
  O  O5  1  0.42693600  0.32964900  0.44579900  1
  O  O6  1  0.42713600  0.66809100  0.44767100  1
  O  O7  1  0.44639100  0.33303100  0.62507700  1
  O  O8  1  0.44625600  0.66143800  0.62707900  1
  O  O9  1  0.57439500  0.32909500  0.54879000  1
  O  O10  1  0.57442900  0.66666667  0.55061900  1
  O  O11  1  0.55518100  0.33597600  0.36770600  1
  O  O12  1  0.55527300  0.66213400  0.36945400  1
  O  O13  1  0.31543800  0.51275100  0.15464100  1
  O  O14  1  0.39583400  0.49619800  0.77168200  1
