# generated using pymatgen
data_Cu3H57C52N7O12
_symmetry_space_group_name_H-M   'P 1'
_cell_length_a   36.59549200
_cell_length_b   30.08857000
_cell_length_c   21.42158200
_cell_angle_alpha   90.00000000
_cell_angle_beta   55.68118400
_cell_angle_gamma   90.00000000
_symmetry_Int_Tables_number   1
_chemical_formula_structural   Cu3H57C52N7O12
_chemical_formula_sum   'Cu12 H228 C208 N28 O48'
_cell_volume   19481.17193451
_cell_formula_units_Z   4
loop_
 _symmetry_equiv_pos_site_id
 _symmetry_equiv_pos_as_xyz
  1  'x, y, z'
loop_
 _atom_site_type_symbol
 _atom_site_label
 _atom_site_symmetry_multiplicity
 _atom_site_fract_x
 _atom_site_fract_y
 _atom_site_fract_z
 _atom_site_occupancy
  Cu  Cu1  1  0.00028900  0.45371800  0.99836300  1
  Cu  Cu2  1  0.49959000  0.50231000  0.43980600  1
  Cu  Cu3  1  0.00135100  0.00275500  0.56231500  1
  Cu  Cu4  1  0.99959000  0.00231000  0.43980600  1
  Cu  Cu5  1  0.50028900  0.95371800  0.99836300  1
  Cu  Cu6  1  0.00044400  0.54225400  0.99910800  1
  Cu  Cu7  1  0.50044400  0.04225400  0.99910800  1
  Cu  Cu8  1  0.04236100  0.50256800  0.46023100  1
  Cu  Cu9  1  0.95608300  0.50262400  0.53900900  1
  Cu  Cu10  1  0.54236100  0.00256800  0.46023100  1
  Cu  Cu11  1  0.45608300  0.00262400  0.53900900  1
  Cu  Cu12  1  0.50135100  0.50275500  0.56231500  1
  H  H1  1  0.94385500  0.53833300  0.25514300  1
  H  H2  1  0.21978000  0.56156500  0.81929800  1
  H  H3  1  0.23884300  0.05550900  0.39170700  1
  H  H4  1  0.24727800  0.02216600  0.45269400  1
  H  H5  1  0.19172700  0.03507900  0.48046000  1
  H  H6  1  0.79299700  0.92452700  0.58139100  1
  H  H7  1  0.82119400  0.96135000  0.50018600  1
  H  H8  1  0.76393500  0.94733500  0.54319700  1
  H  H9  1  0.76291500  0.05969400  0.61252000  1
  H  H10  1  0.75474000  0.02917400  0.54869700  1
  H  H11  1  0.81019200  0.04085900  0.52254800  1
  H  H12  1  0.63920400  0.45489900  0.22309200  1
  H  H13  1  0.28102000  0.06394600  0.18562700  1
  H  H14  1  0.68011700  0.49099500  0.14874000  1
  H  H15  1  0.62284200  0.49492000  0.18055100  1
  H  H16  1  0.66492200  0.58399700  0.24199600  1
  H  H17  1  0.61159900  0.58312800  0.25594300  1
  H  H18  1  0.66016500  0.56633300  0.16607700  1
  H  H19  1  0.36201600  0.44775300  0.77284200  1
  H  H20  1  0.32015200  0.48115500  0.85101000  1
  H  H21  1  0.37716200  0.48485700  0.82086100  1
  H  H22  1  0.33471200  0.57856800  0.76873400  1
  H  H23  1  0.38762500  0.57619500  0.75615100  1
  H  H24  1  0.71978000  0.06156500  0.81929800  1
  H  H25  1  0.33881800  0.55655700  0.84322000  1
  H  H26  1  0.13920400  0.95489900  0.22309200  1
  H  H27  1  0.18011700  0.99099500  0.14874000  1
  H  H28  1  0.12284200  0.99492000  0.18055100  1
  H  H29  1  0.16492200  0.08399700  0.24199600  1
  H  H30  1  0.11159900  0.08312800  0.25594300  1
  H  H31  1  0.16016500  0.06633300  0.16607700  1
  H  H32  1  0.86201600  0.94775300  0.77284200  1
  H  H33  1  0.82015200  0.98115500  0.85101000  1
  H  H34  1  0.87716200  0.98485700  0.82086100  1
  H  H35  1  0.86134100  0.56236400  0.10429600  1
  H  H36  1  0.83471200  0.07856800  0.76873400  1
  H  H37  1  0.88762500  0.07619500  0.75615100  1
  H  H38  1  0.83881800  0.05655700  0.84322000  1
  H  H39  1  0.88412600  0.50848600  0.36760500  1
  H  H40  1  0.90084300  0.51005100  0.43235900  1
  H  H41  1  0.86282700  0.46803500  0.44136100  1
  H  H42  1  0.96924100  0.41808700  0.36872800  1
  H  H43  1  0.92134900  0.39175600  0.38141000  1
  H  H44  1  0.91496500  0.43005000  0.45192400  1
  H  H45  1  0.11530400  0.50926400  0.62953200  1
  H  H46  1  0.13951500  0.56029500  0.89907100  1
  H  H47  1  0.09768600  0.51218100  0.56612100  1
  H  H48  1  0.13555400  0.46935900  0.55522600  1
  H  H49  1  0.02889100  0.41977200  0.63003200  1
  H  H50  1  0.07692200  0.39338000  0.61671800  1
  H  H51  1  0.08305000  0.43153600  0.54626800  1
  H  H52  1  0.38412600  0.00848600  0.36760500  1
  H  H53  1  0.40084300  0.01005100  0.43235900  1
  H  H54  1  0.36282700  0.96803500  0.44136100  1
  H  H55  1  0.46924100  0.91808700  0.36872800  1
  H  H56  1  0.42134900  0.89175600  0.38141000  1
  H  H57  1  0.36134100  0.06236400  0.10429600  1
  H  H58  1  0.41496500  0.93005000  0.45192400  1
  H  H59  1  0.61530400  0.00926400  0.62953200  1
  H  H60  1  0.59768600  0.01218100  0.56612100  1
  H  H61  1  0.63555400  0.96935900  0.55522600  1
  H  H62  1  0.52889100  0.91977200  0.63003200  1
  H  H63  1  0.57692200  0.89338000  0.61671800  1
  H  H64  1  0.58305000  0.93153600  0.54626800  1
  H  H65  1  0.05181000  0.38775000  0.24313200  1
  H  H66  1  0.11059000  0.39352000  0.19693400  1
  H  H67  1  0.08600100  0.40750800  0.14630200  1
  H  H68  1  0.63951500  0.06029500  0.89907100  1
  H  H69  1  0.10925700  0.51213100  0.21577500  1
  H  H70  1  0.14221200  0.46738900  0.15214100  1
  H  H71  1  0.12341600  0.46521300  0.24991800  1
  H  H72  1  0.94187200  0.38971400  0.75890600  1
  H  H73  1  0.88305000  0.39946800  0.81247000  1
  H  H74  1  0.91304900  0.41065900  0.85477400  1
  H  H75  1  0.89343400  0.51640800  0.77346000  1
  H  H76  1  0.85669500  0.47679700  0.84574700  1
  H  H77  1  0.87556700  0.46774200  0.74883600  1
  H  H78  1  0.55181000  0.88775000  0.24313200  1
  H  H79  1  0.77958700  0.43720800  0.27432500  1
  H  H80  1  0.61059000  0.89352000  0.19693400  1
  H  H81  1  0.58600100  0.90750800  0.14630200  1
  H  H82  1  0.60925700  0.01213100  0.21577500  1
  H  H83  1  0.64221200  0.96738900  0.15214100  1
  H  H84  1  0.62341600  0.96521300  0.24991800  1
  H  H85  1  0.44187200  0.88971400  0.75890600  1
  H  H86  1  0.38305000  0.89946800  0.81247000  1
  H  H87  1  0.41304900  0.91065900  0.85477400  1
  H  H88  1  0.39343400  0.01640800  0.77346000  1
  H  H89  1  0.35669500  0.97679700  0.84574700  1
  H  H90  1  0.22133900  0.43846200  0.72069100  1
  H  H91  1  0.37556700  0.96774200  0.74883600  1
  H  H92  1  0.09419700  0.60705100  0.11756800  1
  H  H93  1  0.04262200  0.58955900  0.13211000  1
  H  H94  1  0.09387500  0.58191200  0.04192700  1
  H  H95  1  0.11255800  0.47608800  0.08104800  1
  H  H96  1  0.14393200  0.52361200  0.02582400  1
  H  H97  1  0.09535100  0.50636000  0.03020400  1
  H  H98  1  0.90741700  0.60946600  0.88596800  1
  H  H99  1  0.95913500  0.58999300  0.86831500  1
  H  H100  1  0.90854100  0.58212700  0.95945000  1
  H  H101  1  0.27958700  0.93720800  0.27432500  1
  H  H102  1  0.88516400  0.47898300  0.91895900  1
  H  H103  1  0.85662100  0.52674500  0.97631600  1
  H  H104  1  0.90527900  0.50589000  0.96829600  1
  H  H105  1  0.59419700  0.10705100  0.11756800  1
  H  H106  1  0.54262200  0.08955900  0.13211000  1
  H  H107  1  0.59387500  0.08191200  0.04192700  1
  H  H108  1  0.61255800  0.97608800  0.08104800  1
  H  H109  1  0.64393200  0.02361200  0.02582400  1
  H  H110  1  0.59535100  0.00636000  0.03020400  1
  H  H111  1  0.40741700  0.10946600  0.88596800  1
  H  H112  1  0.05610100  0.53986200  0.74158200  1
  H  H113  1  0.72133900  0.93846200  0.72069100  1
  H  H114  1  0.45913500  0.08999300  0.86831500  1
  H  H115  1  0.40854100  0.08212700  0.95945000  1
  H  H116  1  0.38516400  0.97898300  0.91895900  1
  H  H117  1  0.35662100  0.02674500  0.97631600  1
  H  H118  1  0.40527900  0.00589000  0.96829600  1
  H  H119  1  0.85720900  0.46524200  0.28688400  1
  H  H120  1  0.91115200  0.43994400  0.22772500  1
  H  H121  1  0.86374000  0.40614000  0.29278200  1
  H  H122  1  0.84339400  0.38136100  0.15507700  1
  H  H123  1  0.82053200  0.37688300  0.25519900  1
  H  H124  1  0.63888400  0.49009700  0.46212500  1
  H  H125  1  0.87626500  0.35892600  0.18614300  1
  H  H126  1  0.14775700  0.46791800  0.70445000  1
  H  H127  1  0.09330400  0.44330300  0.75911500  1
  H  H128  1  0.14097000  0.40907100  0.69669300  1
  H  H129  1  0.15412100  0.38175100  0.84200500  1
  H  H130  1  0.18029100  0.37790800  0.74079300  1
  H  H131  1  0.12365100  0.36082000  0.80525500  1
  H  H132  1  0.35720900  0.96524200  0.28688400  1
  H  H133  1  0.41115200  0.93994400  0.22772500  1
  H  H134  1  0.36374000  0.90614000  0.29278200  1
  H  H135  1  0.36243200  0.49336400  0.53837700  1
  H  H136  1  0.34339400  0.88136100  0.15507700  1
  H  H137  1  0.32053200  0.87688300  0.25519900  1
  H  H138  1  0.37626500  0.85892600  0.18614300  1
  H  H139  1  0.64775700  0.96791800  0.70445000  1
  H  H140  1  0.59330400  0.94330300  0.75911500  1
  H  H141  1  0.64097000  0.90907100  0.69669300  1
  H  H142  1  0.65412100  0.88175100  0.84200500  1
  H  H143  1  0.68029100  0.87790800  0.74079300  1
  H  H144  1  0.62365100  0.86082000  0.80525500  1
  H  H145  1  0.13888400  0.99009700  0.46212500  1
  H  H146  1  0.86243200  0.99336400  0.53837700  1
  H  H147  1  0.72331000  0.51653200  0.18875600  1
  H  H148  1  0.27705200  0.51171700  0.81364200  1
  H  H149  1  0.22331000  0.01653200  0.18875600  1
  H  H150  1  0.77705200  0.01171700  0.81364200  1
  H  H151  1  0.93943600  0.36352800  0.50467900  1
  H  H152  1  0.44385500  0.03833300  0.25514300  1
  H  H153  1  0.05899100  0.36398900  0.49657600  1
  H  H154  1  0.43943600  0.86352800  0.50467900  1
  H  H155  1  0.55899100  0.86398900  0.49657600  1
  H  H156  1  0.51403300  0.72344800  0.58437900  1
  H  H157  1  0.48526400  0.72292300  0.41687400  1
  H  H158  1  0.01403300  0.22344800  0.58437900  1
  H  H159  1  0.98526400  0.22292300  0.41687400  1
  H  H160  1  0.51435500  0.64279700  0.58461000  1
  H  H161  1  0.48568800  0.64223000  0.41659000  1
  H  H162  1  0.01435500  0.14279700  0.58461000  1
  H  H163  1  0.55610100  0.03986200  0.74158200  1
  H  H164  1  0.98568800  0.14223000  0.41659000  1
  H  H165  1  0.93458200  0.72229300  0.60123200  1
  H  H166  1  0.06679800  0.72221900  0.40394100  1
  H  H167  1  0.43458200  0.22229300  0.60123200  1
  H  H168  1  0.56679800  0.22221900  0.40394100  1
  H  H169  1  0.93362700  0.64165300  0.59964500  1
  H  H170  1  0.06677300  0.64160300  0.40308700  1
  H  H171  1  0.43362700  0.14165300  0.59964500  1
  H  H172  1  0.56677300  0.14160300  0.40308700  1
  H  H173  1  0.93989200  0.28288500  0.50432200  1
  H  H174  1  0.00282800  0.42220700  0.21035600  1
  H  H175  1  0.05901400  0.28338700  0.49686000  1
  H  H176  1  0.43989200  0.78288500  0.50432200  1
  H  H177  1  0.55901400  0.78338700  0.49686000  1
  H  H178  1  0.52630700  0.28166800  0.38477800  1
  H  H179  1  0.47509500  0.28216400  0.61983300  1
  H  H180  1  0.02630700  0.78166800  0.38477800  1
  H  H181  1  0.97509500  0.78216400  0.61983300  1
  H  H182  1  0.52602600  0.36248100  0.38422300  1
  H  H183  1  0.47540500  0.36302800  0.61943700  1
  H  H184  1  0.02602600  0.86248100  0.38422300  1
  H  H185  1  0.99604100  0.42368600  0.78731300  1
  H  H186  1  0.97540500  0.86302800  0.61943700  1
  H  H187  1  0.93963400  0.59973600  0.32483800  1
  H  H188  1  0.96669600  0.63950600  0.34762600  1
  H  H189  1  0.95260600  0.58554000  0.39227300  1
  H  H190  1  0.02644700  0.61179800  0.34633400  1
  H  H191  1  0.06224800  0.62532500  0.24768100  1
  H  H192  1  0.06201600  0.56988300  0.27983600  1
  H  H193  1  0.05938500  0.60170300  0.67173200  1
  H  H194  1  0.03105100  0.64161200  0.65147700  1
  H  H195  1  0.04405200  0.58777200  0.60724500  1
  H  H196  1  0.50282800  0.92220700  0.21035600  1
  H  H197  1  0.96278300  0.58777300  0.66161800  1
  H  H198  1  0.95389100  0.63802700  0.71381400  1
  H  H199  1  0.92439200  0.58828100  0.76250600  1
  H  H200  1  0.43963400  0.09973600  0.32483800  1
  H  H201  1  0.46669600  0.13950600  0.34762600  1
  H  H202  1  0.45260600  0.08554000  0.39227300  1
  H  H203  1  0.52644700  0.11179800  0.34633400  1
  H  H204  1  0.56224800  0.12532500  0.24768100  1
  H  H205  1  0.56201600  0.06988300  0.27983600  1
  H  H206  1  0.55938500  0.10170300  0.67173200  1
  H  H207  1  0.49604100  0.92368600  0.78731300  1
  H  H208  1  0.53105100  0.14161200  0.65147700  1
  H  H209  1  0.54405200  0.08777200  0.60724500  1
  H  H210  1  0.46278300  0.08777300  0.66161800  1
  H  H211  1  0.45389100  0.13802700  0.71381400  1
  H  H212  1  0.42439200  0.08828100  0.76250600  1
  H  H213  1  0.70831500  0.42055700  0.41301400  1
  H  H214  1  0.68058000  0.45526000  0.49693300  1
  H  H215  1  0.73785900  0.44060900  0.45206600  1
  H  H216  1  0.73884300  0.55550900  0.39170700  1
  H  H217  1  0.74727800  0.52216600  0.45269400  1
  H  H218  1  0.78102000  0.56394600  0.18562700  1
  H  H219  1  0.69172700  0.53507900  0.48046000  1
  H  H220  1  0.29299700  0.42452700  0.58139100  1
  H  H221  1  0.32119400  0.46135000  0.50018600  1
  H  H222  1  0.26393500  0.44733500  0.54319700  1
  H  H223  1  0.26291500  0.55969400  0.61252000  1
  H  H224  1  0.25474000  0.52917400  0.54869700  1
  H  H225  1  0.31019200  0.54085900  0.52254800  1
  H  H226  1  0.20831500  0.92055700  0.41301400  1
  H  H227  1  0.18058000  0.95526000  0.49693300  1
  H  H228  1  0.23785900  0.94060900  0.45206600  1
  C  C1  1  0.91553000  0.49807100  0.09070200  1
  C  C2  1  0.03258600  0.34660300  0.49839900  1
  C  C3  1  0.77420000  0.00043500  0.71861200  1
  C  C4  1  0.99917100  0.36963900  0.50071400  1
  C  C5  1  0.49917100  0.86963900  0.50071400  1
  C  C6  1  0.99946100  0.27751700  0.50061700  1
  C  C7  1  0.49946100  0.77751700  0.50061700  1
  C  C8  1  0.50074200  0.27642600  0.50232400  1
  C  C9  1  0.00074200  0.77642600  0.50232400  1
  C  C10  1  0.99951800  0.58689400  0.49942300  1
  C  C11  1  0.49951800  0.08689400  0.49942300  1
  C  C12  1  0.00205300  0.50181200  0.37855100  1
  C  C13  1  0.46590600  0.84633800  0.50294400  1
  C  C14  1  0.99630700  0.50318700  0.62085000  1
  C  C15  1  0.50205300  0.00181200  0.37855100  1
  C  C16  1  0.49630700  0.00318700  0.62085000  1
  C  C17  1  0.99910600  0.41833400  0.50056200  1
  C  C18  1  0.49910600  0.91833400  0.50056200  1
  C  C19  1  0.50005400  0.63668400  0.50058800  1
  C  C20  1  0.00005400  0.13668400  0.50058800  1
  C  C21  1  0.50023200  0.58798800  0.50069300  1
  C  C22  1  0.00023200  0.08798800  0.50069300  1
  C  C23  1  0.58572600  0.50322500  0.41615500  1
  C  C24  1  0.53258600  0.84660300  0.49839900  1
  C  C25  1  0.41519500  0.50270800  0.58594700  1
  C  C26  1  0.08572600  0.00322500  0.41615500  1
  C  C27  1  0.91519500  0.00270800  0.58594700  1
  C  C28  1  0.50788400  0.65999700  0.54752000  1
  C  C29  1  0.49200600  0.65968900  0.45366900  1
  C  C30  1  0.00788400  0.15999700  0.54752000  1
  C  C31  1  0.99200600  0.15968900  0.45366900  1
  C  C32  1  0.50067300  0.41714000  0.50148600  1
  C  C33  1  0.00067300  0.91714000  0.50148600  1
  C  C34  1  0.96378000  0.70466200  0.55778700  1
  C  C35  1  0.50811700  0.70580300  0.54693600  1
  C  C36  1  0.03740100  0.70463200  0.44691100  1
  C  C37  1  0.46378000  0.20466200  0.55778700  1
  C  C38  1  0.53740100  0.20463200  0.44691100  1
  C  C39  1  0.96322000  0.65886500  0.55647400  1
  C  C40  1  0.03737500  0.65884000  0.44678300  1
  C  C41  1  0.46322000  0.15886500  0.55647400  1
  C  C42  1  0.53737500  0.15884000  0.44678300  1
  C  C43  1  0.00002000  0.63564400  0.50085900  1
  C  C44  1  0.50002000  0.13564400  0.50085900  1
  C  C45  1  0.00066400  0.72775500  0.50247900  1
  C  C46  1  0.49134200  0.70550200  0.45429600  1
  C  C47  1  0.50066400  0.22775500  0.50247900  1
  C  C48  1  0.51531800  0.29939300  0.43641400  1
  C  C49  1  0.48614800  0.29967300  0.56798700  1
  C  C50  1  0.01531800  0.79939300  0.43641400  1
  C  C51  1  0.98614800  0.79967300  0.56798700  1
  C  C52  1  0.51474300  0.34519500  0.43633800  1
  C  C53  1  0.48672500  0.34549300  0.56751400  1
  C  C54  1  0.01474300  0.84519500  0.43633800  1
  C  C55  1  0.98672500  0.84549300  0.56751400  1
  C  C56  1  0.50072900  0.36847400  0.50178500  1
  C  C57  1  0.00811700  0.20580300  0.54693600  1
  C  C58  1  0.00072900  0.86847400  0.50178500  1
  C  C59  1  0.49962600  0.72879900  0.50062600  1
  C  C60  1  0.99962600  0.22879900  0.50062600  1
  C  C61  1  0.96416100  0.60354500  0.33920200  1
  C  C62  1  0.04127400  0.59897400  0.28857100  1
  C  C63  1  0.03382400  0.60570900  0.65976700  1
  C  C64  1  0.95631100  0.60132800  0.71465300  1
  C  C65  1  0.46416100  0.10354500  0.33920200  1
  C  C66  1  0.54127400  0.09897400  0.28857100  1
  C  C67  1  0.53382400  0.10570900  0.65976700  1
  C  C68  1  0.99134200  0.20550200  0.45429600  1
  C  C69  1  0.45631100  0.10132800  0.71465300  1
  C  C70  1  0.71217400  0.44900300  0.44177000  1
  C  C71  1  0.72582300  0.52727400  0.43198700  1
  C  C72  1  0.28942500  0.45423300  0.55459600  1
  C  C73  1  0.27599400  0.53256000  0.57014700  1
  C  C74  1  0.21217400  0.94900300  0.44177000  1
  C  C75  1  0.22582300  0.02727400  0.43198700  1
  C  C76  1  0.78942600  0.95423300  0.55459600  1
  C  C77  1  0.77599400  0.03256000  0.57014700  1
  C  C78  1  0.64543600  0.48876900  0.19866400  1
  C  C79  1  0.96633300  0.30052700  0.50207600  1
  C  C80  1  0.64396800  0.56594100  0.22810700  1
  C  C81  1  0.35500900  0.48043400  0.80138800  1
  C  C82  1  0.35550200  0.55889700  0.78117900  1
  C  C83  1  0.14543600  0.98876900  0.19866400  1
  C  C84  1  0.14396800  0.06594100  0.22810700  1
  C  C85  1  0.85500900  0.98043400  0.80138800  1
  C  C86  1  0.85550200  0.05889700  0.78117900  1
  C  C87  1  0.89247800  0.48802700  0.40088000  1
  C  C88  1  0.93394900  0.42287300  0.39053800  1
  C  C89  1  0.10625300  0.48949000  0.59656600  1
  C  C90  1  0.03244500  0.30080300  0.49918300  1
  C  C91  1  0.06427400  0.42448800  0.60766600  1
  C  C92  1  0.39247800  0.98802700  0.40088000  1
  C  C93  1  0.43394900  0.92287300  0.39053800  1
  C  C94  1  0.60625300  0.98949000  0.59656600  1
  C  C95  1  0.56427400  0.92448800  0.60766600  1
  C  C96  1  0.08109800  0.40805300  0.20229000  1
  C  C97  1  0.11449900  0.47582100  0.21055900  1
  C  C98  1  0.91478200  0.41164800  0.80144800  1
  C  C99  1  0.88509700  0.48076300  0.78618000  1
  C  C100  1  0.58109800  0.90805300  0.20229000  1
  C  C101  1  0.46633300  0.80052700  0.50207600  1
  C  C102  1  0.61449900  0.97582100  0.21055900  1
  C  C103  1  0.41478200  0.91164800  0.80144800  1
  C  C104  1  0.38509700  0.98076300  0.78618000  1
  C  C105  1  0.07806300  0.58140700  0.10382000  1
  C  C106  1  0.11014500  0.50959400  0.06290700  1
  C  C107  1  0.92344900  0.58264500  0.89783500  1
  C  C108  1  0.88964700  0.51148800  0.93739500  1
  C  C109  1  0.57806300  0.08140700  0.10382000  1
  C  C110  1  0.61014500  0.00959400  0.06290700  1
  C  C111  1  0.42344900  0.08264500  0.89783500  1
  C  C112  1  0.08520500  0.49793600  0.90704200  1
  C  C113  1  0.53244500  0.80080300  0.49918300  1
  C  C114  1  0.38964700  0.01148800  0.93739500  1
  C  C115  1  0.87524400  0.43508100  0.25410400  1
  C  C116  1  0.85077900  0.38399800  0.19854700  1
  C  C117  1  0.12875800  0.43780700  0.73587100  1
  C  C118  1  0.14900300  0.38521700  0.79589800  1
  C  C119  1  0.37524400  0.93508100  0.25410400  1
  C  C120  1  0.35077900  0.88399800  0.19854700  1
  C  C121  1  0.62875800  0.93780700  0.73587100  1
  C  C122  1  0.64900300  0.88521700  0.79589800  1
  C  C123  1  0.97178100  0.52101000  0.25128000  1
  C  C124  1  0.02778200  0.52263600  0.74664500  1
  C  C125  1  0.47178100  0.02101000  0.25128000  1
  C  C126  1  0.52778200  0.02263600  0.74664500  1
  C  C127  1  0.00684700  0.54073400  0.26056600  1
  C  C128  1  0.99227600  0.54274200  0.73876700  1
  C  C129  1  0.50684700  0.04073400  0.26056600  1
  C  C130  1  0.49227600  0.04274200  0.73876700  1
  C  C131  1  0.00360500  0.50092400  0.30716500  1
  C  C132  1  0.41553000  0.99807100  0.09070200  1
  C  C133  1  0.99476400  0.50311800  0.69235200  1
  C  C134  1  0.50360500  0.00092400  0.30716500  1
  C  C135  1  0.49476400  0.00311800  0.69235200  1
  C  C136  1  0.96974600  0.48082300  0.29589200  1
  C  C137  1  0.02904200  0.48261800  0.70233800  1
  C  C138  1  0.46974600  0.98082300  0.29589200  1
  C  C139  1  0.52904200  0.98261800  0.70233800  1
  C  C140  1  0.00520400  0.45704900  0.22458300  1
  C  C141  1  0.99389700  0.45877900  0.77387200  1
  C  C142  1  0.50520400  0.95704900  0.22458300  1
  C  C143  1  0.58520500  0.99793600  0.90704200  1
  C  C144  1  0.49389700  0.95877900  0.77387200  1
  C  C145  1  0.03961300  0.47821700  0.23440700  1
  C  C146  1  0.95916500  0.48046100  0.76551300  1
  C  C147  1  0.53961300  0.97821700  0.23440700  1
  C  C148  1  0.45916500  0.98046100  0.76551300  1
  C  C149  1  0.04287400  0.51817500  0.18830600  1
  C  C150  1  0.95672300  0.52008500  0.81140400  1
  C  C151  1  0.54287400  0.01817500  0.18830600  1
  C  C152  1  0.45672300  0.02008500  0.81140400  1
  C  C153  1  0.00820100  0.49783600  0.17970400  1
  C  C154  1  0.00665300  0.49768000  0.11198000  1
  C  C155  1  0.99178500  0.49931300  0.81847300  1
  C  C156  1  0.50820100  0.99783600  0.17970400  1
  C  C157  1  0.49178500  0.99931300  0.81847300  1
  C  C158  1  0.79843200  0.53541500  0.18719900  1
  C  C159  1  0.20240300  0.53388700  0.81521300  1
  C  C160  1  0.29843200  0.03541500  0.18719900  1
  C  C161  1  0.70240300  0.03388700  0.81521300  1
  C  C162  1  0.84396300  0.53465300  0.14170600  1
  C  C163  1  0.15686100  0.53330000  0.85986400  1
  C  C164  1  0.34396300  0.03465200  0.14170600  1
  C  C165  1  0.99360500  0.49837800  0.88593400  1
  C  C166  1  0.65686100  0.03330000  0.85986400  1
  C  C167  1  0.86702300  0.49846700  0.14222400  1
  C  C168  1  0.13379100  0.49819900  0.85615500  1
  C  C169  1  0.36702300  0.99846700  0.14222400  1
  C  C170  1  0.63379100  0.99819900  0.85615500  1
  C  C171  1  0.84402200  0.46307900  0.19043000  1
  C  C172  1  0.15692200  0.46376300  0.80555400  1
  C  C173  1  0.34402200  0.96307900  0.19043000  1
  C  C174  1  0.65692200  0.96376300  0.80555400  1
  C  C175  1  0.79815200  0.46428800  0.23648400  1
  C  C176  1  0.50665300  0.99768000  0.11198000  1
  C  C177  1  0.20279400  0.46483900  0.76034600  1
  C  C178  1  0.29815200  0.96428800  0.23648400  1
  C  C179  1  0.70279400  0.96483900  0.76034600  1
  C  C180  1  0.77528900  0.50038000  0.23505900  1
  C  C181  1  0.22561300  0.49982300  0.76497300  1
  C  C182  1  0.27528900  0.00038000  0.23505900  1
  C  C183  1  0.72561300  0.99982300  0.76497300  1
  C  C184  1  0.70299500  0.49366500  0.35915400  1
  C  C185  1  0.29818800  0.49516100  0.64106900  1
  C  C186  1  0.20299500  0.99366500  0.35915400  1
  C  C187  1  0.49360500  0.99837800  0.88593400  1
  C  C188  1  0.79818800  0.99516100  0.64106900  1
  C  C189  1  0.65719400  0.49494900  0.40182100  1
  C  C190  1  0.34396600  0.49638500  0.59902500  1
  C  C191  1  0.15719400  0.99494900  0.40182100  1
  C  C192  1  0.84396600  0.99638500  0.59902500  1
  C  C193  1  0.63463500  0.50290000  0.36835300  1
  C  C194  1  0.36626300  0.50217500  0.63350700  1
  C  C195  1  0.13463500  0.00290000  0.36835300  1
  C  C196  1  0.86626300  0.00217500  0.63350700  1
  C  C197  1  0.65870100  0.51090400  0.29095700  1
  C  C198  1  0.96590600  0.34633800  0.50294400  1
  C  C199  1  0.34188700  0.50790900  0.71151600  1
  C  C200  1  0.15870100  0.01090400  0.29095700  1
  C  C201  1  0.84188700  0.00790900  0.71151600  1
  C  C202  1  0.70446300  0.51011700  0.24878900  1
  C  C203  1  0.29613000  0.50713600  0.75311300  1
  C  C204  1  0.20446300  0.01011700  0.24878900  1
  C  C205  1  0.79613000  0.00713600  0.75311300  1
  C  C206  1  0.72669400  0.50113100  0.28211700  1
  C  C207  1  0.27420000  0.50043500  0.71861200  1
  C  C208  1  0.22669400  0.00113100  0.28211700  1
  N  N1  1  0.00676900  0.58712700  0.27861600  1
  N  N2  1  0.36335200  0.51516200  0.74859700  1
  N  N3  1  0.13687000  0.02087600  0.25530700  1
  N  N4  1  0.86335200  0.01516200  0.74859700  1
  N  N5  1  0.92885600  0.45878000  0.35155200  1
  N  N6  1  0.06971300  0.46045500  0.64611700  1
  N  N7  1  0.42885600  0.95878000  0.35155200  1
  N  N8  1  0.56971300  0.96045500  0.64611700  1
  N  N9  1  0.07484200  0.45296800  0.22962500  1
  N  N10  1  0.92278300  0.45634000  0.77269100  1
  N  N11  1  0.57484200  0.95296800  0.22962500  1
  N  N12  1  0.99177600  0.58930600  0.72206100  1
  N  N13  1  0.42278300  0.95634000  0.77269100  1
  N  N14  1  0.08363500  0.53839400  0.12718400  1
  N  N15  1  0.91651800  0.54055100  0.87365500  1
  N  N16  1  0.58363500  0.03839400  0.12718400  1
  N  N17  1  0.41651800  0.04055100  0.87365500  1
  N  N18  1  0.86765100  0.42774300  0.19585600  1
  N  N19  1  0.13355800  0.42946800  0.79709100  1
  N  N20  1  0.36765100  0.92774300  0.19585600  1
  N  N21  1  0.63355800  0.92946800  0.79709100  1
  N  N22  1  0.50676900  0.08712700  0.27861600  1
  N  N23  1  0.49177600  0.08930600  0.72206100  1
  N  N24  1  0.72583700  0.48776100  0.39418400  1
  N  N25  1  0.27566500  0.49160800  0.60509900  1
  N  N26  1  0.22583700  0.98776100  0.39418400  1
  N  N27  1  0.77566500  0.99160800  0.60509900  1
  N  N28  1  0.63687000  0.52087600  0.25530700  1
  O  O1  1  0.93607200  0.45987200  0.06536200  1
  O  O2  1  0.99659600  0.45985000  0.91129700  1
  O  O3  1  0.50730600  0.95949900  0.08188900  1
  O  O4  1  0.49659600  0.95985000  0.91129700  1
  O  O5  1  0.00658100  0.53612100  0.08347400  1
  O  O6  1  0.99759400  0.53641200  0.91120000  1
  O  O7  1  0.50658100  0.03612100  0.08347400  1
  O  O8  1  0.49759400  0.03641200  0.91120000  1
  O  O9  1  0.03618600  0.56588800  0.44803800  1
  O  O10  1  0.96248500  0.56606600  0.54989300  1
  O  O11  1  0.53618600  0.06588800  0.44803800  1
  O  O12  1  0.06422900  0.45969300  0.92667400  1
  O  O13  1  0.46248500  0.06606600  0.54989300  1
  O  O14  1  0.03776700  0.48979600  0.37547400  1
  O  O15  1  0.96068500  0.49069900  0.62399800  1
  O  O16  1  0.53776700  0.98979600  0.37547400  1
  O  O17  1  0.46068500  0.99069900  0.62399800  1
  O  O18  1  0.96505600  0.51450800  0.44162300  1
  O  O19  1  0.03338400  0.51533100  0.55739300  1
  O  O20  1  0.46505600  0.01450800  0.44162300  1
  O  O21  1  0.53338400  0.01533100  0.55739300  1
  O  O22  1  0.03508500  0.43928900  0.48483600  1
  O  O23  1  0.43607200  0.95987200  0.06536200  1
  O  O24  1  0.96316100  0.43915300  0.51583200  1
  O  O25  1  0.53508500  0.93928900  0.48483600  1
  O  O26  1  0.46316100  0.93915300  0.51583200  1
  O  O27  1  0.49973100  0.56733100  0.55503200  1
  O  O28  1  0.50086300  0.56695900  0.44650400  1
  O  O29  1  0.99973100  0.06733100  0.55503200  1
  O  O30  1  0.00086300  0.06695900  0.44650400  1
  O  O31  1  0.56551000  0.50080100  0.48980500  1
  O  O32  1  0.43545200  0.50008700  0.51232700  1
  O  O33  1  0.06551000  0.00080100  0.48980500  1
  O  O34  1  0.56422900  0.95969300  0.92667400  1
  O  O35  1  0.93545200  0.00008700  0.51232700  1
  O  O36  1  0.56403700  0.50131300  0.38403500  1
  O  O37  1  0.43690400  0.50136700  0.61808700  1
  O  O38  1  0.06403700  0.00131300  0.38403500  1
  O  O39  1  0.93690400  0.00136700  0.61808700  1
  O  O40  1  0.49908000  0.43812600  0.55668200  1
  O  O41  1  0.50219800  0.43775300  0.44605400  1
  O  O42  1  0.99908000  0.93812600  0.55668200  1
  O  O43  1  0.00219800  0.93775300  0.44605400  1
  O  O44  1  0.93640000  0.53628900  0.06966000  1
  O  O45  1  0.06472800  0.53616600  0.93332400  1
  O  O46  1  0.43640000  0.03628900  0.06966000  1
  O  O47  1  0.56472800  0.03616600  0.93332400  1
  O  O48  1  0.00730600  0.45949900  0.08188900  1
