# generated using pymatgen
data_Zn3H32C48S4(NO3)4
_symmetry_space_group_name_H-M   'P 1'
_cell_length_a   30.31913700
_cell_length_b   30.31913400
_cell_length_c   38.60699700
_cell_angle_alpha   90.00000000
_cell_angle_beta   90.00000000
_cell_angle_gamma   90.00000000
_symmetry_Int_Tables_number   1
_chemical_formula_structural   Zn3H32C48S4(NO3)4
_chemical_formula_sum   'Zn12 H128 C192 S16 N16 O48'
_cell_volume   35489.48112233
_cell_formula_units_Z   4
loop_
 _symmetry_equiv_pos_site_id
 _symmetry_equiv_pos_as_xyz
  1  'x, y, z'
loop_
 _atom_site_type_symbol
 _atom_site_label
 _atom_site_symmetry_multiplicity
 _atom_site_fract_x
 _atom_site_fract_y
 _atom_site_fract_z
 _atom_site_occupancy
  Zn  Zn1  1  0.00006900  0.45011000  0.50016200  1
  Zn  Zn2  1  0.45008000  0.99983800  0.49995800  1
  Zn  Zn3  1  0.99988300  0.55001300  0.49993300  1
  Zn  Zn4  1  0.54998400  0.00007900  0.50014000  1
  Zn  Zn5  1  0.50007000  0.95011100  0.00016200  1
  Zn  Zn6  1  0.95008100  0.49984000  0.99995800  1
  Zn  Zn7  1  0.49988400  0.05001400  0.99993300  1
  Zn  Zn8  1  0.04998500  0.50008000  0.00014000  1
  Zn  Zn9  1  0.50007700  0.49991000  0.46062000  1
  Zn  Zn10  1  0.49988900  0.50002500  0.53907200  1
  Zn  Zn11  1  0.00007800  0.99991100  0.96062000  1
  Zn  Zn12  1  0.99988900  0.00002600  0.03907200  1
  H  H1  1  0.05995900  0.53578200  0.32725700  1
  H  H2  1  0.53750200  0.94021200  0.32710200  1
  H  H3  1  0.93930400  0.46249500  0.32730800  1
  H  H4  1  0.46417500  0.06084200  0.32746400  1
  H  H5  1  0.05845300  0.46077100  0.67270000  1
  H  H6  1  0.53942500  0.05753200  0.67287700  1
  H  H7  1  0.94243400  0.54117700  0.67301100  1
  H  H8  1  0.45905800  0.94148600  0.67283700  1
  H  H9  1  0.55995900  0.03578200  0.82725700  1
  H  H10  1  0.03750300  0.44021300  0.82710300  1
  H  H11  1  0.43930400  0.96249600  0.82730900  1
  H  H12  1  0.96417600  0.56084300  0.82746400  1
  H  H13  1  0.55845300  0.96077200  0.17270000  1
  H  H14  1  0.03942600  0.55753300  0.17287700  1
  H  H15  1  0.44243400  0.04117800  0.17301100  1
  H  H16  1  0.95905900  0.44148700  0.17283700  1
  H  H17  1  0.22058100  0.56612700  0.51998200  1
  H  H18  1  0.56757500  0.77938500  0.51723900  1
  H  H19  1  0.77949500  0.43261100  0.51802600  1
  H  H20  1  0.43382600  0.22039400  0.52077500  1
  H  H21  1  0.22007000  0.43543500  0.47886300  1
  H  H22  1  0.56451700  0.22022300  0.47965300  1
  H  H23  1  0.77971700  0.56602400  0.48270900  1
  H  H24  1  0.43416200  0.77979300  0.48192600  1
  H  H25  1  0.72058300  0.06612700  0.01998200  1
  H  H26  1  0.06757600  0.27938600  0.01723900  1
  H  H27  1  0.27949600  0.93261300  0.01802600  1
  H  H28  1  0.93382700  0.72039500  0.02077500  1
  H  H29  1  0.72006900  0.93543500  0.97886300  1
  H  H30  1  0.06451900  0.72022500  0.97965300  1
  H  H31  1  0.27971800  0.06602500  0.98270900  1
  H  H32  1  0.93416300  0.27979400  0.98192600  1
  H  H33  1  0.14032500  0.56660500  0.51994000  1
  H  H34  1  0.56799400  0.85964300  0.51716500  1
  H  H35  1  0.85974500  0.43217100  0.51764800  1
  H  H36  1  0.43340200  0.14014100  0.52042900  1
  H  H37  1  0.13981300  0.43534600  0.47937900  1
  H  H38  1  0.56466000  0.13996400  0.47986200  1
  H  H39  1  0.85996900  0.56612500  0.48292000  1
  H  H40  1  0.43403900  0.86004000  0.48244300  1
  H  H41  1  0.64032600  0.06660600  0.01994000  1
  H  H42  1  0.06799500  0.35964400  0.01716500  1
  H  H43  1  0.35974600  0.93217300  0.01764800  1
  H  H44  1  0.93340300  0.64014200  0.02042900  1
  H  H45  1  0.63981300  0.93534800  0.97937900  1
  H  H46  1  0.06466100  0.63996500  0.97986300  1
  H  H47  1  0.35997000  0.06612600  0.98292000  1
  H  H48  1  0.93404000  0.36004100  0.98244300  1
  H  H49  1  0.27915000  0.47735800  0.44711900  1
  H  H50  1  0.47388100  0.72082400  0.44832300  1
  H  H51  1  0.72048800  0.52633300  0.44935700  1
  H  H52  1  0.52257400  0.27947800  0.44814200  1
  H  H53  1  0.27962300  0.52386900  0.55147500  1
  H  H54  1  0.47603000  0.27926400  0.55249100  1
  H  H55  1  0.72061300  0.47256900  0.55154200  1
  H  H56  1  0.52761400  0.72024700  0.55051700  1
  H  H57  1  0.77915000  0.97735900  0.94712000  1
  H  H58  1  0.97388200  0.22082500  0.94832300  1
  H  H59  1  0.22048900  0.02633400  0.94935700  1
  H  H60  1  0.02257500  0.77947900  0.94814300  1
  H  H61  1  0.77962500  0.02387100  0.05147600  1
  H  H62  1  0.97603100  0.77926500  0.05249100  1
  H  H63  1  0.22061300  0.97257000  0.05154300  1
  H  H64  1  0.02761500  0.22024800  0.05051700  1
  H  H65  1  0.35940900  0.47748400  0.44674700  1
  H  H66  1  0.47399700  0.64056600  0.44788900  1
  H  H67  1  0.64022400  0.52615500  0.44924600  1
  H  H68  1  0.52242100  0.35973600  0.44808900  1
  H  H69  1  0.35987400  0.52326600  0.55153300  1
  H  H70  1  0.47660300  0.35951400  0.55286600  1
  H  H71  1  0.64035900  0.47309800  0.55189100  1
  H  H72  1  0.52702000  0.63998500  0.55054400  1
  H  H73  1  0.85940900  0.97748500  0.94674700  1
  H  H74  1  0.97399800  0.14056700  0.94788900  1
  H  H75  1  0.14022500  0.02615700  0.94924600  1
  H  H76  1  0.02242200  0.85973700  0.94809000  1
  H  H77  1  0.85987500  0.02326700  0.05153300  1
  H  H78  1  0.97660400  0.85951600  0.05286600  1
  H  H79  1  0.14035900  0.97309900  0.05189100  1
  H  H80  1  0.02702100  0.13998600  0.05054400  1
  H  H81  1  0.06400000  0.61909200  0.41702800  1
  H  H82  1  0.02018200  0.59752300  0.39043800  1
  H  H83  1  0.07132500  0.61515800  0.37044000  1
  H  H84  1  0.62131600  0.93595200  0.41650700  1
  H  H85  1  0.59955700  0.97991600  0.39016000  1
  H  H86  1  0.61701700  0.92886700  0.36991700  1
  H  H87  1  0.93548600  0.37872400  0.41675200  1
  H  H88  1  0.97932400  0.40045700  0.39026400  1
  H  H89  1  0.92816900  0.38300400  0.37018300  1
  H  H90  1  0.38090600  0.06437200  0.41727800  1
  H  H91  1  0.40248000  0.02070000  0.39054200  1
  H  H92  1  0.38481000  0.07193700  0.37071200  1
  H  H93  1  0.05737000  0.37714600  0.58328400  1
  H  H94  1  0.01479000  0.40145400  0.60965500  1
  H  H95  1  0.06476600  0.38106000  0.62986300  1
  H  H96  1  0.62299600  0.05695100  0.58342000  1
  H  H97  1  0.59872200  0.01422300  0.60966300  1
  H  H98  1  0.61911200  0.06410000  0.63002500  1
  H  H99  1  0.94296400  0.62525900  0.58388700  1
  H  H100  1  0.98576900  0.60078700  0.60993900  1
  H  H101  1  0.93595600  0.62103500  0.63048500  1
  H  H102  1  0.37492100  0.94245000  0.58375700  1
  H  H103  1  0.39939700  0.98512900  0.60993300  1
  H  H104  1  0.37918400  0.93520200  0.63033000  1
  H  H105  1  0.56400000  0.11909300  0.91702800  1
  H  H106  1  0.52018200  0.09752400  0.89043700  1
  H  H107  1  0.57132500  0.11515900  0.87043900  1
  H  H108  1  0.12131700  0.43595400  0.91650700  1
  H  H109  1  0.09955900  0.47991700  0.89016000  1
  H  H110  1  0.11701800  0.42886800  0.86991700  1
  H  H111  1  0.43548700  0.87872500  0.91675200  1
  H  H112  1  0.47932400  0.90045900  0.89026400  1
  H  H113  1  0.42816900  0.88300500  0.87018300  1
  H  H114  1  0.88090700  0.56437300  0.91727800  1
  H  H115  1  0.90248200  0.52070100  0.89054200  1
  H  H116  1  0.88481200  0.57193900  0.87071200  1
  H  H117  1  0.55737000  0.87714700  0.08328300  1
  H  H118  1  0.51479000  0.90145500  0.10965500  1
  H  H119  1  0.56476600  0.88106100  0.12986300  1
  H  H120  1  0.12299700  0.55695200  0.08342100  1
  H  H121  1  0.09872300  0.51422400  0.10966300  1
  H  H122  1  0.11911300  0.56410000  0.13002500  1
  H  H123  1  0.44296500  0.12526000  0.08388700  1
  H  H124  1  0.48577000  0.10078800  0.10993800  1
  H  H125  1  0.43595700  0.12103600  0.13048500  1
  H  H126  1  0.87492200  0.44245000  0.08375600  1
  H  H127  1  0.89939800  0.48512900  0.10993300  1
  H  H128  1  0.87918500  0.43520200  0.13033000  1
  C  C1  1  0.08621100  0.50109000  0.49984800  1
  C  C2  1  0.50111100  0.91371300  0.49994000  1
  C  C3  1  0.91373000  0.49903300  0.50022600  1
  C  C4  1  0.49895100  0.08619300  0.50013700  1
  C  C5  1  0.58621100  0.00109100  0.99984800  1
  C  C6  1  0.00111200  0.41371400  0.99994000  1
  C  C7  1  0.41373100  0.99903400  0.00022600  1
  C  C8  1  0.99895300  0.58619400  0.00013700  1
  C  C9  1  0.99982600  0.49893500  0.43234000  1
  C  C10  1  0.50110200  0.00017200  0.43234000  1
  C  C11  1  0.00014400  0.50118600  0.56777500  1
  C  C12  1  0.49896300  0.99976300  0.56777600  1
  C  C13  1  0.49982600  0.99893600  0.93234000  1
  C  C14  1  0.00110400  0.50017300  0.93234000  1
  C  C15  1  0.50014500  0.00118700  0.06777500  1
  C  C16  1  0.99896400  0.49976400  0.06777600  1
  C  C17  1  0.03323900  0.51977300  0.37642900  1
  C  C18  1  0.52172000  0.96686100  0.37634000  1
  C  C19  1  0.96621700  0.47829100  0.37645400  1
  C  C20  1  0.48021500  0.03386800  0.37654400  1
  C  C21  1  0.03250800  0.47836300  0.62360900  1
  C  C22  1  0.52181600  0.03183900  0.62370700  1
  C  C23  1  0.96810600  0.52380700  0.62378200  1
  C  C24  1  0.47639400  0.96742100  0.62368700  1
  C  C25  1  0.53324000  0.01977400  0.87642900  1
  C  C26  1  0.02172100  0.46686200  0.87634000  1
  C  C27  1  0.46621800  0.97829200  0.87645400  1
  C  C28  1  0.98021600  0.53386900  0.87654400  1
  C  C29  1  0.53250900  0.97836300  0.12360900  1
  C  C30  1  0.02181700  0.53184000  0.12370700  1
  C  C31  1  0.46810700  0.02380800  0.12378200  1
  C  C32  1  0.97639500  0.46742200  0.12368600  1
  C  C33  1  0.03309100  0.51986100  0.34072700  1
  C  C34  1  0.52163700  0.96705800  0.34064000  1
  C  C35  1  0.96622700  0.47835600  0.34075400  1
  C  C36  1  0.48011000  0.03390900  0.34084200  1
  C  C37  1  0.03252500  0.47828100  0.65931000  1
  C  C38  1  0.52191900  0.03166900  0.65940800  1
  C  C39  1  0.96828600  0.52372800  0.65948300  1
  C  C40  1  0.47649300  0.96741500  0.65938800  1
  C  C41  1  0.53309200  0.01986200  0.84072700  1
  C  C42  1  0.02163800  0.46705900  0.84064000  1
  C  C43  1  0.46622700  0.97835700  0.84075400  1
  C  C44  1  0.98011200  0.53391000  0.84084200  1
  C  C45  1  0.53252600  0.97828200  0.15931000  1
  C  C46  1  0.02192000  0.53166900  0.15940800  1
  C  C47  1  0.46828700  0.02372900  0.15948300  1
  C  C48  1  0.97649400  0.46741500  0.15938800  1
  C  C49  1  0.99962200  0.49914900  0.32268500  1
  C  C50  1  0.50082700  0.00054200  0.32268500  1
  C  C51  1  0.00045400  0.50096100  0.67745300  1
  C  C52  1  0.49925800  0.99949600  0.67745400  1
  C  C53  1  0.49962200  0.99915000  0.82268500  1
  C  C54  1  0.00082800  0.50054300  0.82268500  1
  C  C55  1  0.50045400  0.00096100  0.17745300  1
  C  C56  1  0.99925900  0.49949600  0.17745400  1
  C  C57  1  0.99976200  0.49899500  0.39446500  1
  C  C58  1  0.50101500  0.00030400  0.39446500  1
  C  C59  1  0.00025500  0.50112100  0.60566100  1
  C  C60  1  0.49905600  0.99967300  0.60566200  1
  C  C61  1  0.49976300  0.99899700  0.89446500  1
  C  C62  1  0.00101600  0.50030600  0.89446500  1
  C  C63  1  0.50025600  0.00112200  0.10566100  1
  C  C64  1  0.99905700  0.49967400  0.10566200  1
  C  C65  1  0.99936100  0.49940200  0.21542900  1
  C  C66  1  0.50055300  0.00086100  0.21542900  1
  C  C67  1  0.00073200  0.50066200  0.78471000  1
  C  C68  1  0.49953600  0.99923600  0.78471000  1
  C  C69  1  0.49936000  0.99940300  0.71542900  1
  C  C70  1  0.00055300  0.50086000  0.71542900  1
  C  C71  1  0.50073100  0.00066100  0.28471000  1
  C  C72  1  0.99953700  0.49923500  0.28471000  1
  C  C73  1  0.20296300  0.53724200  0.51116800  1
  C  C74  1  0.53809400  0.79698300  0.50971100  1
  C  C75  1  0.79705200  0.46208900  0.51043000  1
  C  C76  1  0.46272200  0.20285100  0.51189300  1
  C  C77  1  0.20267700  0.46440800  0.48777500  1
  C  C78  1  0.53555600  0.20275600  0.48849700  1
  C  C79  1  0.79717500  0.53647400  0.49027000  1
  C  C80  1  0.46370800  0.79721100  0.48955400  1
  C  C81  1  0.70296400  0.03724300  0.01116800  1
  C  C82  1  0.03809500  0.29698400  0.00971100  1
  C  C83  1  0.29705300  0.96209000  0.01043000  1
  C  C84  1  0.96272300  0.70285200  0.01189300  1
  C  C85  1  0.70267700  0.96440900  0.98777500  1
  C  C86  1  0.03555700  0.70275700  0.98849700  1
  C  C87  1  0.29717600  0.03647500  0.99027000  1
  C  C88  1  0.96370900  0.29721200  0.98955400  1
  C  C89  1  0.15751300  0.53762000  0.51082900  1
  C  C90  1  0.53841200  0.84243500  0.50935300  1
  C  C91  1  0.84250000  0.46175800  0.50990000  1
  C  C92  1  0.46237500  0.15740300  0.51138200  1
  C  C93  1  0.15722900  0.46424800  0.48838500  1
  C  C94  1  0.53574600  0.15730500  0.48893400  1
  C  C95  1  0.84262600  0.53661400  0.49071000  1
  C  C96  1  0.46355500  0.84265700  0.49016700  1
  C  C97  1  0.65751300  0.03762100  0.01082900  1
  C  C98  1  0.03841300  0.34243700  0.00935300  1
  C  C99  1  0.34250100  0.96175900  0.00990000  1
  C  C100  1  0.96237600  0.65740400  0.01138200  1
  C  C101  1  0.65723000  0.96424900  0.98838500  1
  C  C102  1  0.03574800  0.65730600  0.98893500  1
  C  C103  1  0.34262600  0.03661500  0.99071000  1
  C  C104  1  0.96355600  0.34265800  0.99016700  1
  C  C105  1  0.13445200  0.50098400  0.49968500  1
  C  C106  1  0.50102300  0.86546800  0.49982800  1
  C  C107  1  0.86548400  0.49913900  0.50028700  1
  C  C108  1  0.49902600  0.13443500  0.50015000  1
  C  C109  1  0.63445300  0.00098500  0.99968500  1
  C  C110  1  0.00102400  0.36546900  0.99982800  1
  C  C111  1  0.36548500  0.99914100  0.00028700  1
  C  C112  1  0.99902700  0.63443600  0.00015000  1
  C  C113  1  0.22572300  0.50076700  0.49941000  1
  C  C114  1  0.50085900  0.77419500  0.49956800  1
  C  C115  1  0.77421100  0.49933000  0.50037500  1
  C  C116  1  0.49918200  0.22570600  0.50022200  1
  C  C117  1  0.72572400  0.00076800  0.99941100  1
  C  C118  1  0.00086000  0.27419600  0.99956800  1
  C  C119  1  0.27421200  0.99933100  0.00037500  1
  C  C120  1  0.99918400  0.72570800  0.00022200  1
  C  C121  1  0.29676200  0.48729800  0.47017200  1
  C  C122  1  0.48542500  0.70318700  0.47089900  1
  C  C123  1  0.70300800  0.51477400  0.47200300  1
  C  C124  1  0.51261700  0.29693700  0.47126300  1
  C  C125  1  0.29702600  0.51382900  0.52835100  1
  C  C126  1  0.48606800  0.29681900  0.52943700  1
  C  C127  1  0.70307600  0.48420300  0.52894600  1
  C  C128  1  0.51597800  0.70286500  0.52784800  1
  C  C129  1  0.79676300  0.98729900  0.97017300  1
  C  C130  1  0.98542600  0.20318900  0.97089900  1
  C  C131  1  0.20300800  0.01477500  0.97200300  1
  C  C132  1  0.01261800  0.79693800  0.97126400  1
  C  C133  1  0.79702700  0.01383000  0.02835100  1
  C  C134  1  0.98606900  0.79682000  0.02943700  1
  C  C135  1  0.20307700  0.98420400  0.02894700  1
  C  C136  1  0.01597900  0.20286600  0.02784800  1
  C  C137  1  0.34221700  0.48777500  0.46989400  1
  C  C138  1  0.48589300  0.65773400  0.47056700  1
  C  C139  1  0.65755200  0.51427200  0.47185300  1
  C  C140  1  0.51212400  0.34239300  0.47116400  1
  C  C141  1  0.34247700  0.51307900  0.52845300  1
  C  C142  1  0.48680000  0.34226900  0.52971800  1
  C  C143  1  0.65762600  0.48490500  0.52923100  1
  C  C144  1  0.51524000  0.65741300  0.52795100  1
  C  C145  1  0.84221800  0.98777600  0.96989400  1
  C  C146  1  0.98589400  0.15773600  0.97056700  1
  C  C147  1  0.15755300  0.01427300  0.97185300  1
  C  C148  1  0.01212500  0.84239400  0.97116500  1
  C  C149  1  0.84247800  0.01308000  0.02845300  1
  C  C150  1  0.98680100  0.84227000  0.02971900  1
  C  C151  1  0.15762700  0.98490700  0.02923200  1
  C  C152  1  0.01524100  0.15741400  0.02795100  1
  C  C153  1  0.36527900  0.50035700  0.49912900  1
  C  C154  1  0.50049000  0.63464300  0.49920300  1
  C  C155  1  0.63465900  0.49963900  0.50057600  1
  C  C156  1  0.49952600  0.36526300  0.50048900  1
  C  C157  1  0.86528000  0.00035800  0.99913000  1
  C  C158  1  0.00049100  0.13464500  0.99920400  1
  C  C159  1  0.13465900  0.99964000  0.00057700  1
  C  C160  1  0.99952700  0.86526400  0.00048900  1
  C  C161  1  0.27399000  0.50063300  0.49930600  1
  C  C162  1  0.50076200  0.72592900  0.49943400  1
  C  C163  1  0.72594500  0.49943700  0.50044100  1
  C  C164  1  0.49928500  0.27397400  0.50030500  1
  C  C165  1  0.77399000  0.00063400  0.99930700  1
  C  C166  1  0.00076300  0.22593100  0.99943400  1
  C  C167  1  0.22594600  0.99943800  0.00044100  1
  C  C168  1  0.99928700  0.77397500  0.00030600  1
  C  C169  1  0.50030400  0.58637900  0.49909400  1
  C  C170  1  0.58639400  0.49974200  0.50065200  1
  C  C171  1  0.49968200  0.41353000  0.50059600  1
  C  C172  1  0.41354600  0.50021200  0.49904200  1
  C  C173  1  0.00030500  0.08638000  0.99909400  1
  C  C174  1  0.08639500  0.99974300  0.00065200  1
  C  C175  1  0.99968200  0.91353100  0.00059600  1
  C  C176  1  0.91354700  0.00021400  0.99904200  1
  C  C177  1  0.05649100  0.59935900  0.39357600  1
  C  C178  1  0.60140300  0.94359000  0.39317400  1
  C  C179  1  0.94301300  0.39862400  0.39339000  1
  C  C180  1  0.40062900  0.05699200  0.39379600  1
  C  C181  1  0.05094200  0.39748900  0.60661200  1
  C  C182  1  0.60267100  0.05039300  0.60673600  1
  C  C183  1  0.94959100  0.60476200  0.60709800  1
  C  C184  1  0.39543300  0.94896400  0.60697800  1
  C  C185  1  0.55649100  0.09936000  0.89357600  1
  C  C186  1  0.10140500  0.44359200  0.89317400  1
  C  C187  1  0.44301300  0.89862500  0.89339100  1
  C  C188  1  0.90063000  0.55699300  0.89379500  1
  C  C189  1  0.55094300  0.89749000  0.10661200  1
  C  C190  1  0.10267200  0.55039400  0.10673600  1
  C  C191  1  0.44959200  0.10476300  0.10709800  1
  C  C192  1  0.89543400  0.44896500  0.10697800  1
  S  S1  1  0.07876300  0.54421000  0.39879100  1
  S  S2  1  0.54628600  0.92131400  0.39858400  1
  S  S3  1  0.92078000  0.45375000  0.39885400  1
  S  S4  1  0.45577100  0.07926300  0.39906200  1
  S  S5  1  0.07638600  0.45121100  0.60115200  1
  S  S6  1  0.54893700  0.07584600  0.60138200  1
  S  S7  1  0.92411500  0.55107100  0.60154900  1
  S  S8  1  0.44912900  0.92353800  0.60132200  1
  S  S9  1  0.57876300  0.04421100  0.89879100  1
  S  S10  1  0.04628800  0.42131600  0.89858400  1
  S  S11  1  0.42078100  0.95375100  0.89885400  1
  S  S12  1  0.95577200  0.57926400  0.89906200  1
  S  S13  1  0.57638700  0.95121200  0.10115200  1
  S  S14  1  0.04893800  0.57584700  0.10138300  1
  S  S15  1  0.42411500  0.05107300  0.10154900  1
  S  S16  1  0.94913000  0.42353800  0.10132200  1
  N  N1  1  0.97153700  0.47303000  0.26719000  1
  N  N2  1  0.47443800  0.02866800  0.26727700  1
  N  N3  1  0.02744900  0.52552500  0.26718200  1
  N  N4  1  0.52693300  0.97275700  0.26709400  1
  N  N5  1  0.97426200  0.52868200  0.73304400  1
  N  N6  1  0.47153400  0.97302300  0.73295800  1
  N  N7  1  0.02693500  0.47293900  0.73286200  1
  N  N8  1  0.52727700  0.02569700  0.73294900  1
  N  N9  1  0.47153700  0.97303000  0.76719000  1
  N  N10  1  0.97443900  0.52866800  0.76727700  1
  N  N11  1  0.52744800  0.02552600  0.76718100  1
  N  N12  1  0.02693400  0.47275700  0.76709400  1
  N  N13  1  0.47426200  0.02868200  0.23304400  1
  N  N14  1  0.97153500  0.47302300  0.23295700  1
  N  N15  1  0.52693500  0.97293900  0.23286200  1
  N  N16  1  0.02727800  0.52569700  0.23294900  1
  O  O1  1  0.06553600  0.46308300  0.49900700  1
  O  O2  1  0.46308100  0.93436500  0.50052000  1
  O  O3  1  0.93440500  0.53705200  0.50072100  1
  O  O4  1  0.53697000  0.06554500  0.49920900  1
  O  O5  1  0.06572400  0.53916700  0.50083300  1
  O  O6  1  0.46088700  0.06568000  0.50106900  1
  O  O7  1  0.93422000  0.46094200  0.49962700  1
  O  O8  1  0.53919000  0.93422700  0.49939200  1
  O  O9  1  0.56553700  0.96308400  0.99900600  1
  O  O10  1  0.96308300  0.43436600  0.00052000  1
  O  O11  1  0.43440600  0.03705300  0.00072000  1
  O  O12  1  0.03697100  0.56554600  0.99920900  1
  O  O13  1  0.56572500  0.03916800  0.00083200  1
  O  O14  1  0.96088800  0.56568100  0.00106900  1
  O  O15  1  0.43422100  0.96094300  0.99962700  1
  O  O16  1  0.03919200  0.43422800  0.99939200  1
  O  O17  1  0.99852600  0.46087800  0.44845800  1
  O  O18  1  0.46308400  0.00137300  0.44855600  1
  O  O19  1  0.00113400  0.53696500  0.44853400  1
  O  O20  1  0.53917200  0.99880700  0.44843600  1
  O  O21  1  0.00074800  0.53925200  0.55164900  1
  O  O22  1  0.46088400  0.00043200  0.55167000  1
  O  O23  1  0.99948200  0.46315000  0.55157100  1
  O  O24  1  0.53698700  0.99920800  0.55155200  1
  O  O25  1  0.49852700  0.96087900  0.94845800  1
  O  O26  1  0.96308600  0.50137500  0.94855600  1
  O  O27  1  0.50113500  0.03696600  0.94853400  1
  O  O28  1  0.03917300  0.49880900  0.94843600  1
  O  O29  1  0.50074800  0.03925300  0.05164900  1
  O  O30  1  0.96088500  0.50043300  0.05167000  1
  O  O31  1  0.49948300  0.96315100  0.05157000  1
  O  O32  1  0.03698800  0.49920900  0.05155200  1
  O  O33  1  0.49867200  0.56590500  0.46919400  1
  O  O34  1  0.56571600  0.50131000  0.47081600  1
  O  O35  1  0.49936700  0.43424500  0.47075300  1
  O  O36  1  0.43405800  0.50058100  0.46913200  1
  O  O37  1  0.50015300  0.43401200  0.53051700  1
  O  O38  1  0.56588100  0.49821300  0.53053900  1
  O  O39  1  0.50171400  0.56566400  0.52891800  1
  O  O40  1  0.43423200  0.49974000  0.52889700  1
  O  O41  1  0.99867300  0.06590600  0.96919400  1
  O  O42  1  0.06571700  0.00131100  0.97081700  1
  O  O43  1  0.99936800  0.93424600  0.97075300  1
  O  O44  1  0.93405900  0.00058200  0.96913300  1
  O  O45  1  0.00015400  0.93401400  0.03051800  1
  O  O46  1  0.06588200  0.99821500  0.03053900  1
  O  O47  1  0.00171400  0.06566500  0.02891800  1
  O  O48  1  0.93423200  0.99974100  0.02889700  1
