# Generated by REPEAT Assigner based on pymatgen
data_DB0-m29_o83_o100_f0_pts.sym.5
_audit_creation_date              2022-05-24
_audit_creation_method            REPEAT_Assigner
_cell_length_a                    15.797848
_cell_length_b                    14.249215
_cell_length_c                    11.722024
_cell_angle_alpha                 95.446646
_cell_angle_beta                  89.309457
_cell_angle_gamma                 95.224072
_cell_volume                      2615.868327
_symmetry_space_group_name_H-M    P1
_symmetry_Int_Tables_number       1
loop_
    _symmetry_equiv_pos_site_id
    _symmetry_equiv_pos_as_xyz
    1  x,y,z
loop_
    _atom_site_type_symbol
    _atom_site_label
    _atom_site_fract_x
    _atom_site_fract_y
    _atom_site_fract_z
    _atom_type_partial_charge
    C   C1   0.298068  0.030821  0.073040  0.005241
    C   C2   0.280491  0.030145  0.956548  -0.004339
    C   C3   0.196244  0.025846  0.922363  -0.159840
    C   C4   0.232027  0.026790  0.150208  -0.238701
    C   C5   0.149099  0.025259  0.115573  0.233972
    C   C6   0.129278  0.025453  0.001422  0.003624
    C   C7   0.043367  0.024430  0.969922  0.048354
    C   C8   0.020270  0.036532  0.858637  -0.125440
    C   C9   0.936759  0.037979  0.830346  -0.255293
    C   C10  0.086585  0.027101  0.197539  -0.275098
    C   C11  0.002966  0.023764  0.167130  -0.040070
    C   C12  0.979122  0.015459  0.052652  0.087093
    C   C13  0.892821  0.006099  0.019787  -0.173689
    C   C14  0.873626  0.022067  0.909230  0.322473
    C   C15  0.790918  0.020115  0.874227  -0.326644
    C   C16  0.824834  0.979155  0.092020  0.264891
    C   C17  0.740718  0.986349  0.060559  -0.168143
    C   C18  0.724264  0.003350  0.947928  0.052258
    H   H1   0.184928  0.020052  0.831931  0.131383
    H   H2   0.246019  0.028095  0.240416  0.164511
    H   H3   0.064973  0.050452  0.791227  0.147208
    H   H4   0.921050  0.049990  0.743720  0.147858
    H   H5   0.102853  0.032362  0.287378  0.159289
    H   H6   0.958713  0.033765  0.236640  0.087050
    H   H7   0.778095  0.030479  0.786170  0.190029
    O   O1   0.596911  0.008304  0.126762  -0.468463
    C   C19  0.672178  0.982494  0.148921  0.585541
    O   O2   0.541372  0.813822  0.229790  -0.509687
    O   O3   0.688830  0.966384  0.254324  -0.457393
    O   O4   0.519875  0.922255  0.378727  -0.454342
    C   C20  0.532625  0.835058  0.340465  0.527890
    Fe  Fe1  0.517753  0.011058  0.258935  1.415577
    O   O5   0.400341  0.977314  0.195746  -0.602550
    O   O6   0.438647  0.108624  0.105006  -0.517157
    C   C21  0.383655  0.036237  0.121052  0.654198
    O   O7   0.549342  0.141327  0.335405  -0.628121
    O   O8   0.430447  0.099362  0.435876  -0.518439
    C   C22  0.495677  0.160530  0.419158  0.637296
    O   O9   0.471019  0.892326  0.683472  -0.601376
    O   O10  0.590297  0.930850  0.582183  -0.518964
    C   C23  0.523678  0.871605  0.599005  0.645536
    O   O11  0.623370  0.053963  0.820643  -0.626221
    O   O12  0.583051  0.926226  0.916732  -0.535028
    C   C24  0.639030  0.997110  0.898173  0.670726
    O   O13  0.326867  0.029237  0.758393  -0.496757
    O   O14  0.503244  0.111314  0.639861  -0.450016
    C   C25  0.480861  0.195667  0.676042  0.507090
    O   O15  0.427352  0.026546  0.893206  -0.443006
    C   C26  0.347355  0.029197  0.866575  0.534809
    O   O16  0.462450  0.214360  0.784811  -0.508639
    Fe  Fe2  0.505089  0.022294  0.759456  1.412495
    C   C27  0.505074  0.608423  0.937536  0.114302
    C   C28  0.485724  0.272161  0.598005  0.009367
    C   C29  0.420545  0.604255  0.969133  -0.345783
    C   C30  0.358350  0.573336  0.889069  0.437418
    C   C31  0.527626  0.581905  0.825924  -0.363466
    C   C32  0.465487  0.553078  0.745048  0.333102
    C   C33  0.380880  0.548964  0.776718  -0.360184
    C   C34  0.481592  0.364927  0.644560  -0.118566
    C   C35  0.493611  0.440671  0.577170  0.036876
    C   C36  0.488720  0.533519  0.624301  -0.058329
    C   C37  0.503109  0.608454  0.556126  0.069839
    C   C38  0.500258  0.701420  0.602739  -0.152720
    C   C39  0.516355  0.776542  0.537325  -0.034738
    C   C40  0.500743  0.255455  0.480783  0.027177
    C   C41  0.516866  0.330691  0.415734  -0.233623
    C   C42  0.512754  0.423442  0.462215  0.168199
    C   C43  0.527031  0.498350  0.394066  -0.214269
    C   C44  0.521510  0.591051  0.441013  0.130939
    C   C45  0.532394  0.666474  0.373185  -0.174648
    C   C46  0.490449  0.447403  0.192131  -0.301371
    C   C47  0.551445  0.479113  0.273674  0.453497
    C   C48  0.636218  0.487501  0.242815  -0.283453
    C   C49  0.514401  0.422251  0.080723  0.015273
    C   C50  0.599131  0.430428  0.050132  -0.119134
    C   C51  0.528995  0.759327  0.419500  0.062064
    C   C52  0.659982  0.463573  0.131027  -0.090020
    H   H8   0.553722  0.632953  0.000223  0.093748
    H   H9   0.403138  0.625640  0.056602  0.168683
    H   H10  0.593882  0.586291  0.801074  0.125864
    H   H11  0.332113  0.527839  0.713126  0.137424
    H   H12  0.470501  0.377119  0.735420  0.120505
    H   H13  0.489185  0.718802  0.692789  0.159480
    H   H14  0.529140  0.313462  0.325996  0.181687
    H   H15  0.542346  0.653943  0.282141  0.111791
    H   H16  0.424084  0.440017  0.216238  0.109906
    H   H17  0.684156  0.511685  0.306612  0.124526
    H   H18  0.466731  0.395955  0.017356  0.110997
    H   H19  0.617830  0.410813  0.962724  0.101576
    H   H20  0.726410  0.469781  0.107089  0.115620
    O   O17  0.274389  0.571735  0.919538  -0.367847
    C   C53  0.255579  0.486238  0.967640  0.161742
    H   H21  0.263392  0.497773  0.061974  0.005732
    H   H22  0.298267  0.433142  0.931790  -0.011061
    H   H23  0.188915  0.459038  0.947384  0.025995
    O   O18  0.839131  0.938210  0.190196  -0.185460
    C   C54  0.842185  0.841727  0.156719  0.062128
    H   H24  0.907315  0.821666  0.169880  0.023093
    H   H25  0.825016  0.825283  0.065101  0.025589
    H   H26  0.796631  0.800093  0.209249  0.057559
