# generated using pymatgen
data_FeH11C23O8
_symmetry_space_group_name_H-M   'P 1'
_cell_length_a   15.82898700
_cell_length_b   16.56922900
_cell_length_c   12.87810800
_cell_angle_alpha   91.77409800
_cell_angle_beta   88.14655700
_cell_angle_gamma   112.33821300
_symmetry_Int_Tables_number   1
_chemical_formula_structural   FeH11C23O8
_chemical_formula_sum   'Fe2 H22 C46 O16'
_cell_volume   3121.85658974
_cell_formula_units_Z   2
loop_
 _symmetry_equiv_pos_site_id
 _symmetry_equiv_pos_as_xyz
  1  'x, y, z'
loop_
 _atom_site_type_symbol
 _atom_site_label
 _atom_site_symmetry_multiplicity
 _atom_site_fract_x
 _atom_site_fract_y
 _atom_site_fract_z
 _atom_site_occupancy
  Fe  Fe1  1  0.50999500  0.00628100  0.23155100  1
  Fe  Fe2  1  0.48662700  0.99306500  0.77178500  1
  H  H1  1  0.17906500  0.00823000  0.84408500  1
  H  H2  1  0.06858300  0.03468300  0.80200600  1
  H  H3  1  0.92416200  0.01360500  0.75002600  1
  H  H4  1  0.07242000  0.98561300  0.25343800  1
  H  H5  1  0.92799700  0.96454700  0.20145900  1
  H  H6  1  0.81752600  0.99102800  0.15937600  1
  H  H7  1  0.56662900  0.12489000  0.49013800  1
  H  H8  1  0.53826900  0.33433900  0.33661900  1
  H  H9  1  0.51420900  0.32307400  0.66842600  1
  H  H10  1  0.59764200  0.47930600  0.63294800  1
  H  H11  1  0.57526600  0.61588700  0.62874400  1
  H  H12  1  0.39904800  0.52003100  0.37033300  1
  H  H13  1  0.42142300  0.38345100  0.37453600  1
  H  H14  1  0.48246900  0.67627100  0.33486500  1
  H  H15  1  0.43001100  0.87442200  0.51317600  1
  H  H16  1  0.45840100  0.66497400  0.66666667  1
  H  H17  1  0.31807700  0.08385900  0.26343500  1
  H  H18  1  0.21183000  0.09124900  0.27909000  1
  H  H19  1  0.22048200  0.98579200  0.29296900  1
  H  H20  1  0.67851100  0.91535800  0.74002600  1
  H  H21  1  0.77611200  0.01341500  0.71048400  1
  H  H22  1  0.78475400  0.90795600  0.72438500  1
  C  C1  1  0.29427100  0.02935400  0.06323200  1
  C  C2  1  0.27583400  0.02280200  0.95724400  1
  C  C3  1  0.19073900  0.01675300  0.92590800  1
  C  C4  1  0.22518400  0.02710800  0.13494900  1
  C  C5  1  0.13756900  0.01226500  0.10126900  1
  C  C6  1  0.12075300  0.01259500  0.99668800  1
  C  C7  1  0.03381200  0.00646900  0.96526600  1
  C  C8  1  0.01676700  0.01616700  0.86239300  1
  C  C9  1  0.93097800  0.00436600  0.83140300  1
  C  C10  1  0.06560300  0.99485600  0.17206200  1
  C  C11  1  0.97981400  0.98306200  0.14107300  1
  C  C12  1  0.96276900  0.99276200  0.03820000  1
  C  C13  1  0.87582800  0.98663800  0.00677700  1
  C  C14  1  0.85901400  0.98696000  0.90219500  1
  C  C15  1  0.77140100  0.97211400  0.86851200  1
  C  C16  1  0.80584500  0.98249600  0.07755400  1
  C  C17  1  0.72075200  0.97645800  0.04621400  1
  C  C18  1  0.70231500  0.96988600  0.94022200  1
  C  C19  1  0.65458800  0.98020200  0.12870900  1
  C  C20  1  0.47011500  0.83646300  0.32209900  1
  C  C21  1  0.38338800  0.03467300  0.10111200  1
  C  C22  1  0.54950400  0.17939500  0.30651900  1
  C  C23  1  0.44711500  0.81989800  0.69679400  1
  C  C24  1  0.61321500  0.96459400  0.90231700  1
  C  C25  1  0.52653500  0.16287300  0.68121200  1
  C  C26  1  0.34200800  0.01910200  0.87474500  1
  C  C27  1  0.55593900  0.22738400  0.40478300  1
  C  C28  1  0.54050400  0.30354400  0.40863800  1
  C  C29  1  0.52871200  0.34021400  0.50320000  1
  C  C30  1  0.52913000  0.29776200  0.59476000  1
  C  C31  1  0.54168400  0.21926600  0.59053700  1
  C  C32  1  0.55874800  0.18678100  0.49538900  1
  C  C33  1  0.55282100  0.48710000  0.57594900  1
  C  C34  1  0.54006300  0.56483200  0.57321600  1
  C  C35  1  0.48525200  0.57792800  0.49909800  1
  C  C36  1  0.44387000  0.51223800  0.42733100  1
  C  C37  1  0.45662800  0.43450500  0.43006400  1
  C  C38  1  0.51143700  0.42140900  0.50418300  1
  C  C39  1  0.46754400  0.70157500  0.40853500  1
  C  C40  1  0.45497800  0.78006500  0.41276800  1
  C  C41  1  0.43790700  0.81253800  0.50792000  1
  C  C42  1  0.44071600  0.77192800  0.59852100  1
  C  C43  1  0.45616600  0.69577600  0.59465600  1
  C  C44  1  0.46796800  0.65911800  0.50009000  1
  C  C45  1  0.24514200  0.04708700  0.24854200  1
  C  C46  1  0.75144600  0.95212500  0.75492000  1
  O  O1  1  0.58690800  0.00407100  0.10811400  1
  O  O2  1  0.48282800  0.80980900  0.22803200  1
  O  O3  1  0.66666667  0.96471600  0.22532500  1
  O  O4  1  0.47890200  0.91767000  0.34106000  1
  O  O5  1  0.38525200  0.98721900  0.18045000  1
  O  O6  1  0.45999700  0.09050700  0.06138500  1
  O  O7  1  0.58641300  0.12050900  0.29918000  1
  O  O8  1  0.48602500  0.17690400  0.24271100  1
  O  O9  1  0.41019200  0.87877200  0.70412500  1
  O  O10  1  0.51057800  0.82239000  0.76062700  1
  O  O11  1  0.61139300  0.01206900  0.82298300  1
  O  O12  1  0.53658900  0.90875600  0.94200100  1
  O  O13  1  0.33002100  0.03470500  0.77815500  1
  O  O14  1  0.51777000  0.08167100  0.66226600  1
  O  O15  1  0.40964500  0.99515800  0.89529900  1
  O  O16  1  0.51378100  0.18952300  0.77526800  1
