# generated using pymatgen
data_Cu3H42(C11O3)4
_symmetry_space_group_name_H-M   'P 1'
_cell_length_a   37.83340200
_cell_length_b   21.66557900
_cell_length_c   21.56008200
_cell_angle_alpha   90.00000000
_cell_angle_beta   57.02826900
_cell_angle_gamma   90.00000000
_symmetry_Int_Tables_number   1
_chemical_formula_structural   Cu3H42(C11O3)4
_chemical_formula_sum   'Cu12 H168 C176 O48'
_cell_volume   14826.08829818
_cell_formula_units_Z   4
loop_
 _symmetry_equiv_pos_site_id
 _symmetry_equiv_pos_as_xyz
  1  'x, y, z'
loop_
 _atom_site_type_symbol
 _atom_site_label
 _atom_site_symmetry_multiplicity
 _atom_site_fract_x
 _atom_site_fract_y
 _atom_site_fract_z
 _atom_site_occupancy
  Cu  Cu1  1  0.00000000  0.42980400  0.50000000  1
  Cu  Cu2  1  0.50000000  0.92980400  0.50000000  1
  Cu  Cu3  1  0.00000000  0.55026200  0.50000000  1
  Cu  Cu4  1  0.50000000  0.05026200  0.50000000  1
  Cu  Cu5  1  0.49837800  0.49324300  0.93983500  1
  Cu  Cu6  1  0.50162200  0.49324300  0.06016500  1
  Cu  Cu7  1  0.99837800  0.99324300  0.93983500  1
  Cu  Cu8  1  0.00162200  0.99324300  0.06016500  1
  Cu  Cu9  1  0.04195800  0.49288600  0.96194600  1
  Cu  Cu10  1  0.95804200  0.49288600  0.03805400  1
  Cu  Cu11  1  0.54195800  0.99288600  0.96194600  1
  Cu  Cu12  1  0.45804200  0.99288600  0.03805400  1
  H  H1  1  0.72318100  0.44757800  0.67936400  1
  H  H2  1  0.27681900  0.44757800  0.32063600  1
  H  H3  1  0.22318100  0.94757800  0.67936400  1
  H  H4  1  0.77681900  0.94757800  0.32063600  1
  H  H5  1  0.77801900  0.53721600  0.81865200  1
  H  H6  1  0.22198100  0.53721600  0.18134800  1
  H  H7  1  0.27801900  0.03721600  0.81865200  1
  H  H8  1  0.72198100  0.03721600  0.18134800  1
  H  H9  1  0.05871800  0.46375900  0.25357900  1
  H  H10  1  0.94128200  0.46375900  0.74642100  1
  H  H11  1  0.55871800  0.96375900  0.25357900  1
  H  H12  1  0.44128200  0.96375900  0.74642100  1
  H  H13  1  0.06108300  0.46543500  0.13861300  1
  H  H14  1  0.93891700  0.46543500  0.86138700  1
  H  H15  1  0.56108300  0.96543500  0.13861300  1
  H  H16  1  0.43891700  0.96543500  0.86138700  1
  H  H17  1  0.93098300  0.51516200  0.25778800  1
  H  H18  1  0.06901700  0.51516200  0.74221100  1
  H  H19  1  0.43098300  0.01516200  0.25778800  1
  H  H20  1  0.56901700  0.01516200  0.74221100  1
  H  H21  1  0.50950200  0.29942700  0.08878100  1
  H  H22  1  0.49049800  0.29942700  0.91121900  1
  H  H23  1  0.00950200  0.79942700  0.08878100  1
  H  H24  1  0.99049800  0.79942700  0.91121900  1
  H  H25  1  0.50110500  0.68567000  0.09695800  1
  H  H26  1  0.49889500  0.68567000  0.90304200  1
  H  H27  1  0.00110500  0.18567000  0.09695800  1
  H  H28  1  0.99889500  0.18567000  0.90304200  1
  H  H29  1  0.72575300  0.54801400  0.61544300  1
  H  H30  1  0.73196500  0.62264400  0.64623000  1
  H  H31  1  0.76329700  0.60301900  0.54959400  1
  H  H32  1  0.80383500  0.59565000  0.61111000  1
  H  H33  1  0.80144100  0.52470200  0.57018400  1
  H  H34  1  0.27424700  0.54801400  0.38455800  1
  H  H35  1  0.26803500  0.62264400  0.35377100  1
  H  H36  1  0.23670200  0.60301800  0.45040600  1
  H  H37  1  0.19616500  0.59564900  0.38889000  1
  H  H38  1  0.19855900  0.52470100  0.42981600  1
  H  H39  1  0.22575300  0.04801400  0.61544300  1
  H  H40  1  0.23196500  0.12264400  0.64623000  1
  H  H41  1  0.26329700  0.10301900  0.54959400  1
  H  H42  1  0.30383500  0.09565000  0.61111000  1
  H  H43  1  0.30144100  0.02470200  0.57018400  1
  H  H44  1  0.77424700  0.04801400  0.38455800  1
  H  H45  1  0.76803500  0.12264400  0.35377100  1
  H  H46  1  0.73670200  0.10301800  0.45040600  1
  H  H47  1  0.69616500  0.09564900  0.38889000  1
  H  H48  1  0.69855900  0.02470100  0.42981600  1
  H  H49  1  0.89155200  0.42513500  0.39487100  1
  H  H50  1  0.91802100  0.42977800  0.44353100  1
  H  H51  1  0.86632000  0.46319000  0.48371300  1
  H  H52  1  0.91922000  0.54677600  0.43015700  1
  H  H53  1  0.89432200  0.53750500  0.38058500  1
  H  H54  1  0.10844800  0.42513500  0.60512900  1
  H  H55  1  0.08197900  0.42977700  0.55646900  1
  H  H56  1  0.13368000  0.46319000  0.51628700  1
  H  H57  1  0.08078000  0.54677600  0.56984300  1
  H  H58  1  0.10567800  0.53750500  0.61941600  1
  H  H59  1  0.39155200  0.92513500  0.39487100  1
  H  H60  1  0.41802100  0.92977800  0.44353100  1
  H  H61  1  0.36632000  0.96319000  0.48371300  1
  H  H62  1  0.41922000  0.04677600  0.43015700  1
  H  H63  1  0.39432200  0.03750500  0.38058500  1
  H  H64  1  0.60844800  0.92513500  0.60512900  1
  H  H65  1  0.58197900  0.92977700  0.55646900  1
  H  H66  1  0.63368000  0.96319000  0.51628700  1
  H  H67  1  0.58078000  0.04677600  0.56984300  1
  H  H68  1  0.60567800  0.03750500  0.61941600  1
  H  H69  1  0.94871500  0.70321400  0.19571200  1
  H  H70  1  0.95254100  0.62733600  0.15764800  1
  H  H71  1  0.97304900  0.64076300  0.21501300  1
  H  H72  1  0.03133200  0.63722000  0.08156800  1
  H  H73  1  0.02688200  0.71013900  0.12342700  1
  H  H74  1  0.05128500  0.70321400  0.80428800  1
  H  H75  1  0.04745900  0.62733600  0.84235200  1
  H  H76  1  0.02695100  0.64076400  0.78498800  1
  H  H77  1  0.96866800  0.63722000  0.91843200  1
  H  H78  1  0.97311800  0.71013900  0.87657400  1
  H  H79  1  0.44871500  0.20321400  0.19571200  1
  H  H80  1  0.45254100  0.12733600  0.15764800  1
  H  H81  1  0.47304900  0.14076300  0.21501300  1
  H  H82  1  0.53133200  0.13722000  0.08156800  1
  H  H83  1  0.52688200  0.21013900  0.12342700  1
  H  H84  1  0.55128500  0.20321400  0.80428800  1
  H  H85  1  0.54745900  0.12733600  0.84235200  1
  H  H86  1  0.52695100  0.14076400  0.78498800  1
  H  H87  1  0.46866800  0.13722000  0.91843200  1
  H  H88  1  0.47311800  0.21013900  0.87657400  1
  H  H89  1  0.97207800  0.24672600  0.20348500  1
  H  H90  1  0.02969200  0.24649100  0.14850300  1
  H  H91  1  0.00099900  0.30753800  0.21337400  1
  H  H92  1  0.02961000  0.34276400  0.08736400  1
  H  H93  1  0.97279800  0.34347800  0.14194500  1
  H  H94  1  0.02792100  0.24672600  0.79651500  1
  H  H95  1  0.97030700  0.24649100  0.85149700  1
  H  H96  1  0.99900100  0.30753800  0.78662700  1
  H  H97  1  0.97039000  0.34276400  0.91263600  1
  H  H98  1  0.02720200  0.34347800  0.85805500  1
  H  H99  1  0.47207800  0.74672600  0.20348500  1
  H  H100  1  0.52969200  0.74649100  0.14850300  1
  H  H101  1  0.50099900  0.80753800  0.21337400  1
  H  H102  1  0.52961000  0.84276400  0.08736400  1
  H  H103  1  0.47279800  0.84347800  0.14194500  1
  H  H104  1  0.52792100  0.74672600  0.79651500  1
  H  H105  1  0.47030700  0.74649100  0.85149700  1
  H  H106  1  0.49900100  0.80753800  0.78662700  1
  H  H107  1  0.47039000  0.84276400  0.91263600  1
  H  H108  1  0.52720200  0.84347800  0.85805500  1
  H  H109  1  0.77466700  0.64857000  0.78485000  1
  H  H110  1  0.76960200  0.66733700  0.70818700  1
  H  H111  1  0.73750900  0.70650800  0.79529500  1
  H  H112  1  0.69739300  0.62495800  0.77535800  1
  H  H113  1  0.69925100  0.61248900  0.85605000  1
  H  H114  1  0.22533300  0.64857000  0.21515100  1
  H  H115  1  0.23039800  0.66733700  0.29181300  1
  H  H116  1  0.26249100  0.70650800  0.20470500  1
  H  H117  1  0.30260700  0.62495800  0.22464200  1
  H  H118  1  0.30074900  0.61248900  0.14395000  1
  H  H119  1  0.27466700  0.14857000  0.78485000  1
  H  H120  1  0.26960200  0.16733700  0.70818700  1
  H  H121  1  0.23750900  0.20650800  0.79529500  1
  H  H122  1  0.19739300  0.12495800  0.77535800  1
  H  H123  1  0.19925100  0.11248900  0.85605000  1
  H  H124  1  0.72533300  0.14857000  0.21515100  1
  H  H125  1  0.73039800  0.16733700  0.29181300  1
  H  H126  1  0.76249100  0.20650800  0.20470500  1
  H  H127  1  0.80260700  0.12495800  0.22464200  1
  H  H128  1  0.80074900  0.11248900  0.14395000  1
  H  H129  1  0.76981200  0.36320000  0.85149800  1
  H  H130  1  0.77498500  0.43771200  0.88384200  1
  H  H131  1  0.73785900  0.38165900  0.94843300  1
  H  H132  1  0.69943000  0.45993200  0.92787200  1
  H  H133  1  0.69764500  0.38880200  0.88656600  1
  H  H134  1  0.23018800  0.36320000  0.14850200  1
  H  H135  1  0.22501500  0.43771200  0.11615800  1
  H  H136  1  0.26214100  0.38165900  0.05156700  1
  H  H137  1  0.30057000  0.45993200  0.07212800  1
  H  H138  1  0.30235500  0.38880200  0.11343400  1
  H  H139  1  0.26981200  0.86320000  0.85149800  1
  H  H140  1  0.27498500  0.93771200  0.88384200  1
  H  H141  1  0.23785900  0.88165900  0.94843300  1
  H  H142  1  0.19943000  0.95993200  0.92787200  1
  H  H143  1  0.19764500  0.88880200  0.88656600  1
  H  H144  1  0.73018800  0.86320000  0.14850200  1
  H  H145  1  0.72501500  0.93771200  0.11615800  1
  H  H146  1  0.76214100  0.88165900  0.05156700  1
  H  H147  1  0.80057000  0.95993200  0.07212800  1
  H  H148  1  0.80235500  0.88880200  0.11343400  1
  H  H149  1  0.73199700  0.31708700  0.78980500  1
  H  H150  1  0.72638600  0.33625900  0.71382700  1
  H  H151  1  0.76381300  0.27835300  0.70233200  1
  H  H152  1  0.80191300  0.37239400  0.64188400  1
  H  H153  1  0.80394800  0.35995300  0.72240800  1
  H  H154  1  0.26800300  0.31708700  0.21019500  1
  H  H155  1  0.27361400  0.33625900  0.28617300  1
  H  H156  1  0.23618600  0.27835300  0.29766800  1
  H  H157  1  0.19808600  0.37239400  0.35811600  1
  H  H158  1  0.19605200  0.35995300  0.27759200  1
  H  H159  1  0.23199700  0.81708700  0.78980500  1
  H  H160  1  0.22638600  0.83625900  0.71382700  1
  H  H161  1  0.26381300  0.77835300  0.70233200  1
  H  H162  1  0.30191300  0.87239500  0.64188400  1
  H  H163  1  0.30394800  0.85995300  0.72240800  1
  H  H164  1  0.76800300  0.81708700  0.21019500  1
  H  H165  1  0.77361400  0.83625900  0.28617300  1
  H  H166  1  0.73618600  0.77835300  0.29766800  1
  H  H167  1  0.69808600  0.87239400  0.35811600  1
  H  H168  1  0.69605200  0.85995300  0.27759200  1
  C  C1  1  0.99519600  0.48966100  0.38745800  1
  C  C2  1  0.00480400  0.48966100  0.61254200  1
  C  C3  1  0.49519600  0.98966100  0.38745800  1
  C  C4  1  0.50480400  0.98966100  0.61254200  1
  C  C5  1  0.92039100  0.49014000  0.58173700  1
  C  C6  1  0.07960900  0.49014000  0.41826300  1
  C  C7  1  0.42039100  0.99014000  0.58173700  1
  C  C8  1  0.57960900  0.99014000  0.41826300  1
  C  C9  1  0.73615300  0.46777500  0.71018600  1
  C  C10  1  0.26384700  0.46777500  0.28981400  1
  C  C11  1  0.23615300  0.96777500  0.71018600  1
  C  C12  1  0.76384700  0.96777500  0.28981400  1
  C  C13  1  0.76380600  0.52484900  0.68884500  1
  C  C14  1  0.23619400  0.52484900  0.31115600  1
  C  C15  1  0.26380600  0.02484900  0.68884500  1
  C  C16  1  0.73619400  0.02484900  0.31115600  1
  C  C17  1  0.87520300  0.49072200  0.62669900  1
  C  C18  1  0.12479700  0.49072200  0.37330100  1
  C  C19  1  0.37520300  0.99072200  0.62669900  1
  C  C20  1  0.62479700  0.99072200  0.37330100  1
  C  C21  1  0.62597200  0.49311600  0.87226900  1
  C  C22  1  0.37402800  0.49311600  0.12773100  1
  C  C23  1  0.12597200  0.99311600  0.87226900  1
  C  C24  1  0.87402800  0.99311600  0.12773100  1
  C  C25  1  0.76389100  0.43529900  0.73100900  1
  C  C26  1  0.23610900  0.43529900  0.26899100  1
  C  C27  1  0.26389100  0.93529900  0.73100900  1
  C  C28  1  0.73610900  0.93529900  0.26899100  1
  C  C29  1  0.79117800  0.49207400  0.70941800  1
  C  C30  1  0.20882200  0.49207400  0.29058200  1
  C  C31  1  0.29117800  0.99207400  0.70941800  1
  C  C32  1  0.70882200  0.99207400  0.29058200  1
  C  C33  1  0.73739600  0.45994300  0.80917900  1
  C  C34  1  0.26260400  0.45994300  0.19082100  1
  C  C35  1  0.23739600  0.95994300  0.80917900  1
  C  C36  1  0.76260400  0.95994300  0.19082100  1
  C  C37  1  0.71000500  0.49270800  0.78863600  1
  C  C38  1  0.28999500  0.49270800  0.21136400  1
  C  C39  1  0.21000500  0.99270800  0.78863600  1
  C  C40  1  0.78999500  0.99270800  0.21136400  1
  C  C41  1  0.76503200  0.51701100  0.78785800  1
  C  C42  1  0.23496800  0.51701100  0.21214200  1
  C  C43  1  0.26503200  0.01701100  0.78785800  1
  C  C44  1  0.73496800  0.01701100  0.21214200  1
  C  C45  1  0.73729200  0.54949400  0.76703800  1
  C  C46  1  0.26270800  0.54949400  0.23296200  1
  C  C47  1  0.23729200  0.04949400  0.76703800  1
  C  C48  1  0.76270800  0.04949400  0.23296200  1
  C  C49  1  0.83725600  0.49134500  0.66412800  1
  C  C50  1  0.16274400  0.49134500  0.33587200  1
  C  C51  1  0.33725600  0.99134500  0.66412800  1
  C  C52  1  0.66274400  0.99134500  0.33587200  1
  C  C53  1  0.66392000  0.49306000  0.83431100  1
  C  C54  1  0.33608000  0.49306000  0.16568900  1
  C  C55  1  0.16392000  0.99306000  0.83431100  1
  C  C56  1  0.83608000  0.99306000  0.16568900  1
  C  C57  1  0.03056000  0.47521700  0.25472400  1
  C  C58  1  0.96944000  0.47521700  0.74527600  1
  C  C59  1  0.53056000  0.97521700  0.25472400  1
  C  C60  1  0.46944000  0.97521700  0.74527600  1
  C  C61  1  0.03192700  0.47673600  0.18969500  1
  C  C62  1  0.96807300  0.47673600  0.81030500  1
  C  C63  1  0.53192700  0.97673600  0.18969500  1
  C  C64  1  0.46807300  0.97673600  0.81030500  1
  C  C65  1  0.99626100  0.49158200  0.19042800  1
  C  C66  1  0.00373900  0.49158200  0.80957300  1
  C  C67  1  0.49626100  0.99158200  0.19042800  1
  C  C68  1  0.50373900  0.99158200  0.80957300  1
  C  C69  1  0.95920100  0.50462300  0.25676200  1
  C  C70  1  0.04079900  0.50462300  0.74323800  1
  C  C71  1  0.45920100  0.00462300  0.25676200  1
  C  C72  1  0.54079900  0.00462300  0.74323800  1
  C  C73  1  0.95776300  0.50422800  0.32221900  1
  C  C74  1  0.04223700  0.50422800  0.67778100  1
  C  C75  1  0.45776300  0.00422800  0.32221900  1
  C  C76  1  0.54223700  0.00422800  0.67778100  1
  C  C77  1  0.99401700  0.48987200  0.32084100  1
  C  C78  1  0.00598300  0.48987200  0.67915900  1
  C  C79  1  0.49401700  0.98987200  0.32084100  1
  C  C80  1  0.50598300  0.98987200  0.67915900  1
  C  C81  1  0.50000000  0.37454300  0.00000000  1
  C  C82  1  0.00000000  0.87454300  0.00000000  1
  C  C83  1  0.58077700  0.49283000  0.91785900  1
  C  C84  1  0.41922300  0.49283000  0.08214100  1
  C  C85  1  0.08077700  0.99283000  0.91785900  1
  C  C86  1  0.91922300  0.99283000  0.08214100  1
  C  C87  1  0.50000000  0.61199700  0.00000000  1
  C  C88  1  0.00000000  0.11199700  0.00000000  1
  C  C89  1  0.00000000  0.37448800  0.00000000  1
  C  C90  1  0.50000000  0.87448800  0.00000000  1
  C  C91  1  0.99765600  0.49227700  0.12129300  1
  C  C92  1  0.00234400  0.49227700  0.87870700  1
  C  C93  1  0.49765600  0.99227700  0.12129300  1
  C  C94  1  0.50234400  0.99227700  0.87870700  1
  C  C95  1  0.00000000  0.61132300  0.00000000  1
  C  C96  1  0.50000000  0.11132300  0.00000000  1
  C  C97  1  0.50542700  0.27478300  0.04953800  1
  C  C98  1  0.49457300  0.27478300  0.95046200  1
  C  C99  1  0.00542700  0.77478300  0.04953800  1
  C  C100  1  0.99457300  0.77478300  0.95046200  1
  C  C101  1  0.00567800  0.71105600  0.04966700  1
  C  C102  1  0.99432200  0.71105600  0.95033300  1
  C  C103  1  0.50567800  0.21105600  0.04966700  1
  C  C104  1  0.49432200  0.21105600  0.95033300  1
  C  C105  1  0.00000000  0.67883200  0.00000000  1
  C  C106  1  0.50000000  0.17883200  0.00000000  1
  C  C107  1  0.50000000  0.30685200  0.00000000  1
  C  C108  1  0.00000000  0.80685200  0.00000000  1
  C  C109  1  0.50059700  0.71174700  0.05495800  1
  C  C110  1  0.49940300  0.71174700  0.94504200  1
  C  C111  1  0.00059700  0.21174700  0.05495800  1
  C  C112  1  0.99940300  0.21174700  0.94504200  1
  C  C113  1  0.00061500  0.27579300  0.05538300  1
  C  C114  1  0.99938500  0.27579300  0.94461800  1
  C  C115  1  0.50061500  0.77579300  0.05538300  1
  C  C116  1  0.49938500  0.77579300  0.94461800  1
  C  C117  1  0.00000000  0.30715600  0.00000000  1
  C  C118  1  0.50000000  0.80715600  0.00000000  1
  C  C119  1  0.50000000  0.67984200  0.00000000  1
  C  C120  1  0.00000000  0.17984200  0.00000000  1
  C  C121  1  0.78267100  0.55820800  0.61539900  1
  C  C122  1  0.74856900  0.58458100  0.60645100  1
  C  C123  1  0.21732900  0.55820800  0.38460100  1
  C  C124  1  0.25143100  0.58458100  0.39354900  1
  C  C125  1  0.28267100  0.05820800  0.61539900  1
  C  C126  1  0.24856900  0.08458100  0.60645100  1
  C  C127  1  0.71732900  0.05820800  0.38460100  1
  C  C128  1  0.75143100  0.08458100  0.39354900  1
  C  C129  1  0.91621700  0.51527300  0.39290600  1
  C  C130  1  0.89686900  0.45437900  0.43126800  1
  C  C131  1  0.08378300  0.51527300  0.60709500  1
  C  C132  1  0.10313100  0.45437900  0.56873200  1
  C  C133  1  0.41621700  0.01527300  0.39290600  1
  C  C134  1  0.39686900  0.95437900  0.43126800  1
  C  C135  1  0.58378300  0.01527300  0.60709500  1
  C  C136  1  0.60313100  0.95437900  0.56873200  1
  C  C137  1  0.01111800  0.67863900  0.10528100  1
  C  C138  1  0.96854400  0.66127800  0.17267300  1
  C  C139  1  0.98888200  0.67863900  0.89471900  1
  C  C140  1  0.03145600  0.66127800  0.82732700  1
  C  C141  1  0.51111800  0.17863900  0.10528100  1
  C  C142  1  0.46854400  0.16127800  0.17267300  1
  C  C143  1  0.48888200  0.17863900  0.89471900  1
  C  C144  1  0.53145600  0.16127800  0.82732700  1
  C  C145  1  0.00103100  0.31331000  0.11395100  1
  C  C146  1  0.00094100  0.27548600  0.17331600  1
  C  C147  1  0.99896900  0.31331000  0.88604900  1
  C  C148  1  0.99905900  0.27548600  0.82668400  1
  C  C149  1  0.50103100  0.81331000  0.11395100  1
  C  C150  1  0.50094100  0.77548600  0.17331600  1
  C  C151  1  0.49896900  0.81331000  0.88604900  1
  C  C152  1  0.49905900  0.77548600  0.82668400  1
  C  C153  1  0.71831800  0.61316700  0.79475100  1
  C  C154  1  0.75236800  0.66181500  0.76889700  1
  C  C155  1  0.28168200  0.61316700  0.20524900  1
  C  C156  1  0.24763200  0.66181600  0.23110300  1
  C  C157  1  0.21831800  0.11316700  0.79475100  1
  C  C158  1  0.25236800  0.16181500  0.76889700  1
  C  C159  1  0.78168200  0.11316700  0.20524900  1
  C  C160  1  0.74763200  0.16181600  0.23110300  1
  C  C161  1  0.71852300  0.42656200  0.88260700  1
  C  C162  1  0.75264500  0.40070900  0.89183700  1
  C  C163  1  0.28147700  0.42656200  0.11739400  1
  C  C164  1  0.24735500  0.40070900  0.10816300  1
  C  C165  1  0.21852300  0.92656200  0.88260700  1
  C  C166  1  0.25264500  0.90070900  0.89183700  1
  C  C167  1  0.78147700  0.92656200  0.11739400  1
  C  C168  1  0.74735500  0.90070900  0.10816300  1
  C  C169  1  0.78293100  0.37167300  0.70318800  1
  C  C170  1  0.74893900  0.32291700  0.72916900  1
  C  C171  1  0.21706900  0.37167300  0.29681200  1
  C  C172  1  0.25106100  0.32291700  0.27083100  1
  C  C173  1  0.28293100  0.87167300  0.70318800  1
  C  C174  1  0.24893900  0.82291700  0.72916900  1
  C  C175  1  0.71706900  0.87167300  0.29681200  1
  C  C176  1  0.75106100  0.82291700  0.27083100  1
  O  O1  1  0.00885800  0.43924100  0.40239000  1
  O  O2  1  0.99114200  0.43924100  0.59761000  1
  O  O3  1  0.50885800  0.93924100  0.40239000  1
  O  O4  1  0.49114200  0.93924100  0.59761000  1
  O  O5  1  0.98502200  0.54082300  0.42699200  1
  O  O6  1  0.01497800  0.54082300  0.57300800  1
  O  O7  1  0.48502200  0.04082300  0.42699200  1
  O  O8  1  0.51497800  0.04082300  0.57300800  1
  O  O9  1  0.93942900  0.43920300  0.54484700  1
  O  O10  1  0.06057000  0.43920300  0.45515300  1
  O  O11  1  0.43942900  0.93920300  0.54484700  1
  O  O12  1  0.56057000  0.93920300  0.45515300  1
  O  O13  1  0.94064900  0.54086700  0.57873300  1
  O  O14  1  0.05935100  0.54086700  0.42126700  1
  O  O15  1  0.44064900  0.04086700  0.57873300  1
  O  O16  1  0.55935100  0.04086700  0.42126700  1
  O  O17  1  0.50025200  0.40352600  0.94637300  1
  O  O18  1  0.49974700  0.40352600  0.05362700  1
  O  O19  1  0.00025200  0.90352600  0.94637300  1
  O  O20  1  0.99974700  0.90352600  0.05362700  1
  O  O21  1  0.55982000  0.49543400  0.88553800  1
  O  O22  1  0.44018000  0.49543400  0.11446200  1
  O  O23  1  0.05982000  0.99543400  0.88553800  1
  O  O24  1  0.94018000  0.99543400  0.11446200  1
  O  O25  1  0.56257100  0.49572900  0.98975200  1
  O  O26  1  0.43742900  0.49572900  0.01024800  1
  O  O27  1  0.06257100  0.99572900  0.98975200  1
  O  O28  1  0.93742900  0.99572900  0.01024800  1
  O  O29  1  0.50040200  0.58296500  0.94613900  1
  O  O30  1  0.49959800  0.58296500  0.05386100  1
  O  O31  1  0.00040200  0.08296500  0.94613900  1
  O  O32  1  0.99959800  0.08296500  0.05386100  1
  O  O33  1  0.03625100  0.40316600  0.96895200  1
  O  O34  1  0.96374900  0.40316600  0.03104800  1
  O  O35  1  0.53625100  0.90316600  0.96895200  1
  O  O36  1  0.46374900  0.90316600  0.03104800  1
  O  O37  1  0.03458100  0.49442200  0.05888200  1
  O  O38  1  0.96541900  0.49442200  0.94111900  1
  O  O39  1  0.53458100  0.99442200  0.05888200  1
  O  O40  1  0.46541900  0.99442200  0.94111900  1
  O  O41  1  0.96207200  0.49588700  0.12458200  1
  O  O42  1  0.03792800  0.49588700  0.87541800  1
  O  O43  1  0.46207200  0.99588700  0.12458200  1
  O  O44  1  0.53792800  0.99588700  0.87541800  1
  O  O45  1  0.03624100  0.58258200  0.97043600  1
  O  O46  1  0.96375900  0.58258200  0.02956400  1
  O  O47  1  0.53624100  0.08258200  0.97043600  1
  O  O48  1  0.46375900  0.08258200  0.02956400  1
