# generated using pymatgen
data_FeH23C29N5O13
_symmetry_space_group_name_H-M   'P 1'
_cell_length_a   13.63218400
_cell_length_b   9.48085600
_cell_length_c   19.56545500
_cell_angle_alpha   85.70386600
_cell_angle_beta   81.41230800
_cell_angle_gamma   107.89798700
_symmetry_Int_Tables_number   1
_chemical_formula_structural   FeH23C29N5O13
_chemical_formula_sum   'Fe2 H46 C58 N10 O26'
_cell_volume   2359.68571179
_cell_formula_units_Z   2
loop_
 _symmetry_equiv_pos_site_id
 _symmetry_equiv_pos_as_xyz
  1  'x, y, z'
loop_
 _atom_site_type_symbol
 _atom_site_label
 _atom_site_symmetry_multiplicity
 _atom_site_fract_x
 _atom_site_fract_y
 _atom_site_fract_z
 _atom_site_occupancy
  Fe  Fe1  1  0.49740900  0.97488000  0.13529600  1
  Fe  Fe2  1  0.50388500  0.98550000  0.85938800  1
  H  H1  1  0.02700200  0.09717600  0.09770900  1
  H  H2  1  0.11399500  0.90814300  0.91701900  1
  H  H3  1  0.50142200  0.51955400  0.83554900  1
  H  H4  1  0.65370400  0.49909100  0.54110600  1
  H  H5  1  0.33387400  0.47659900  0.57761600  1
  H  H6  1  0.49078000  0.23192300  0.36027900  1
  H  H7  1  0.14705300  0.16221400  0.17398400  1
  H  H8  1  0.15320900  0.11134800  0.28901600  1
  H  H9  1  0.20525200  0.96362200  0.31080900  1
  H  H10  1  0.06742700  0.91959200  0.30808800  1
  H  H11  1  0.66982500  0.37377800  0.39056100  1
  H  H12  1  0.86425400  0.53918600  0.32469200  1
  H  H13  1  0.86399200  0.44431800  0.40863800  1
  H  H14  1  0.92835900  0.64403000  0.38830600  1
  H  H15  1  0.28707500  0.38069900  0.40879700  1
  H  H16  1  0.10861400  0.46256700  0.43302400  1
  H  H17  1  0.20387600  0.55943100  0.35586700  1
  H  H18  1  0.15796200  0.66479800  0.41942300  1
  H  H19  1  0.52271200  0.44894000  0.10597400  1
  H  H20  1  0.41963200  0.44564500  0.02289600  1
  H  H21  1  0.33050100  0.54406400  0.05333300  1
  H  H22  1  0.28178400  0.34485700  0.05166800  1
  H  H23  1  0.41765900  0.74611100  0.33860200  1
  H  H24  1  0.50751900  0.96855000  0.37490100  1
  H  H25  1  0.63187200  0.03643700  0.31515000  1
  H  H26  1  0.62677100  0.97303300  0.40551800  1
  H  H27  1  0.05541000  0.10102000  0.81623200  1
  H  H28  1  0.21397900  0.28373900  0.78002500  1
  H  H29  1  0.27869400  0.36459100  0.84862700  1
  H  H30  1  0.19322100  0.44894800  0.81136800  1
  H  H31  1  0.82394600  0.14724200  0.80792700  1
  H  H32  1  0.83647000  0.07975100  0.69660600  1
  H  H33  1  0.76936300  0.87967400  0.71088300  1
  H  H34  1  0.90903700  0.95259600  0.67848200  1
  H  H35  1  0.86473900  0.93557000  0.14102300  1
  H  H36  1  0.89478700  0.74896300  0.20857600  1
  H  H37  1  0.98440100  0.67321200  0.15801700  1
  H  H38  1  0.84629200  0.56796200  0.17951400  1
  H  H39  1  0.46824700  0.16256600  0.65218100  1
  H  H40  1  0.58499900  0.05397500  0.59543800  1
  H  H41  1  0.69973300  0.09267100  0.63633300  1
  H  H42  1  0.70761700  0.18910300  0.55187800  1
  H  H43  1  0.50146100  0.76450600  0.57757700  1
  H  H44  1  0.39952300  0.91038900  0.55476600  1
  H  H45  1  0.32750300  0.95255900  0.63149800  1
  H  H46  1  0.26473500  0.79700100  0.58884000  1
  C  C1  1  0.16520500  0.03804700  0.09288500  1
  C  C2  1  0.07823300  0.04786700  0.06803100  1
  C  C3  1  0.05682700  0.99627900  0.00611800  1
  C  C4  1  0.12987800  0.94807100  0.96576100  1
  C  C5  1  0.22454900  0.95541600  0.98621300  1
  C  C6  1  0.23957800  0.99424000  0.05203000  1
  C  C7  1  0.95834600  0.05248700  0.91587900  1
  C  C8  1  0.86443300  0.04532000  0.89475200  1
  C  C9  1  0.77204700  0.00437900  0.94336600  1
  C  C10  1  0.77454700  0.96948200  0.01331500  1
  C  C11  1  0.86510600  0.95132200  0.03173300  1
  C  C12  1  0.95832100  0.99805400  0.98367900  1
  C  C13  1  0.68278500  0.95595700  0.06750200  1
  C  C14  1  0.48007800  0.69798600  0.19273700  1
  C  C15  1  0.33838600  0.01262400  0.07599000  1
  C  C16  1  0.48047600  0.17433800  0.22998500  1
  C  C17  1  0.50169700  0.77435000  0.76737200  1
  C  C18  1  0.67031800  0.97247600  0.92012600  1
  C  C19  1  0.51063200  0.25611300  0.79960100  1
  C  C20  1  0.30976500  0.93940900  0.93411500  1
  C  C21  1  0.50622900  0.38354000  0.75273500  1
  C  C22  1  0.51046700  0.38171700  0.68128400  1
  C  C23  1  0.49718600  0.49860400  0.64086000  1
  C  C24  1  0.48444700  0.62140300  0.67049700  1
  C  C25  1  0.49135500  0.63112200  0.73988600  1
  C  C26  1  0.49831900  0.51068900  0.78114100  1
  C  C27  1  0.58237400  0.48931000  0.52150500  1
  C  C28  1  0.57934300  0.47824400  0.45167600  1
  C  C29  1  0.48711600  0.46405500  0.42742100  1
  C  C30  1  0.39914700  0.46711000  0.47222900  1
  C  C31  1  0.40330600  0.47978300  0.54180700  1
  C  C32  1  0.49434400  0.48918900  0.56667000  1
  C  C33  1  0.48750200  0.32541600  0.32660600  1
  C  C34  1  0.48388900  0.31478700  0.25735100  1
  C  C35  1  0.47653500  0.43259100  0.21455000  1
  C  C36  1  0.47693300  0.56631000  0.24052200  1
  C  C37  1  0.47922800  0.57407200  0.31142500  1
  C  C38  1  0.48526400  0.45438800  0.35339400  1
  C  C39  1  0.16813100  0.97211300  0.20870000  1
  C  C40  1  0.14725700  0.99353500  0.28365700  1
  C  C41  1  0.76133800  0.57508900  0.41007400  1
  C  C42  1  0.86075800  0.54891400  0.38106900  1
  C  C43  1  0.26481900  0.55961600  0.45029700  1
  C  C44  1  0.17835100  0.56163200  0.41221000  1
  C  C45  1  0.36575400  0.41319300  0.13385900  1
  C  C46  1  0.34871400  0.43834700  0.06091600  1
  C  C47  1  0.57319900  0.79985400  0.34321600  1
  C  C48  1  0.58530100  0.95401600  0.36070700  1
  C  C49  1  0.11547600  0.24760300  0.88075600  1
  C  C50  1  0.20576900  0.34168500  0.82666100  1
  C  C51  1  0.86292600  0.96307000  0.78641000  1
  C  C52  1  0.84289500  0.96935600  0.71360700  1
  C  C53  1  0.88761400  0.75227200  0.09945500  1
  C  C54  1  0.90428500  0.68171100  0.16559600  1
  C  C55  1  0.62802800  0.26353900  0.63660400  1
  C  C56  1  0.65636800  0.14168600  0.60324500  1
  C  C57  1  0.37533600  0.76094300  0.64871700  1
  C  C58  1  0.34018300  0.86143800  0.60277600  1
  N  N1  1  0.18176200  0.08507400  0.15817300  1
  N  N2  1  0.66842900  0.47528700  0.40513900  1
  N  N3  1  0.30292100  0.44417300  0.44868000  1
  N  N4  1  0.45959700  0.40872300  0.14632700  1
  N  N5  1  0.47750000  0.70295100  0.34252500  1
  N  N6  1  0.05387800  0.11424000  0.86800000  1
  N  N7  1  0.86384400  0.07798100  0.82328900  1
  N  N8  1  0.86114200  0.87829700  0.09831700  1
  N  N9  1  0.52774100  0.26232900  0.64816100  1
  N  N10  1  0.46876700  0.73960900  0.62970400  1
  O  O1  1  0.60901600  0.00897100  0.05275200  1
  O  O2  1  0.49607400  0.69744200  0.12500500  1
  O  O3  1  0.68007300  0.90942700  0.13274000  1
  O  O4  1  0.47803200  0.82344400  0.21585200  1
  O  O5  1  0.36011300  0.89723100  0.10292800  1
  O  O6  1  0.40355200  0.14763600  0.07447400  1
  O  O7  1  0.53767500  0.17560800  0.16943000  1
  O  O8  1  0.41591700  0.04791800  0.26440100  1
  O  O9  1  0.45853600  0.77874400  0.83155200  1
  O  O10  1  0.56140700  0.89867200  0.72882300  1
  O  O11  1  0.64876200  0.07246500  0.88009700  1
  O  O12  1  0.59779800  0.84274500  0.94231500  1
  O  O13  1  0.29567800  0.92863800  0.86956200  1
  O  O14  1  0.50859900  0.12683800  0.77815100  1
  O  O15  1  0.40431800  0.95872700  0.94778100  1
  O  O16  1  0.51041000  0.26894800  0.86593700  1
  O  O17  1  0.16880000  0.85002700  0.19352300  1
  O  O18  1  0.76463200  0.68967800  0.43549900  1
  O  O19  1  0.30243000  0.66426000  0.48124600  1
  O  O20  1  0.29560500  0.40257800  0.18251500  1
  O  O21  1  0.65058300  0.76129900  0.32951000  1
  O  O22  1  0.09654600  0.29366000  0.93609500  1
  O  O23  1  0.87995200  0.85392900  0.81235800  1
  O  O24  1  0.89479700  0.69257800  0.04670100  1
  O  O25  1  0.69694600  0.36917700  0.64986200  1
  O  O26  1  0.31779200  0.69614200  0.70323600  1
