# generated using pymatgen
data_Zn3H41(C29O6)2
_symmetry_space_group_name_H-M   'P 1'
_cell_length_a   19.23220500
_cell_length_b   18.78952600
_cell_length_c   18.80930100
_cell_angle_alpha   108.88663800
_cell_angle_beta   110.28479500
_cell_angle_gamma   109.66223500
_symmetry_Int_Tables_number   1
_chemical_formula_structural   Zn3H41(C29O6)2
_chemical_formula_sum   'Zn6 H82 C116 O24'
_cell_volume   5204.45630742
_cell_formula_units_Z   2
loop_
 _symmetry_equiv_pos_site_id
 _symmetry_equiv_pos_as_xyz
  1  'x, y, z'
loop_
 _atom_site_type_symbol
 _atom_site_label
 _atom_site_symmetry_multiplicity
 _atom_site_fract_x
 _atom_site_fract_y
 _atom_site_fract_z
 _atom_site_occupancy
  Zn  Zn1  1  0.50475100  0.42863700  0.43176400  1
  Zn  Zn2  1  0.50637200  0.56715800  0.57171000  1
  Zn  Zn3  1  0.92861200  0.42505900  0.00178400  1
  Zn  Zn4  1  0.06334500  0.56985900  0.00523400  1
  Zn  Zn5  1  0.07166800  0.00378200  0.57088000  1
  Zn  Zn6  1  0.93096600  0.00458600  0.43437600  1
  H  H1  1  0.64488100  0.35898700  0.60608600  1
  H  H2  1  0.81487900  0.60135500  0.90750400  1
  H  H3  1  0.79304800  0.59722900  0.69824200  1
  H  H4  1  0.88880600  0.61289200  0.82172000  1
  H  H5  1  0.53515100  0.12651600  0.48344800  1
  H  H6  1  0.43923200  0.12281200  0.35399900  1
  H  H7  1  0.33789500  0.17325600  0.35888200  1
  H  H8  1  0.43179000  0.23620700  0.62477800  1
  H  H9  1  0.53056400  0.18279200  0.61896100  1
  H  H10  1  0.25072000  0.11871900  0.49797000  1
  H  H11  1  0.24843500  0.37694300  0.49239600  1
  H  H12  1  0.60773200  0.37818100  0.68261900  1
  H  H13  1  0.02978000  0.18238000  0.34111900  1
  H  H14  1  0.91072300  0.20496600  0.32311400  1
  H  H15  1  0.05299400  0.39526300  0.59558400  1
  H  H16  1  0.17445500  0.37420500  0.61028300  1
  H  H17  1  0.20148300  0.10641400  0.16775700  1
  H  H18  1  0.20779300  0.15909400  0.06498200  1
  H  H19  1  0.22838300  0.30485100  0.09905700  1
  H  H20  1  0.23340200  0.34439700  0.33756500  1
  H  H21  1  0.21492300  0.19960600  0.30401800  1
  H  H22  1  0.12512900  0.36541600  0.12534200  1
  H  H23  1  0.71154400  0.35985000  0.76306400  1
  H  H24  1  0.37704900  0.63561800  0.38439600  1
  H  H25  1  0.39749300  0.71422600  0.29871800  1
  H  H26  1  0.42257000  0.86094100  0.33195100  1
  H  H27  1  0.31263000  0.89803500  0.33663200  1
  H  H28  1  0.17752300  0.78788700  0.30874800  1
  H  H29  1  0.15207800  0.64095500  0.27558600  1
  H  H30  1  0.42072700  0.43976200  0.10961100  1
  H  H31  1  0.56562800  0.46240900  0.14991900  1
  H  H32  1  0.68777400  0.57565800  0.29710200  1
  H  H33  1  0.52004100  0.64412000  0.36398400  1
  H  H34  1  0.76487400  0.37237600  0.70155400  1
  H  H35  1  0.39842000  0.53132500  0.21609600  1
  H  H36  1  0.74548000  0.74854400  0.37200100  1
  H  H37  1  0.76430900  0.76081000  0.64298800  1
  H  H38  1  0.93193600  0.81166600  0.71476200  1
  H  H39  1  0.04839400  0.93090900  0.86221600  1
  H  H40  1  0.07897900  0.08132000  0.90615200  1
  H  H41  1  0.99227100  0.11216300  0.80290900  1
  H  H42  1  0.87565400  0.99320700  0.65499400  1
  H  H43  1  0.61702900  0.12569900  0.69835900  1
  H  H44  1  0.71816600  0.10091300  0.79581600  1
  H  H45  1  0.76901700  0.48816400  0.63271600  1
  H  H46  1  0.86487800  0.15505100  0.82096100  1
  H  H47  1  0.81033200  0.26133800  0.65419200  1
  H  H48  1  0.66356700  0.20515400  0.62681600  1
  H  H49  1  0.87827100  0.12415600  0.63287300  1
  H  H50  1  0.14163700  0.39094700  0.88294000  1
  H  H51  1  0.22155500  0.31188600  0.91673700  1
  H  H52  1  0.36630100  0.34377000  0.94674200  1
  H  H53  1  0.40339600  0.33798100  0.83319200  1
  H  H54  1  0.29510400  0.30072700  0.68924400  1
  H  H55  1  0.15018500  0.26874700  0.65868300  1
  H  H56  1  0.88324500  0.51670500  0.75028300  1
  H  H57  1  0.96272300  0.41719300  0.32770900  1
  H  H58  1  0.83819300  0.39335300  0.20478100  1
  H  H59  1  0.84715600  0.51155100  0.17225700  1
  H  H60  1  0.10495900  0.67823800  0.38641400  1
  H  H61  1  0.09572000  0.56010000  0.41903200  1
  H  H62  1  0.98770100  0.73985500  0.37707800  1
  H  H63  1  0.98690800  0.74875900  0.11915200  1
  H  H64  1  0.86966000  0.79782000  0.09335600  1
  H  H65  1  0.87180600  0.91503900  0.06158800  1
  H  H66  1  0.98940700  0.06643800  0.16756500  1
  H  H67  1  0.73611400  0.61915000  0.80042500  1
  H  H68  1  0.10504100  0.09965700  0.30460700  1
  H  H69  1  0.10455500  0.98297700  0.33619100  1
  H  H70  1  0.92315900  0.38389700  0.48589600  1
  H  H71  1  0.84149500  0.28338200  0.32094400  1
  H  H72  1  0.78315300  0.30620700  0.37182300  1
  H  H73  1  0.78474200  0.13438700  0.30578300  1
  H  H74  1  0.69867700  0.15443400  0.26458000  1
  H  H75  1  0.68783500  0.08620300  0.35647200  1
  H  H76  1  0.69625500  0.19160900  0.40112000  1
  H  H77  1  0.84637800  0.15635300  0.45548000  1
  H  H78  1  0.64380800  0.52784100  0.77954300  1
  H  H79  1  0.79097700  0.17162100  0.51409800  1
  H  H80  1  0.92082300  0.30999500  0.57834900  1
  H  H81  1  0.82772100  0.31685500  0.52643100  1
  H  H82  1  0.72649000  0.49584600  0.86739100  1
  C  C1  1  0.38731600  0.37508600  0.50009200  1
  C  C2  1  0.80574100  0.49281700  0.80997000  1
  C  C3  1  0.98827100  0.81113600  0.30909500  1
  C  C4  1  0.98535700  0.81212500  0.23462600  1
  C  C5  1  0.98577500  0.74605100  0.17529700  1
  C  C6  1  0.98474600  0.67669400  0.18625900  1
  C  C7  1  0.98255500  0.67322600  0.25832100  1
  C  C8  1  0.92155200  0.86419700  0.14012500  1
  C  C9  1  0.92258600  0.92997300  0.12218600  1
  C  C10  1  0.98841600  0.01472400  0.18147700  1
  C  C11  1  0.05334200  0.03343700  0.25835900  1
  C  C12  1  0.05249700  0.96783200  0.27642100  1
  C  C13  1  0.84584400  0.54266000  0.77188500  1
  C  C14  1  0.98583400  0.88306800  0.21786400  1
  C  C15  1  0.89611300  0.31243900  0.45678700  1
  C  C16  1  0.81938700  0.27179100  0.36537700  1
  C  C17  1  0.75692900  0.17485900  0.32456900  1
  C  C18  1  0.73081600  0.15729500  0.38683000  1
  C  C19  1  0.81030900  0.18851400  0.47013300  1
  C  C20  1  0.86578600  0.28641400  0.51417400  1
  C  C21  1  0.76450400  0.53689800  0.84861700  1
  C  C22  1  0.43858900  0.14906500  0.41393900  1
  C  C23  1  0.38240600  0.17837300  0.41705300  1
  C  C24  1  0.38167600  0.21231100  0.49363500  1
  C  C25  1  0.43462700  0.21307700  0.56579100  1
  C  C26  1  0.48989600  0.18262300  0.56232300  1
  C  C27  1  0.49229200  0.15105800  0.48655800  1
  C  C28  1  0.24985200  0.17546600  0.49653700  1
  C  C29  1  0.62492400  0.49660000  0.62231800  1
  C  C30  1  0.18151400  0.18646600  0.49205500  1
  C  C31  1  0.17980500  0.25822200  0.48736500  1
  C  C32  1  0.24917400  0.32005700  0.49355000  1
  C  C33  1  0.31664400  0.30775700  0.49584900  1
  C  C34  1  0.31501700  0.23277700  0.49414300  1
  C  C35  1  0.03402500  0.22771400  0.39751700  1
  C  C36  1  0.96557500  0.24045300  0.38803700  1
  C  C37  1  0.96929100  0.29726300  0.46020200  1
  C  C38  1  0.04610200  0.34655800  0.53936800  1
  C  C39  1  0.11500300  0.33493800  0.54801800  1
  C  C40  1  0.62357400  0.62064900  0.50304900  1
  C  C41  1  0.10751900  0.27213200  0.47817400  1
  C  C42  1  0.21375300  0.19998400  0.12502100  1
  C  C43  1  0.22520100  0.28180600  0.14421300  1
  C  C44  1  0.23404000  0.33468900  0.22144800  1
  C  C45  1  0.22882000  0.30429300  0.27813100  1
  C  C46  1  0.21763300  0.22262100  0.25894800  1
  C  C47  1  0.21025200  0.17047300  0.18257300  1
  C  C48  1  0.18055200  0.42501600  0.18247000  1
  C  C49  1  0.18681500  0.50389300  0.19496300  1
  C  C50  1  0.25945900  0.58059200  0.26713900  1
  C  C51  1  0.38487200  0.49801300  0.38138900  1
  C  C52  1  0.32172500  0.57606200  0.32716300  1
  C  C53  1  0.31557300  0.49715500  0.31467700  1
  C  C54  1  0.24476800  0.42082600  0.24038700  1
  C  C55  1  0.34878100  0.72987900  0.30076600  1
  C  C56  1  0.36295900  0.81241900  0.31925200  1
  C  C57  1  0.30135000  0.83321200  0.32182400  1
  C  C58  1  0.22556100  0.77140100  0.30598700  1
  C  C59  1  0.21118700  0.68873300  0.28711200  1
  C  C60  1  0.27240900  0.66728700  0.28372500  1
  C  C61  1  0.55561600  0.50202700  0.19718600  1
  C  C62  1  0.66346300  0.40236500  0.67374700  1
  C  C63  1  0.62416200  0.56568600  0.27987400  1
  C  C64  1  0.61153500  0.61580600  0.34078500  1
  C  C65  1  0.53018900  0.60348200  0.31763400  1
  C  C66  1  0.46186800  0.54041600  0.23456000  1
  C  C67  1  0.47443400  0.48930000  0.17457000  1
  C  C68  1  0.75018400  0.75117700  0.43185200  1
  C  C69  1  0.82074300  0.81987500  0.51125400  1
  C  C70  1  0.82611100  0.82288900  0.58788800  1
  C  C71  1  0.76045600  0.75784100  0.58329000  1
  C  C72  1  0.69019100  0.68896800  0.50379600  1
  C  C73  1  0.73686700  0.40065400  0.73683700  1
  C  C74  1  0.68538800  0.68544900  0.42728600  1
  C  C75  1  0.94530200  0.87769600  0.73357600  1
  C  C76  1  0.01078300  0.94461400  0.81642300  1
  C  C77  1  0.02797100  0.02889700  0.84105800  1
  C  C78  1  0.97948800  0.04620900  0.78293300  1
  C  C79  1  0.91436800  0.97943100  0.69980100  1
  C  C80  1  0.89764100  0.89499400  0.67454900  1
  C  C81  1  0.00210400  0.38283700  0.88493700  1
  C  C82  1  0.87357100  0.49219600  0.87950700  1
  C  C83  1  0.98958700  0.61144300  0.12242900  1
  C  C84  1  0.77571900  0.53263100  0.69354200  1
  C  C85  1  0.11881600  0.50344100  0.12754700  1
  C  C86  1  0.01276600  0.12898700  0.62837800  1
  C  C87  1  0.11516700  0.12235100  0.49543600  1
  C  C88  1  0.99125900  0.88050800  0.37684400  1
  C  C89  1  0.88730800  0.88705200  0.51070600  1
  C  C90  1  0.73854900  0.13668100  0.76515400  1
  C  C91  1  0.82088900  0.16748000  0.77965300  1
  C  C92  1  0.84716100  0.21385500  0.74115100  1
  C  C93  1  0.79030800  0.22674600  0.68586200  1
  C  C94  1  0.70771000  0.19485300  0.67035100  1
  C  C95  1  0.70587200  0.54913500  0.78120400  1
  C  C96  1  0.68186300  0.15042200  0.71042400  1
  C  C97  1  0.93656000  0.18320300  0.68735000  1
  C  C98  1  0.01449500  0.19687800  0.69589700  1
  C  C99  1  0.08965100  0.27067100  0.76877900  1
  C  C100  1  0.08378500  0.33176000  0.82805800  1
  C  C101  1  0.00525800  0.31699700  0.81973000  1
  C  C102  1  0.93162200  0.23966700  0.75062000  1
  C  C103  1  0.23716700  0.30951600  0.86636700  1
  C  C104  1  0.31865200  0.32723100  0.88338700  1
  C  C105  1  0.33945200  0.32388200  0.81974500  1
  C  C106  1  0.69173700  0.49522100  0.69194100  1
  C  C107  1  0.27868800  0.30280600  0.73903300  1
  C  C108  1  0.19708200  0.28465600  0.72183200  1
  C  C109  1  0.17557900  0.28731900  0.78513200  1
  C  C110  1  0.89729100  0.45553800  0.24382600  1
  C  C111  1  0.90263500  0.52170100  0.22513600  1
  C  C112  1  0.97837800  0.60090500  0.27411100  1
  C  C113  1  0.04677400  0.61518200  0.34534000  1
  C  C114  1  0.04152600  0.54899800  0.36395000  1
  C  C115  1  0.96696600  0.46895300  0.31285300  1
  C  C116  1  0.98768200  0.74204500  0.32034900  1
  O  O1  1  0.41665600  0.35130700  0.44875000  1
  O  O2  1  0.05483900  0.46581900  0.91667100  1
  O  O3  1  0.85066100  0.43983800  0.90976200  1
  O  O4  1  0.95407900  0.54586700  0.90872000  1
  O  O5  1  0.93830200  0.52883200  0.09165000  1
  O  O6  1  0.04248700  0.63871000  0.09541100  1
  O  O7  1  0.03816600  0.44767900  0.09690800  1
  O  O8  1  0.14145400  0.55656600  0.09837400  1
  O  O9  1  0.06302100  0.09793700  0.65176200  1
  O  O10  1  0.95719700  0.09930300  0.54660400  1
  O  O11  1  0.14059700  0.09370800  0.54892200  1
  O  O12  1  0.41423400  0.45710000  0.55116900  1
  O  O13  1  0.03394600  0.09322200  0.44304900  1
  O  O14  1  0.04383900  0.90747800  0.45873000  1
  O  O15  1  0.94131400  0.91197600  0.35365700  1
  O  O16  1  0.96868900  0.91672600  0.56371300  1
  O  O17  1  0.86188900  0.91294000  0.45460800  1
  O  O18  1  0.59556500  0.44351100  0.54001300  1
  O  O19  1  0.59776500  0.55039000  0.64629500  1
  O  O20  1  0.59523700  0.53865100  0.45051900  1
  O  O21  1  0.59598100  0.64460800  0.55624100  1
  O  O22  1  0.41179200  0.44387100  0.35722300  1
  O  O23  1  0.41707700  0.55377700  0.46355200  1
  O  O24  1  0.94792000  0.35616700  0.91032000  1
