# generated using pymatgen
data_ZnH8C14NO4
_symmetry_space_group_name_H-M   'P 1'
_cell_length_a   8.53136800
_cell_length_b   11.08916300
_cell_length_c   11.29690200
_cell_angle_alpha   95.09883100
_cell_angle_beta   90.06838700
_cell_angle_gamma   77.44475500
_symmetry_Int_Tables_number   1
_chemical_formula_structural   ZnH8C14NO4
_chemical_formula_sum   'Zn2 H16 C28 N2 O8'
_cell_volume   1038.88581010
_cell_formula_units_Z   2
loop_
 _symmetry_equiv_pos_site_id
 _symmetry_equiv_pos_as_xyz
  1  'x, y, z'
loop_
 _atom_site_type_symbol
 _atom_site_label
 _atom_site_symmetry_multiplicity
 _atom_site_fract_x
 _atom_site_fract_y
 _atom_site_fract_z
 _atom_site_occupancy
  Zn  Zn1  1  0.49319900  0.51973100  0.13228900  1
  Zn  Zn2  1  0.50680100  0.48027000  0.86771100  1
  H  H1  1  0.02364700  0.41668000  0.03997600  1
  H  H2  1  0.97635400  0.58332000  0.96002500  1
  H  H3  1  0.36869200  0.07866100  0.98594300  1
  H  H4  1  0.63130800  0.92133900  0.01405700  1
  H  H5  1  0.71702300  0.11237100  0.01177000  1
  H  H6  1  0.28297700  0.88762900  0.98823000  1
  H  H7  1  0.45715900  0.65256900  0.70727500  1
  H  H8  1  0.54284200  0.34743100  0.29272500  1
  H  H9  1  0.57108000  0.26592300  0.69991900  1
  H  H10  1  0.42892000  0.73407700  0.30008200  1
  H  H11  1  0.39244200  0.86190600  0.47232900  1
  H  H12  1  0.30528400  0.80139700  0.59287200  1
  H  H13  1  0.51786800  0.80303400  0.59171600  1
  H  H14  1  0.60755900  0.13809500  0.52767100  1
  H  H15  1  0.48213300  0.19696700  0.40828400  1
  H  H16  1  0.69471700  0.19860400  0.40712900  1
  C  C1  1  0.92835900  0.25622000  0.01326300  1
  C  C2  1  0.07164200  0.74378000  0.98673700  1
  C  C3  1  0.05129600  0.31779300  0.02387800  1
  C  C4  1  0.94870500  0.68220800  0.97612200  1
  C  C5  1  0.20836200  0.25610600  0.00869900  1
  C  C6  1  0.79163900  0.74389500  0.99130100  1
  C  C7  1  0.24481700  0.12822000  0.99544700  1
  C  C8  1  0.75518400  0.87178100  0.00455300  1
  C  C9  1  0.12210400  0.06428800  0.99864100  1
  C  C10  1  0.87789600  0.93571300  0.00135900  1
  C  C11  1  0.96303600  0.12803000  0.00477000  1
  C  C12  1  0.03696500  0.87197100  0.99523000  1
  C  C13  1  0.15862900  0.93645200  0.99411900  1
  C  C14  1  0.84137200  0.06354800  0.00588200  1
  C  C15  1  0.23415300  0.66807000  0.99183900  1
  C  C16  1  0.76584700  0.33193100  0.00816200  1
  C  C17  1  0.32959800  0.33096200  0.00485800  1
  C  C18  1  0.67040300  0.66903900  0.99514200  1
  C  C19  1  0.45109300  0.66357800  0.47132900  1
  C  C20  1  0.54890700  0.33642200  0.52867100  1
  C  C21  1  0.45309500  0.65240700  0.34847900  1
  C  C22  1  0.54690600  0.34759300  0.65152100  1
  C  C23  1  0.51708600  0.43575700  0.34518200  1
  C  C24  1  0.48291400  0.56424300  0.65481800  1
  C  C25  1  0.51660400  0.44258600  0.46815400  1
  C  C26  1  0.48339700  0.55741400  0.53184700  1
  C  C27  1  0.41450600  0.78998200  0.53618100  1
  C  C28  1  0.58549500  0.21001900  0.46382000  1
  N  N1  1  0.51424400  0.46036200  0.71203500  1
  N  N2  1  0.48575700  0.53963800  0.28796500  1
  O  O1  1  0.30058100  0.60938900  0.89251300  1
  O  O2  1  0.69942000  0.39061200  0.10748700  1
  O  O3  1  0.29414400  0.64582600  0.09693100  1
  O  O4  1  0.70585700  0.35417400  0.90306900  1
  O  O5  1  0.36105900  0.39003800  0.10476300  1
  O  O6  1  0.63894100  0.60996300  0.89523700  1
  O  O7  1  0.37884600  0.35348100  0.90046600  1
  O  O8  1  0.62115500  0.64651900  0.09953500  1
