# generated using pymatgen
data_CuH20C23NO4
_symmetry_space_group_name_H-M   'P 1'
_cell_length_a   21.46194000
_cell_length_b   21.19909900
_cell_length_c   13.79563800
_cell_angle_alpha   90.00000000
_cell_angle_beta   90.00000000
_cell_angle_gamma   90.00000000
_symmetry_Int_Tables_number   1
_chemical_formula_structural   CuH20C23NO4
_chemical_formula_sum   'Cu4 H80 C92 N4 O16'
_cell_volume   6276.65371725
_cell_formula_units_Z   4
loop_
 _symmetry_equiv_pos_site_id
 _symmetry_equiv_pos_as_xyz
  1  'x, y, z'
loop_
 _atom_site_type_symbol
 _atom_site_label
 _atom_site_symmetry_multiplicity
 _atom_site_fract_x
 _atom_site_fract_y
 _atom_site_fract_z
 _atom_site_occupancy
  Cu  Cu1  1  0.99748700  0.49942100  0.59716200  1
  Cu  Cu2  1  0.99794100  0.50042100  0.40284100  1
  Cu  Cu3  1  0.49793900  0.99981400  0.59569100  1
  Cu  Cu4  1  0.49826300  0.00039700  0.40394200  1
  H  H1  1  0.96968700  0.59509000  0.06590500  1
  H  H2  1  0.96956400  0.40428500  0.93348900  1
  H  H3  1  0.02577600  0.40440500  0.06904000  1
  H  H4  1  0.02628800  0.59484000  0.93135800  1
  H  H5  1  0.46040100  0.09414900  0.06850800  1
  H  H6  1  0.46060500  0.90598800  0.93101100  1
  H  H7  1  0.51784100  0.90423600  0.06611800  1
  H  H8  1  0.51921400  0.09551800  0.93345900  1
  H  H9  1  0.77880300  0.27813200  0.65318700  1
  H  H10  1  0.20726500  0.73171400  0.34999100  1
  H  H11  1  0.23139100  0.70506100  0.65506200  1
  H  H12  1  0.77751300  0.28124400  0.34301000  1
  H  H13  1  0.23178100  0.29495300  0.34535700  1
  H  H14  1  0.77724600  0.71936500  0.65692600  1
  H  H15  1  0.77933400  0.72206800  0.34690100  1
  H  H16  1  0.20743400  0.26945700  0.65078600  1
  H  H17  1  0.24796500  0.81331900  0.63909900  1
  H  H18  1  0.67186600  0.26536800  0.38231400  1
  H  H19  1  0.76489300  0.17033300  0.61448500  1
  H  H20  1  0.31288600  0.74605100  0.36454000  1
  H  H21  1  0.76560300  0.83024400  0.38732800  1
  H  H22  1  0.31371100  0.25529200  0.63421800  1
  H  H23  1  0.24820300  0.18771400  0.36031400  1
  H  H24  1  0.67138300  0.73562600  0.61882200  1
  H  H25  1  0.85801200  0.35906000  0.65407600  1
  H  H26  1  0.12847900  0.65037800  0.34865400  1
  H  H27  1  0.14940000  0.62658900  0.65428000  1
  H  H28  1  0.85578000  0.36282900  0.34411500  1
  H  H29  1  0.15008600  0.37348000  0.34526000  1
  H  H30  1  0.85542400  0.63702300  0.65625100  1
  H  H31  1  0.85838000  0.64089200  0.34657200  1
  H  H32  1  0.12873600  0.35041100  0.65123000  1
  H  H33  1  0.32919100  0.89260200  0.63913200  1
  H  H34  1  0.59200200  0.18459100  0.38249900  1
  H  H35  1  0.68498100  0.08943500  0.61332700  1
  H  H36  1  0.39097800  0.82781500  0.36164100  1
  H  H37  1  0.68436100  0.91045500  0.38582600  1
  H  H38  1  0.39197100  0.17300200  0.63676800  1
  H  H39  1  0.32780300  0.10754200  0.36071700  1
  H  H40  1  0.59136800  0.81596600  0.61674100  1
  H  H41  1  0.08093100  0.63640900  0.18933000  1
  H  H42  1  0.02138800  0.68102400  0.12584200  1
  H  H43  1  0.04504300  0.70456600  0.24529700  1
  H  H44  1  0.94102500  0.64185000  0.22594800  1
  H  H45  1  0.99469600  0.62593200  0.32124100  1
  H  H46  1  0.08075000  0.36422900  0.81151900  1
  H  H47  1  0.02089100  0.31928400  0.87374400  1
  H  H48  1  0.04620600  0.29555300  0.75527700  1
  H  H49  1  0.94127600  0.35754800  0.77144000  1
  H  H50  1  0.99560200  0.37378100  0.67779100  1
  H  H51  1  0.91578800  0.36794300  0.19075100  1
  H  H52  1  0.97486600  0.31953800  0.13311600  1
  H  H53  1  0.94769600  0.30018600  0.25254800  1
  H  H54  1  0.05497200  0.35974100  0.23379000  1
  H  H55  1  0.00033000  0.37841500  0.32580600  1
  H  H56  1  0.91548000  0.63287800  0.80862600  1
  H  H57  1  0.97480600  0.67980000  0.86862300  1
  H  H58  1  0.94929500  0.70065100  0.74896900  1
  H  H59  1  0.05486900  0.64011000  0.76716900  1
  H  H60  1  0.00002700  0.62159200  0.67494500  1
  H  H61  1  0.56922500  0.14451500  0.21288900  1
  H  H62  1  0.51203800  0.17747700  0.13047300  1
  H  H63  1  0.52005700  0.20946500  0.24977100  1
  H  H64  1  0.42669200  0.13637700  0.23054000  1
  H  H65  1  0.47921300  0.12194600  0.32597700  1
  H  H66  1  0.56917800  0.85682200  0.78957400  1
  H  H67  1  0.51151900  0.82216000  0.86956300  1
  H  H68  1  0.52152300  0.79133100  0.74998000  1
  H  H69  1  0.42696100  0.86349400  0.77225400  1
  H  H70  1  0.47817300  0.87747900  0.67427900  1
  H  H71  1  0.59720600  0.85203900  0.14722700  1
  H  H72  1  0.62203000  0.90779900  0.23851300  1
  H  H73  1  0.60684700  0.82641100  0.27060900  1
  H  H74  1  0.51758800  0.87787600  0.32421800  1
  H  H75  1  0.49396500  0.84700500  0.21307900  1
  H  H76  1  0.59678600  0.14873900  0.85310100  1
  H  H77  1  0.62202300  0.09311300  0.76164600  1
  H  H78  1  0.60556500  0.17448400  0.72974900  1
  H  H79  1  0.51724700  0.12279200  0.67618800  1
  H  H80  1  0.49403400  0.15297100  0.78868100  1
  C  C1  1  0.08322100  0.41487100  0.49908900  1
  C  C2  1  0.91228600  0.58503600  0.50097500  1
  C  C3  1  0.91256600  0.41459700  0.49920900  1
  C  C4  1  0.08320000  0.58506300  0.50071500  1
  C  C5  1  0.58283300  0.91620900  0.49988600  1
  C  C6  1  0.41370400  0.08462700  0.50011600  1
  C  C7  1  0.41397600  0.91539400  0.49940700  1
  C  C8  1  0.58292000  0.08403100  0.49990500  1
  C  C9  1  0.79637100  0.29533400  0.58474700  1
  C  C10  1  0.19608600  0.70801200  0.41704200  1
  C  C11  1  0.20821300  0.69441200  0.58746100  1
  C  C12  1  0.79460100  0.29803200  0.41202200  1
  C  C13  1  0.20816100  0.30531400  0.41255800  1
  C  C14  1  0.79415200  0.70191900  0.58820500  1
  C  C15  1  0.79632800  0.70444600  0.41554000  1
  C  C16  1  0.19589100  0.29228300  0.58313100  1
  C  C17  1  0.28012500  0.81496500  0.57885000  1
  C  C18  1  0.67583200  0.22652600  0.43268300  1
  C  C19  1  0.72675300  0.17446500  0.56377600  1
  C  C20  1  0.31501800  0.77867300  0.42452900  1
  C  C21  1  0.72684100  0.82582400  0.43686700  1
  C  C22  1  0.31553600  0.22216400  0.57469700  1
  C  C23  1  0.28013000  0.18572700  0.42080000  1
  C  C24  1  0.67539800  0.77391400  0.56766100  1
  C  C25  1  0.84131400  0.34177000  0.58528800  1
  C  C26  1  0.15039400  0.66238100  0.41636600  1
  C  C27  1  0.16180100  0.64932600  0.58690500  1
  C  C28  1  0.83982500  0.34419400  0.41257100  1
  C  C29  1  0.16189400  0.35041500  0.41258400  1
  C  C30  1  0.83928000  0.65553200  0.58794300  1
  C  C31  1  0.84122900  0.65786200  0.41532200  1
  C  C32  1  0.15021100  0.33784100  0.58325600  1
  C  C33  1  0.32588400  0.86065400  0.57824000  1
  C  C34  1  0.63016300  0.18079000  0.43304000  1
  C  C35  1  0.68115100  0.12857100  0.56366200  1
  C  C36  1  0.35999900  0.82505400  0.42311600  1
  C  C37  1  0.68090100  0.87144000  0.43604300  1
  C  C38  1  0.36043900  0.17560600  0.57578600  1
  C  C39  1  0.32535000  0.13956800  0.42141500  1
  C  C40  1  0.62967400  0.81954400  0.56669500  1
  C  C41  1  0.86386400  0.36602700  0.49908700  1
  C  C42  1  0.13250800  0.63310100  0.50133600  1
  C  C43  1  0.13237800  0.36672400  0.49808400  1
  C  C44  1  0.86343900  0.63348700  0.50148000  1
  C  C45  1  0.36581100  0.86627800  0.50006100  1
  C  C46  1  0.63215500  0.13196100  0.49914800  1
  C  C47  1  0.63184000  0.86817100  0.50048000  1
  C  C48  1  0.36556600  0.13388500  0.49928100  1
  C  C49  1  0.98450600  0.55340300  0.10417100  1
  C  C50  1  0.98409900  0.44621200  0.89537300  1
  C  C51  1  0.01235300  0.44719100  0.10583100  1
  C  C52  1  0.01229000  0.55238200  0.89438200  1
  C  C53  1  0.47648000  0.05255700  0.10596100  1
  C  C54  1  0.47637400  0.94771200  0.89365800  1
  C  C55  1  0.50638400  0.94694300  0.10466200  1
  C  C56  1  0.50680000  0.05304400  0.89498900  1
  C  C57  1  0.77280300  0.27290900  0.49816300  1
  C  C58  1  0.22559100  0.72440000  0.50246900  1
  C  C59  1  0.22536400  0.27563000  0.49776200  1
  C  C60  1  0.77243400  0.72697500  0.50200800  1
  C  C61  1  0.27450100  0.77326800  0.50223100  1
  C  C62  1  0.72445000  0.22381700  0.49816400  1
  C  C63  1  0.72418300  0.77636600  0.50222600  1
  C  C64  1  0.27455700  0.22721900  0.49765700  1
  C  C65  1  0.99095700  0.55578000  0.20370500  1
  C  C66  1  0.99062500  0.44396100  0.79576400  1
  C  C67  1  0.00652200  0.44627200  0.20552800  1
  C  C68  1  0.00629900  0.55352200  0.79474700  1
  C  C69  1  0.48320200  0.05436200  0.20583100  1
  C  C70  1  0.48307800  0.94591900  0.79383700  1
  C  C71  1  0.50869200  0.94664600  0.20509600  1
  C  C72  1  0.50874900  0.05350000  0.79469600  1
  C  C73  1  0.99830500  0.49999100  0.05343300  1
  C  C74  1  0.99826100  0.49952100  0.94645400  1
  C  C75  1  0.49010900  0.99971600  0.05355800  1
  C  C76  1  0.49002700  0.00045100  0.94607300  1
  C  C77  1  0.98735800  0.62172800  0.24357000  1
  C  C78  1  0.03688600  0.66328200  0.19751000  1
  C  C79  1  0.98763200  0.37804300  0.75527000  1
  C  C80  1  0.03705300  0.33690600  0.80241200  1
  C  C81  1  0.00867400  0.38092800  0.24825700  1
  C  C82  1  0.95860000  0.33972800  0.20277800  1
  C  C83  1  0.00856400  0.61901300  0.75249300  1
  C  C84  1  0.95882800  0.66048200  0.79822300  1
  C  C85  1  0.47420800  0.11920000  0.24796500  1
  C  C86  1  0.52189800  0.16518300  0.20704500  1
  C  C87  1  0.47407100  0.88075600  0.75249700  1
  C  C88  1  0.52217700  0.83527500  0.79357200  1
  C  C89  1  0.52473300  0.88295200  0.24660700  1
  C  C90  1  0.59203400  0.86632400  0.22406100  1
  C  C91  1  0.52450000  0.11724300  0.75377200  1
  C  C92  1  0.59166400  0.13426600  0.77631900  1
  N  N1  1  0.99778700  0.50127100  0.25701600  1
  N  N2  1  0.99788200  0.49870900  0.74291800  1
  N  N3  1  0.49804300  0.00081500  0.25800800  1
  N  N4  1  0.49798100  0.99948300  0.74162900  1
  O  O1  1  0.05976400  0.43269300  0.58233800  1
  O  O2  1  0.93403100  0.56542800  0.41761600  1
  O  O3  1  0.93264800  0.56329200  0.58388500  1
  O  O4  1  0.06452900  0.43837200  0.41646700  1
  O  O5  1  0.93285000  0.43647500  0.41623000  1
  O  O6  1  0.06434100  0.56164800  0.58348000  1
  O  O7  1  0.05969100  0.56735900  0.41744600  1
  O  O8  1  0.93411300  0.43429500  0.58249600  1
  O  O9  1  0.55139200  0.92590900  0.58049200  1
  O  O10  1  0.42441300  0.05369200  0.41921200  1
  O  O11  1  0.44471000  0.07402200  0.58094700  1
  O  O12  1  0.57174700  0.94716200  0.41879600  1
  O  O13  1  0.44474500  0.92624400  0.41843600  1
  O  O14  1  0.57174300  0.05318300  0.58105500  1
  O  O15  1  0.55140700  0.07437700  0.41943500  1
  O  O16  1  0.42449000  0.94652900  0.58029100  1
