# Generated by REPEAT Assigner based on pymatgen
data_DB0-m3_o13_o20_f0_pcu.sym.19
_audit_creation_date              2022-05-24
_audit_creation_method            REPEAT_Assigner
_cell_length_a                    11.891389
_cell_length_b                    13.077024
_cell_length_c                    14.536284
_cell_angle_alpha                 89.991345
_cell_angle_beta                  85.549358
_cell_angle_gamma                 91.192746
_cell_volume                      2253.142002
_symmetry_space_group_name_H-M    P1
_symmetry_Int_Tables_number       1
loop_
    _symmetry_equiv_pos_site_id
    _symmetry_equiv_pos_as_xyz
    1  x,y,z
loop_
    _atom_site_type_symbol
    _atom_site_label
    _atom_site_fract_x
    _atom_site_fract_y
    _atom_site_fract_z
    _atom_type_partial_charge
    O   O1   0.418292  0.658201  0.504957  -0.637493
    O   O2   0.581708  0.341799  0.495043  -0.637584
    O   O3   0.612160  0.645836  0.493170  -0.652957
    O   O4   0.387840  0.354164  0.506830  -0.653009
    C   C1   0.520034  0.699830  0.498771  0.673981
    C   C2   0.479966  0.300170  0.501229  0.674118
    O   O5   0.402063  0.506177  0.643027  -0.696877
    O   O6   0.597937  0.493823  0.356973  -0.696854
    O   O7   0.596138  0.493801  0.631225  -0.706158
    O   O8   0.403862  0.506199  0.368775  -0.706149
    C   C3   0.498945  0.499980  0.679869  0.977772
    C   C4   0.501055  0.500020  0.320131  0.977719
    Zn  Zn1  0.372125  0.508147  0.507717  1.041692
    Zn  Zn2  0.627875  0.491854  0.492283  1.041756
    C   C5   0.498744  0.499997  0.778601  -0.346638
    C   C6   0.501256  0.500003  0.221399  -0.346609
    C   C7   0.499028  0.500002  0.861479  0.138491
    C   C8   0.500972  0.499998  0.138521  0.138471
    C   C9   0.499681  0.500001  0.958573  -0.043356
    C   C10  0.500319  0.499999  0.041427  -0.043341
    C   C11  0.468656  0.188191  0.501907  -0.000721
    C   C12  0.531344  0.811809  0.498093  -0.000588
    C   C13  0.647597  0.963756  0.491059  -0.270680
    C   C14  0.352403  0.036244  0.508942  -0.270756
    C   C15  0.637085  0.858570  0.491694  -0.097187
    C   C16  0.362915  0.141430  0.508306  -0.097063
    C   C17  0.436397  0.871581  0.503853  -0.244411
    C   C18  0.563603  0.128419  0.496147  -0.244277
    C   C19  0.447240  0.976924  0.503197  0.219346
    C   C20  0.552760  0.023077  0.496803  0.219226
    H   H1   0.646997  0.163347  0.491087  0.127163
    H   H2   0.353003  0.836653  0.508913  0.127183
    H   H3   0.287294  0.186136  0.512877  0.108198
    H   H4   0.712706  0.813864  0.487123  0.108239
    H   H5   0.730730  0.999319  0.486026  0.146359
    H   H6   0.269270  0.000681  0.513974  0.146376
    N   N1   0.204066  0.518818  0.517633  0.038262
    N   N2   0.795934  0.481182  0.482367  0.038228
    C   C21  0.961765  0.405838  0.415288  0.319636
    C   C22  0.038235  0.594162  0.584712  0.319941
    C   C23  0.846056  0.414430  0.422622  -0.211378
    C   C24  0.153944  0.585571  0.577378  -0.211631
    C   C25  0.857578  0.540650  0.535953  -0.118111
    C   C26  0.142422  0.459350  0.464047  -0.117968
    C   C27  0.973723  0.533889  0.530325  0.028083
    C   C28  0.026277  0.466111  0.469675  0.028362
    H   H7   0.184728  0.406461  0.416632  0.182671
    H   H8   0.815272  0.593539  0.583368  0.182757
    H   H9   0.204570  0.632851  0.619851  0.197736
    H   H10  0.795430  0.367149  0.380149  0.197666
    F   F1   0.010831  0.338231  0.354803  -0.173796
    F   F2   0.989169  0.661769  0.645197  -0.173842
