# Generated by REPEAT Assigner based on pymatgen
data_DB0-m2_o3_o21_f0_pcu.sym.87
_audit_creation_date              2022-05-24
_audit_creation_method            REPEAT_Assigner
_cell_length_a                    13.986496
_cell_length_b                    18.125598
_cell_length_c                    19.340131
_cell_angle_alpha                 89.984009
_cell_angle_beta                  89.997801
_cell_angle_gamma                 85.351201
_cell_volume                      4886.856487
_symmetry_space_group_name_H-M    P1
_symmetry_Int_Tables_number       1
loop_
    _symmetry_equiv_pos_site_id
    _symmetry_equiv_pos_as_xyz
    1  x,y,z
loop_
    _atom_site_type_symbol
    _atom_site_label
    _atom_site_fract_x
    _atom_site_fract_y
    _atom_site_fract_z
    _atom_type_partial_charge
    O   O1   0.502014  0.435908  0.603110  -0.521740
    O   O2   0.485903  0.560390  0.400983  -0.554708
    O   O3   0.502871  0.562684  0.601563  -0.534250
    O   O4   0.499305  0.433087  0.402178  -0.561947
    C   C1   0.503288  0.499663  0.634948  0.521689
    C   C2   0.491419  0.496479  0.369085  0.544008
    O   O5   0.636935  0.425449  0.498937  -0.412563
    O   O6   0.358713  0.569322  0.509796  -0.560963
    O   O7   0.636715  0.552138  0.496947  -0.654247
    O   O8   0.358217  0.442859  0.501452  -0.437418
    C   C3   0.681414  0.486161  0.496781  0.743481
    C   C4   0.313755  0.508802  0.506228  0.706626
    Cu  Cu1  0.497767  0.423829  0.502653  0.660976
    Cu  Cu2  0.497276  0.571777  0.501071  1.010077
    C   C5   0.210910  0.514675  0.508718  -0.258059
    C   C6   0.784017  0.480501  0.494110  -0.252778
    C   C7   0.021590  0.525049  0.513407  -0.076994
    C   C8   0.973301  0.469985  0.490118  -0.082461
    C   C9   0.870301  0.476064  0.492138  0.017022
    C   C10  0.124577  0.519212  0.510887  0.033649
    H   H1   0.011535  0.420287  0.469750  0.165775
    H   H2   0.983449  0.574744  0.533728  0.132826
    C   C11  0.480221  0.561479  0.256316  -0.177556
    C   C12  0.499249  0.435947  0.748123  -0.247709
    H   H3   0.473545  0.614127  0.282451  0.178959
    H   H4   0.495903  0.383532  0.722290  0.151138
    C   C13  0.480497  0.560829  0.185119  -0.084099
    C   C14  0.500254  0.437187  0.819350  -0.093153
    H   H5   0.475380  0.613055  0.157810  0.081545
    H   H6   0.498310  0.385825  0.847679  0.103221
    C   C15  0.490367  0.494692  0.149303  -0.129854
    C   C16  0.501575  0.503345  0.854512  -0.135208
    C   C17  0.498752  0.428588  0.186085  0.392868
    C   C18  0.502145  0.569014  0.817597  0.396185
    C   C19  0.500884  0.429730  0.257391  -0.347565
    C   C20  0.503997  0.567053  0.746174  -0.304654
    H   H7   0.509667  0.377800  0.284792  0.149660
    H   H8   0.508201  0.618373  0.718572  0.236729
    C   C21  0.490499  0.495934  0.293060  0.087668
    C   C22  0.502527  0.500793  0.710965  0.121575
    C   C23  0.564879  0.455723  0.037368  -0.245577
    C   C24  0.427463  0.542657  0.966000  -0.226149
    H   H9   0.620864  0.423008  0.064615  0.127340
    H   H10  0.372357  0.575793  0.938206  0.134581
    C   C25  0.567223  0.458059  0.966192  -0.155362
    C   C26  0.424677  0.539892  0.037254  -0.138133
    H   H11  0.623973  0.426287  0.938820  0.101607
    H   H12  0.367732  0.571285  0.064743  0.130825
    C   C27  0.499320  0.502208  0.930243  0.227687
    C   C28  0.493045  0.496111  0.073355  0.224727
    C   C29  0.542904  0.271786  0.554774  0.370526
    C   C30  0.417014  0.726239  0.482098  0.407735
    C   C31  0.536324  0.196341  0.558212  -0.346959
    C   C32  0.413518  0.802242  0.488790  -0.393629
    H   H13  0.562336  0.168159  0.604309  0.154823
    H   H14  0.344848  0.832538  0.483159  0.172674
    C   C33  0.502084  0.158225  0.502943  0.323800
    C   C34  0.495543  0.838057  0.499208  0.389186
    C   C35  0.462104  0.200695  0.449259  -0.397692
    C   C36  0.578206  0.793361  0.511484  -0.441451
    H   H15  0.433595  0.175655  0.403943  0.098280
    H   H16  0.646849  0.815659  0.518556  0.109615
    C   C37  0.454151  0.277147  0.452891  0.364803
    C   C38  0.575833  0.717702  0.518405  0.426425
    N   N1   0.497782  0.313098  0.504168  -0.180515
    N   N2   0.497248  0.682664  0.499922  -0.349036
    C   C39  0.432081  0.042549  0.466279  -0.260470
    C   C40  0.563992  0.953783  0.538091  -0.248618
    H   H17  0.377905  0.075844  0.438332  0.194992
    H   H18  0.617186  0.920797  0.567338  0.223454
    C   C41  0.429769  0.966506  0.462245  0.235221
    C   C42  0.571372  0.029463  0.537329  0.295279
    C   C43  0.495201  0.920524  0.500001  -0.038640
    C   C44  0.502597  0.075705  0.502616  -0.039172
    N   N3   0.398812  0.316611  0.402105  -0.315481
    C   C45  0.303549  0.316427  0.413181  0.692759
    O   O9   0.273584  0.304196  0.470908  -0.563348
    C   C46  0.233990  0.332368  0.355613  -0.540480
    H   H19  0.418307  0.304989  0.351796  0.227876
    H   H20  0.271870  0.344922  0.307212  0.104908
    H   H21  0.184425  0.380881  0.369796  0.166644
    H   H22  0.192242  0.283613  0.347388  0.148084
    N   N4   0.659018  0.678350  0.543933  -0.248678
    C   C47  0.673091  0.688418  0.612021  0.646089
    O   O10  0.606526  0.710813  0.649146  -0.566626
    C   C48  0.770858  0.673487  0.641391  -0.472775
    H   H23  0.720718  0.681049  0.515287  0.211860
    H   H24  0.819986  0.710155  0.615991  0.111187
    H   H25  0.796353  0.614829  0.631882  0.123285
    H   H26  0.768760  0.684627  0.697699  0.142871
    N   N5   0.370264  0.937398  0.411678  -0.535569
    C   C49  0.275920  0.959885  0.415962  0.720793
    O   O11  0.241791  0.982998  0.470586  -0.547437
    C   C50  0.211582  0.952531  0.355253  -0.589609
    H   H27  0.398268  0.931847  0.362611  0.286404
    H   H28  0.252391  0.928043  0.310552  0.141395
    H   H29  0.178019  0.007918  0.340763  0.164929
    H   H30  0.154755  0.916031  0.369444  0.172977
    N   N6   0.657628  0.055899  0.561873  -0.675040
    C   C51  0.677897  0.046856  0.629940  0.798047
    O   O12  0.626809  0.012410  0.667009  -0.577746
    C   C52  0.760422  0.081892  0.661205  -0.582098
    H   H31  0.688806  0.096774  0.535122  0.339295
    H   H32  0.799379  0.111755  0.621465  0.138490
    H   H33  0.810027  0.038304  0.685009  0.170238
    H   H34  0.733255  0.121301  0.701814  0.167218
    N   N7   0.504749  0.359475  0.152009  -0.548059
    C   C53  0.419193  0.337417  0.131707  0.792048
    O   O13  0.349352  0.382035  0.127671  -0.570888
    C   C54  0.409271  0.258179  0.114319  -0.609862
    H   H35  0.549088  0.318105  0.174376  0.273654
    H   H36  0.479540  0.225409  0.118687  0.128558
    H   H37  0.382561  0.254430  0.060506  0.186169
    H   H38  0.357222  0.235249  0.150150  0.156802
    N   N8   0.511873  0.637017  0.851767  -0.648762
    C   C55  0.437336  0.688895  0.845326  0.847049
    O   O14  0.373840  0.681029  0.803418  -0.591946
    C   C56  0.430416  0.755261  0.891156  -0.602006
    H   H39  0.549018  0.636761  0.897646  0.288371
    H   H40  0.493509  0.754653  0.925881  0.129155
    H   H41  0.364221  0.755361  0.922724  0.153388
    H   H42  0.427430  0.805985  0.858904  0.181169
    N   N9   0.596325  0.304492  0.606402  -0.441528
    C   C57  0.691733  0.295014  0.595354  0.672513
    O   O15  0.722597  0.279694  0.537686  -0.594464
    C   C58  0.759707  0.302592  0.653867  -0.335455
    H   H43  0.578737  0.291141  0.656227  0.261518
    H   H44  0.748780  0.359104  0.675903  0.080845
    H   H45  0.834497  0.293063  0.634976  0.130355
    H   H46  0.747210  0.261513  0.694691  0.057487
    N   N10  0.334307  0.696107  0.456407  -0.339164
    C   C59  0.320309  0.708875  0.388243  0.704117
    O   O16  0.387087  0.724557  0.352090  -0.595328
    C   C60  0.223762  0.703632  0.356134  -0.566219
    H   H47  0.273526  0.707691  0.485664  0.242107
    H   H48  0.171564  0.685659  0.394583  0.107854
    H   H49  0.230094  0.662826  0.313263  0.176245
    H   H50  0.197216  0.758364  0.334840  0.153889
