# Generated by REPEAT Assigner based on pymatgen
data_DB0-m3_o6_o24_f0_pcu.sym.76
_audit_creation_date              2022-05-24
_audit_creation_method            REPEAT_Assigner
_cell_length_a                    16.133764
_cell_length_b                    15.009058
_cell_length_c                    10.790086
_cell_angle_alpha                 90.000000
_cell_angle_beta                  90.000105
_cell_angle_gamma                 90.000000
_cell_volume                      2612.847440
_symmetry_space_group_name_H-M    P1
_symmetry_Int_Tables_number       1
loop_
    _symmetry_equiv_pos_site_id
    _symmetry_equiv_pos_as_xyz
    1  x,y,z
loop_
    _atom_site_type_symbol
    _atom_site_label
    _atom_site_fract_x
    _atom_site_fract_y
    _atom_site_fract_z
    _atom_type_partial_charge
    O   O1   0.376523  0.574104  0.499577  -0.622668
    O   O2   0.623486  0.420082  0.500554  -0.649729
    O   O3   0.623476  0.574103  0.500422  -0.622680
    O   O4   0.376512  0.420082  0.499445  -0.649718
    C   C1   0.338052  0.497091  0.499324  0.837193
    C   C2   0.661947  0.497091  0.500676  0.837231
    O   O5   0.500281  0.574144  0.315365  -0.692938
    O   O6   0.499619  0.420096  0.684658  -0.708788
    O   O7   0.499718  0.574144  0.684635  -0.692922
    O   O8   0.500380  0.420096  0.315341  -0.708768
    C   C3   0.500502  0.497137  0.257825  0.667592
    C   C4   0.499497  0.497138  0.742175  0.667603
    Zn  Zn1  0.500000  0.598656  0.500000  1.073380
    Zn  Zn2  0.499999  0.395582  0.500000  1.111460
    C   C5   0.249109  0.497073  0.499117  -0.245813
    C   C6   0.750890  0.497073  0.500883  -0.245841
    C   C7   0.426440  0.950905  0.521443  -0.020643
    C   C8   0.574292  0.043756  0.485814  -0.137658
    C   C9   0.573559  0.950905  0.478556  -0.020642
    C   C10  0.425706  0.043756  0.514186  -0.137664
    C   C11  0.499999  0.905199  0.500000  0.033401
    C   C12  0.499999  0.089258  0.500000  0.168662
    C   C13  0.461418  0.569705  0.041196  -0.098024
    C   C14  0.538566  0.424986  0.958989  -0.162562
    C   C15  0.538577  0.569707  0.958804  -0.097914
    C   C16  0.461437  0.424983  0.041011  -0.162657
    C   C17  0.424081  0.497413  0.960684  0.142197
    C   C18  0.575918  0.497418  0.039316  0.142130
    H   H1   0.428319  0.629234  0.076689  0.017506
    H   H2   0.571913  0.365481  0.923960  0.048449
    H   H3   0.571673  0.629238  0.923312  0.017477
    H   H4   0.428094  0.365476  0.076040  0.048460
    C   C19  0.499982  0.497262  0.880048  0.147127
    C   C20  0.500017  0.497262  0.119951  0.147240
    C   C21  0.500000  0.809113  0.500000  0.157553
    C   C22  0.499999  0.185224  0.500000  0.103655
    N   N1   0.499999  0.262330  0.500000  -0.141987
    N   N2   0.500000  0.731946  0.500000  -0.155292
    C   C23  0.825580  0.497055  0.500821  -0.083955
    C   C24  0.174419  0.497055  0.499178  -0.083985
    H   H5   0.076231  0.638995  0.499586  0.137619
    H   H6   0.923767  0.355101  0.500413  0.134014
    H   H7   0.923768  0.638995  0.500414  0.137621
    H   H8   0.076232  0.355101  0.499585  0.134018
    C   C25  0.957263  0.576617  0.500249  -0.181154
    C   C26  0.042736  0.417479  0.499750  -0.187679
    C   C27  0.042735  0.576617  0.499751  -0.181170
    C   C28  0.957263  0.417479  0.500248  -0.187653
    C   C29  0.914525  0.497048  0.500512  0.254054
    C   C30  0.085473  0.497049  0.499487  0.254103
    C   C31  0.346564  0.096789  0.521826  0.082414
    C   C32  0.333939  0.129715  0.650896  -0.030355
    C   C33  0.268164  0.179311  0.678242  -0.422795
    H   H9   0.291973  0.057583  0.492597  0.051281
    H   H10  0.347889  0.153920  0.456770  0.049222
    H   H11  0.378312  0.113075  0.722705  0.092328
    H   H12  0.223525  0.196090  0.606866  0.177343
    H   H13  0.259116  0.203053  0.772152  0.160321
    C   C34  0.650605  0.898721  0.447942  0.049617
    C   C35  0.692599  0.869715  0.564626  -0.046755
    C   C36  0.712966  0.784813  0.582632  -0.430555
    H   H14  0.694205  0.938441  0.391346  0.017497
    H   H15  0.635962  0.840550  0.388670  0.066596
    H   H16  0.707609  0.918531  0.635159  0.085448
    H   H17  0.699973  0.735007  0.512674  0.210987
    H   H18  0.743769  0.765281  0.667680  0.160312
    C   C37  0.653435  0.096789  0.478174  0.082390
    C   C38  0.666060  0.129715  0.349104  -0.030345
    C   C39  0.731835  0.179311  0.321758  -0.422799
    H   H19  0.708026  0.057583  0.507403  0.051287
    H   H20  0.652109  0.153920  0.543229  0.049226
    H   H21  0.621687  0.113075  0.277295  0.092326
    H   H22  0.776474  0.196091  0.393133  0.177343
    H   H23  0.740883  0.203054  0.227848  0.160325
    C   C40  0.349394  0.898721  0.552057  0.049628
    C   C41  0.307399  0.869715  0.435374  -0.046758
    C   C42  0.287033  0.784813  0.417367  -0.430549
    H   H24  0.305794  0.938441  0.608654  0.017495
    H   H25  0.364037  0.840549  0.611329  0.066590
    H   H26  0.292390  0.918531  0.364841  0.085447
    H   H27  0.300026  0.735007  0.487325  0.210983
    H   H28  0.256230  0.765281  0.332319  0.160311
    C   C43  0.335156  0.495824  0.914917  -0.081099
    C   C44  0.314799  0.580117  0.848287  0.009080
    C   C45  0.239189  0.592276  0.802354  -0.421588
    H   H29  0.293024  0.488496  0.995492  0.020915
    H   H30  0.326438  0.438357  0.851626  0.069931
    H   H31  0.361017  0.631909  0.837357  0.075504
    H   H32  0.192384  0.541026  0.813018  0.160406
    H   H33  0.224262  0.653581  0.754160  0.124333
    C   C46  0.664843  0.495834  0.085083  -0.081160
    C   C47  0.685196  0.580128  0.151713  0.009162
    C   C48  0.760805  0.592291  0.197648  -0.421669
    H   H34  0.706976  0.488508  0.004508  0.020938
    H   H35  0.673564  0.438367  0.148373  0.069917
    H   H36  0.638976  0.631918  0.162644  0.075493
    H   H37  0.807613  0.541043  0.186985  0.160438
    H   H38  0.775730  0.653596  0.245843  0.124352
