# generated using pymatgen
data_Zn4H12C18O13
_symmetry_space_group_name_H-M   'P 1'
_cell_length_a   22.31734100
_cell_length_b   20.98882400
_cell_length_c   19.46877100
_cell_angle_alpha   90.11821900
_cell_angle_beta   115.77423600
_cell_angle_gamma   102.17727300
_symmetry_Int_Tables_number   1
_chemical_formula_structural   Zn4H12C18O13
_chemical_formula_sum   'Zn16 H48 C72 O52'
_cell_volume   7981.73593462
_cell_formula_units_Z   4
loop_
 _symmetry_equiv_pos_site_id
 _symmetry_equiv_pos_as_xyz
  1  'x, y, z'
loop_
 _atom_site_type_symbol
 _atom_site_label
 _atom_site_symmetry_multiplicity
 _atom_site_fract_x
 _atom_site_fract_y
 _atom_site_fract_z
 _atom_site_occupancy
  Zn  Zn1  1  0.92611900  0.39497100  0.44682800  1
  Zn  Zn2  1  0.06238600  0.47443400  0.57742900  1
  Zn  Zn3  1  0.93722900  0.53534400  0.50804100  1
  Zn  Zn4  1  0.93953400  0.42409800  0.61134200  1
  Zn  Zn5  1  0.41571100  0.37476300  0.25716000  1
  Zn  Zn6  1  0.44080200  0.51294400  0.20923600  1
  Zn  Zn7  1  0.29506100  0.44126200  0.17825000  1
  Zn  Zn8  1  0.39800100  0.48747800  0.34429200  1
  Zn  Zn9  1  0.00288300  0.88831200  0.79642600  1
  Zn  Zn10  1  0.01768300  0.02560000  0.73878900  1
  Zn  Zn11  1  0.87405100  0.94423500  0.70329300  1
  Zn  Zn12  1  0.97532900  0.00171400  0.87022900  1
  Zn  Zn13  1  0.34701300  0.88718600  0.40407700  1
  Zn  Zn14  1  0.48508500  0.97744100  0.51756900  1
  Zn  Zn15  1  0.34986200  0.02195100  0.47257100  1
  Zn  Zn16  1  0.38279000  0.91036800  0.57627600  1
  H  H1  1  0.64451500  0.50640100  0.22612500  1
  H  H2  1  0.71857100  0.38963700  0.27498600  1
  H  H3  1  0.59998500  0.35987800  0.23278500  1
  H  H4  1  0.76547900  0.53702300  0.27968000  1
  H  H5  1  0.21508500  0.50805900  0.81818600  1
  H  H6  1  0.19835200  0.45078100  0.95961100  1
  H  H7  1  0.10407700  0.41544700  0.84686900  1
  H  H8  1  0.32050800  0.54301200  0.95048300  1
  H  H9  1  0.21672500  0.40322300  0.38971300  1
  H  H10  1  0.08443300  0.45816700  0.34590400  1
  H  H11  1  0.14819900  0.49158100  0.27022300  1
  H  H12  1  0.14408200  0.35578300  0.44801200  1
  H  H13  1  0.86875800  0.18147700  0.45798500  1
  H  H14  1  0.80814400  0.10602500  0.56283800  1
  H  H15  1  0.81511700  0.21876000  0.56810900  1
  H  H16  1  0.90698200  0.08527000  0.50182100  1
  H  H17  1  0.88443300  0.68855100  0.73978400  1
  H  H18  1  0.81823900  0.62931000  0.56930700  1
  H  H19  1  0.79761100  0.73437900  0.58624900  1
  H  H20  1  0.87430800  0.56995300  0.72169300  1
  H  H21  1  0.17537700  0.61829200  0.50760700  1
  H  H22  1  0.22241600  0.76935700  0.55472600  1
  H  H23  1  0.10963800  0.71842700  0.54642800  1
  H  H24  1  0.23963100  0.68303900  0.44056700  1
  H  H25  1  0.18332600  0.29243800  0.01119500  1
  H  H26  1  0.13262200  0.14222200  0.01202100  1
  H  H27  1  0.24277500  0.19268000  0.12082700  1
  H  H28  1  0.11925400  0.22949200  0.88245700  1
  H  H29  1  0.53332500  0.29613900  0.44787500  1
  H  H30  1  0.45477900  0.22615100  0.53604700  1
  H  H31  1  0.45790000  0.34514300  0.52839500  1
  H  H32  1  0.55265100  0.19063500  0.47848600  1
  H  H33  1  0.42830800  0.80897300  0.27046800  1
  H  H34  1  0.47301100  0.71513000  0.24288700  1
  H  H35  1  0.55725400  0.82506600  0.42295700  1
  H  H36  1  0.49354800  0.70579500  0.40759500  1
  H  H37  1  0.64648400  0.02055200  0.75273400  1
  H  H38  1  0.71124500  0.90151600  0.78052800  1
  H  H39  1  0.58883000  0.87560600  0.75606600  1
  H  H40  1  0.77084600  0.04648700  0.84121900  1
  H  H41  1  0.18982800  0.88427400  0.18311500  1
  H  H42  1  0.10345800  0.98490000  0.09623500  1
  H  H43  1  0.18452800  0.02241800  0.22787100  1
  H  H44  1  0.11555900  0.85105100  0.04770400  1
  H  H45  1  0.25890100  0.92418600  0.67873300  1
  H  H46  1  0.17386900  0.02415000  0.68401600  1
  H  H47  1  0.23870100  0.05546400  0.61435900  1
  H  H48  1  0.17568900  0.88385900  0.72790700  1
  C  C1  1  0.87969200  0.53471500  0.61865700  1
  C  C2  1  0.08276700  0.44188700  0.73158300  1
  C  C3  1  0.86783100  0.29384400  0.52273000  1
  C  C4  1  0.06248900  0.39585900  0.45309000  1
  C  C5  1  0.83434800  0.47869400  0.35230400  1
  C  C6  1  0.07443500  0.61141500  0.54226300  1
  C  C7  1  0.24762400  0.47143800  0.29044600  1
  C  C8  1  0.47110000  0.61938400  0.32902800  1
  C  C9  1  0.46123000  0.38221100  0.42425600  1
  C  C10  1  0.53147100  0.42404900  0.22125000  1
  C  C11  1  0.28048100  0.30006200  0.14828900  1
  C  C12  1  0.32076600  0.50934600  0.05921000  1
  C  C13  1  0.82723700  0.98421700  0.81446300  1
  C  C14  1  0.06214200  0.12632800  0.86610000  1
  C  C15  1  0.05143500  0.90923300  0.96479600  1
  C  C16  1  0.10550600  0.93897300  0.73907200  1
  C  C17  1  0.86972800  0.80319400  0.68777500  1
  C  C18  1  0.89799200  0.03538900  0.59638600  1
  C  C19  1  0.30336500  0.99940500  0.59346300  1
  C  C20  1  0.53037300  0.93696900  0.67420500  1
  C  C21  1  0.29609200  0.78644900  0.48282800  1
  C  C22  1  0.47678900  0.87823800  0.40289500  1
  C  C23  1  0.25655600  0.96946600  0.30928100  1
  C  C24  1  0.47977700  0.11557900  0.50035200  1
  C  C25  1  0.77117900  0.48724800  0.28842900  1
  C  C26  1  0.71491700  0.43898100  0.26061800  1
  C  C27  1  0.59405700  0.40960200  0.22417100  1
  C  C28  1  0.64777100  0.45565700  0.23055800  1
  C  C29  1  0.29040400  0.51529300  0.97638000  1
  C  C30  1  0.22641400  0.48058400  0.93297900  1
  C  C31  1  0.12707100  0.44205100  0.81330500  1
  C  C32  1  0.19107300  0.47864100  0.84915300  1
  C  C33  1  0.10671500  0.38421100  0.41868300  1
  C  C34  1  0.11740300  0.42468900  0.37011200  1
  C  C35  1  0.18859100  0.46869100  0.30667900  1
  C  C36  1  0.17902300  0.43055500  0.35765000  1
  C  C37  1  0.87427900  0.07267100  0.53010900  1
  C  C38  1  0.83337200  0.11180700  0.52583500  1
  C  C39  1  0.83483300  0.22642100  0.52603700  1
  C  C40  1  0.84263000  0.17463600  0.49405200  1
  C  C41  1  0.85768400  0.57404700  0.66097100  1
  C  C42  1  0.83477800  0.62566200  0.63009000  1
  C  C43  1  0.83282200  0.73829500  0.64662400  1
  C  C44  1  0.84981800  0.68512600  0.67926500  1
  C  C45  1  0.24999800  0.72528900  0.47959800  1
  C  C46  1  0.21687300  0.72479000  0.52207300  1
  C  C47  1  0.11905600  0.67094200  0.53873700  1
  C  C48  1  0.16972800  0.66578700  0.52234100  1
  C  C49  1  0.10748400  0.18714200  0.91010000  1
  C  C50  1  0.13925700  0.18683100  0.98552100  1
  C  C51  1  0.23545100  0.24013200  0.10166200  1
  C  C52  1  0.18683400  0.24528000  0.03320700  1
  C  C53  1  0.51397100  0.18274600  0.49910100  1
  C  C54  1  0.49283500  0.23335800  0.51454100  1
  C  C55  1  0.48153900  0.34459600  0.49020100  1
  C  C56  1  0.51009700  0.29579400  0.48658800  1
  C  C57  1  0.49043400  0.69002200  0.35285700  1
  C  C58  1  0.48626000  0.73288200  0.30116200  1
  C  C59  1  0.50998400  0.83482700  0.38024300  1
  C  C60  1  0.47401500  0.79698300  0.31370300  1
  C  C61  1  0.76982400  0.99675600  0.82475300  1
  C  C62  1  0.71168100  0.95112500  0.79672700  1
  C  C63  1  0.58883000  0.92532000  0.74109100  1
  C  C64  1  0.64699100  0.97093300  0.76791400  1
  C  C65  1  0.09614100  0.89494200  0.04166200  1
  C  C66  1  0.11989700  0.93933700  0.10234000  1
  C  C67  1  0.20183600  0.97726600  0.23507600  1
  C  C68  1  0.17310700  0.92969400  0.17680800  1
  C  C69  1  0.16048300  0.93009900  0.72085400  1
  C  C70  1  0.18975400  0.97830100  0.69276000  1
  C  C71  1  0.26026800  0.01282300  0.62801300  1
  C  C72  1  0.24096200  0.96897300  0.66838500  1
  O  O1  1  0.96589200  0.45670200  0.53560700  1
  O  O2  1  0.99510600  0.38466500  0.41278000  1
  O  O3  1  0.10102300  0.56119600  0.56731400  1
  O  O4  1  0.86789700  0.52826600  0.40578200  1
  O  O5  1  0.09375800  0.42464300  0.52363000  1
  O  O6  1  0.85075800  0.42129000  0.36193000  1
  O  O7  1  0.00897800  0.60822300  0.51762600  1
  O  O8  1  0.89735800  0.56288700  0.56798400  1
  O  O9  1  0.88348800  0.33682500  0.58075000  1
  O  O10  1  0.89253200  0.47789200  0.64051900  1
  O  O11  1  0.88578200  0.30941400  0.46734500  1
  O  O12  1  0.10864500  0.46531500  0.68522300  1
  O  O13  1  0.01633800  0.42124100  0.70739200  1
  O  O14  1  0.38820900  0.45458000  0.24806500  1
  O  O15  1  0.49002700  0.37605400  0.23313300  1
  O  O16  1  0.38778400  0.52292100  0.10111200  1
  O  O17  1  0.25619100  0.35265000  0.13791500  1
  O  O18  1  0.52063000  0.48373700  0.21558200  1
  O  O19  1  0.34429700  0.30152000  0.19551000  1
  O  O20  1  0.27915100  0.48233700  0.08767200  1
  O  O21  1  0.23598100  0.46121400  0.21876000  1
  O  O22  1  0.44489900  0.43851700  0.42771100  1
  O  O23  1  0.31009800  0.48044900  0.34673400  1
  O  O24  1  0.44909900  0.35220600  0.35882100  1
  O  O25  1  0.47151300  0.59881200  0.26507600  1
  O  O26  1  0.44532300  0.57947900  0.36713400  1
  O  O27  1  0.96730700  0.96458300  0.77705400  1
  O  O28  1  0.07419600  0.89103500  0.76398300  1
  O  O29  1  0.96418800  0.04844300  0.63992800  1
  O  O30  1  0.84245300  0.85344000  0.66309900  1
  O  O31  1  0.08776600  0.99514500  0.72853800  1
  O  O32  1  0.93256900  0.81068900  0.74274900  1
  O  O33  1  0.85493700  0.99642500  0.61642300  1
  O  O34  1  0.81474500  0.95802300  0.74672400  1
  O  O35  1  0.02379400  0.95965100  0.95798000  1
  O  O36  1  0.88985600  0.00592200  0.86878300  1
  O  O37  1  0.04567500  0.87569600  0.90413900  1
  O  O38  1  0.06239100  0.10719000  0.80211200  1
  O  O39  1  0.02860500  0.08848300  0.89747800  1
  O  O40  1  0.39099100  0.94948300  0.49232400  1
  O  O41  1  0.40971800  0.86148800  0.37363600  1
  O  O42  1  0.51151100  0.06829700  0.50509400  1
  O  O43  1  0.28024700  0.01534400  0.36719000  1
  O  O44  1  0.51342000  0.92370300  0.46149000  1
  O  O45  1  0.28032800  0.91638200  0.31682200  1
  O  O46  1  0.41594900  0.10343100  0.49027800  1
  O  O47  1  0.30496500  0.03137500  0.53596100  1
  O  O48  1  0.32895000  0.82359300  0.54834100  1
  O  O49  1  0.33475600  0.95165400  0.61635300  1
  O  O50  1  0.29830200  0.80624900  0.41992500  1
  O  O51  1  0.54278600  0.96973600  0.62256600  1
  O  O52  1  0.46805800  0.90637600  0.66077900  1
