# Generated by REPEAT Assigner based on pymatgen
data_DB0-m9_o28_o29_f0_sra.sym.91
_audit_creation_date              2022-05-24
_audit_creation_method            REPEAT_Assigner
_cell_length_a                    6.328665
_cell_length_b                    32.340365
_cell_length_c                    37.775235
_cell_angle_alpha                 99.713493
_cell_angle_beta                  89.647193
_cell_angle_gamma                 90.417903
_cell_volume                      7620.368639
_symmetry_space_group_name_H-M    P1
_symmetry_Int_Tables_number       1
loop_
    _symmetry_equiv_pos_site_id
    _symmetry_equiv_pos_as_xyz
    1  x,y,z
loop_
    _atom_site_type_symbol
    _atom_site_label
    _atom_site_fract_x
    _atom_site_fract_y
    _atom_site_fract_z
    _atom_type_partial_charge
    O  O1    0.518416  0.448971  0.472111  -0.392996
    O  O2    0.718367  0.448945  0.514005  -0.482298
    O  O3    0.936581  0.518643  0.547079  -0.574620
    C  C1    0.603330  0.459746  0.543638  0.629654
    O  O4    0.811342  0.471833  0.446628  -0.588967
    O  O5    0.021364  0.541122  0.479632  -0.372952
    C  C2    0.636876  0.450189  0.443866  0.565650
    O  O6    0.433324  0.483329  0.544114  -0.654260
    O  O7    0.624860  0.529179  0.500580  -0.626587
    V  V1    0.897926  0.491853  0.496736  1.524538
    O  O8    0.314164  0.513687  0.450013  -0.605695
    C  C3    0.139925  0.534913  0.450785  0.544933
    O  O9    0.221313  0.548537  0.521958  -0.490419
    C  C4    0.106244  0.543037  0.550294  0.643029
    V  V2    0.398186  0.501939  0.497546  1.548935
    O  O10   0.122421  0.464711  0.495000  -0.594640
    C  C5    0.106267  0.834876  0.787732  0.376432
    N  N1    0.111508  0.824763  0.820931  -0.070134
    C  C6    0.126066  0.784343  0.825334  0.373020
    C  C7    0.131142  0.752696  0.795856  -0.064080
    C  C8    0.127347  0.762645  0.761926  0.065230
    C  C9    0.117063  0.803963  0.757784  -0.061476
    C  C10   0.137289  0.711193  0.800191  -0.080047
    C  C11   0.137490  0.679817  0.770434  -0.104476
    C  C12   0.134703  0.690045  0.736415  -0.050822
    C  C13   0.132089  0.731427  0.732288  0.057682
    C  C14   0.132527  0.741424  0.698367  -0.057266
    C  C15   0.125711  0.782914  0.694023  -0.076277
    C  C16   0.116392  0.814215  0.723772  -0.103489
    C  C17   0.133686  0.659048  0.706442  0.358036
    N  N2    0.136093  0.669254  0.673254  -0.054196
    C  C18   0.137471  0.709805  0.668887  0.365345
    O  O11   0.094562  0.875268  0.783722  -0.477564
    O  O12   0.128067  0.774661  0.858527  -0.465194
    H  H1    0.139517  0.703235  0.826854  0.131118
    H  H2    0.140150  0.647286  0.773790  0.149563
    O  O13   0.134717  0.618564  0.710416  -0.473978
    O  O14   0.136348  0.719541  0.635711  -0.467386
    H  H3    0.125312  0.790887  0.667360  0.129553
    H  H4    0.108838  0.846713  0.720420  0.145384
    C  C19   0.233072  0.643050  0.611187  -0.149838
    H  H5    0.318361  0.671873  0.610104  0.145564
    C  C20   0.228840  0.611885  0.581360  -0.094284
    H  H6    0.308200  0.616624  0.556926  0.130986
    C  C21   0.118618  0.575170  0.582370  -0.062118
    C  C22   0.017127  0.569205  0.613535  -0.050668
    H  H7    0.930280  0.540469  0.614342  0.098853
    C  C23   0.027667  0.599739  0.643769  -0.179902
    H  H8    0.946698  0.594966  0.668036  0.162539
    C  C24   0.133330  0.636961  0.642517  0.184929
    C  C25   0.195480  0.852712  0.883183  -0.139226
    H  H9    0.290468  0.825405  0.884548  0.145415
    C  C26   0.177867  0.883789  0.912942  -0.115851
    H  H10   0.256653  0.880468  0.937608  0.129477
    C  C27   0.054344  0.918429  0.911564  -0.019203
    C  C28   0.953136  0.922498  0.880137  -0.109222
    H  H11   0.855548  0.949550  0.879072  0.125242
    C  C29   0.976964  0.892213  0.850009  -0.140967
    H  H12   0.895617  0.895465  0.825578  0.147469
    C  C30   0.095890  0.856980  0.851593  0.174538
    C  C31   0.160596  0.863188  0.177459  0.505786
    O  O15   0.295461  0.895777  0.180173  -0.538995
    N  N3    0.018585  0.856384  0.150550  -0.238981
    C  C32   0.874588  0.825168  0.149450  0.502111
    C  C33   0.844261  0.888113  0.104128  -0.167663
    C  C34   0.852863  0.912432  0.077400  -0.101309
    C  C35   0.218446  0.925953  0.089399  0.003010
    C  C36   0.212458  0.900386  0.115046  -0.227656
    C  C37   0.024558  0.881853  0.123075  0.295417
    C  C38   0.021044  0.805630  0.202228  0.118031
    C  C39   0.166702  0.837318  0.202874  -0.160057
    C  C40   0.318551  0.843483  0.229035  -0.008251
    C  C41   0.871700  0.800135  0.175657  -0.156924
    C  C42   0.039518  0.931796  0.070403  -0.074507
    H  H13   0.365633  0.940585  0.083470  0.092080
    H  H14   0.358007  0.894330  0.127889  0.177747
    H  H15   0.431642  0.868830  0.229823  0.108463
    C  C43   0.118328  0.562793  0.424509  -0.003119
    C  C44   0.198102  0.756325  0.277132  0.105688
    C  C45   0.872694  0.723743  0.254062  0.141351
    C  C46   0.039433  0.726769  0.277967  -0.072645
    C  C47   0.368816  0.757053  0.300158  -0.210311
    C  C48   0.379657  0.729024  0.323704  -0.014218
    C  C49   0.218948  0.700653  0.325143  -0.170907
    C  C50   0.048409  0.699858  0.302750  0.163864
    C  C51   0.887699  0.671712  0.305284  -0.202658
    C  C52   0.898141  0.645306  0.330357  0.636376
    N  N4    0.069942  0.645695  0.351270  -0.442178
    C  C53   0.229905  0.672744  0.348847  0.593296
    C  C54   0.279456  0.601414  0.382926  -0.365373
    C  C55   0.295239  0.573534  0.406575  -0.039625
    C  C56   0.923944  0.578876  0.417904  -0.116138
    C  C57   0.906484  0.605206  0.392874  -0.248562
    C  C58   0.085006  0.617083  0.375880  0.469741
    O  O16   0.398875  0.673299  0.370255  -0.551294
    C  C59   0.185149  0.784293  0.253075  -0.007822
    C  C60   0.025522  0.779624  0.227769  0.056229
    C  C61   0.871354  0.748987  0.227661  -0.038308
    C  C62   0.329845  0.816899  0.253782  -0.149910
    H  H16   0.447508  0.560955  0.411816  0.134193
    H  H17   0.419218  0.610174  0.369299  0.277552
    H  H18   0.514543  0.729446  0.341182  0.110764
    H  H19   0.500478  0.778130  0.299737  0.136441
    H  H20   0.451072  0.823265  0.273790  0.104416
    O  O17   0.736560  0.817349  0.122271  -0.536554
    C  C63   0.722012  0.769026  0.174776  -0.020932
    H  H21   0.711641  0.917331  0.062734  0.090506
    H  H22   0.694119  0.875110  0.110503  0.179053
    H  H23   0.605207  0.764361  0.153693  0.113827
    C  C64   0.710690  0.695252  0.256918  -0.238868
    C  C65   0.717518  0.669804  0.282679  0.021336
    O  O18   0.739616  0.618159  0.333048  -0.600434
    C  C66   0.719704  0.743897  0.200816  -0.127130
    H  H24   0.573621  0.692632  0.240009  0.148635
    H  H25   0.785026  0.570369  0.431915  0.086311
    H  H26   0.590185  0.647865  0.284753  0.101933
    H  H27   0.754022  0.617556  0.387441  0.220811
    H  H28   0.600736  0.719728  0.198628  0.090827
    C  C67   0.778179  0.327048  0.649845  0.509461
    O  O19   0.914561  0.319422  0.622202  -0.540386
    N  N5    0.634540  0.357998  0.651392  -0.241817
    C  C68   0.493588  0.364473  0.678704  0.504868
    C  C69   0.440911  0.401869  0.616419  -0.219494
    C  C70   0.435041  0.427323  0.590679  -0.025852
    C  C71   0.800017  0.414238  0.577848  -0.094237
    C  C72   0.808562  0.390071  0.604635  -0.170568
    C  C73   0.628449  0.383550  0.623993  0.289102
    C  C74   0.634608  0.307301  0.703133  0.135498
    C  C75   0.782448  0.302080  0.676075  -0.167034
    C  C76   0.932151  0.271323  0.674747  -0.017165
    C  C77   0.488806  0.338627  0.704178  -0.165757
    C  C78   0.613761  0.433269  0.571189  -0.027736
    H  H29   0.941066  0.419232  0.562802  0.080186
    H  H30   0.958607  0.377366  0.610698  0.183286
    H  H31   0.047737  0.266880  0.653275  0.112058
    C  C79   0.547025  0.063560  0.925105  -0.036062
    C  C80   0.786511  0.225968  0.754677  0.118508
    C  C81   0.462363  0.257841  0.778791  0.099475
    C  C82   0.621254  0.228680  0.779158  -0.058772
    C  C83   0.948811  0.197879  0.757043  -0.226266
    C  C84   0.943627  0.172485  0.782878  0.012898
    C  C85   0.774803  0.174049  0.806064  -0.184902
    C  C86   0.613911  0.201826  0.804035  0.151257
    C  C87   0.444711  0.202277  0.827005  -0.161443
    C  C88   0.435035  0.174348  0.850745  0.574396
    N  N6    0.595003  0.147620  0.852631  -0.423665
    C  C89   0.765722  0.147620  0.831176  0.613163
    C  C90   0.758938  0.106920  0.893499  -0.320494
    C  C91   0.741574  0.080139  0.918254  -0.035927
    C  C92   0.370009  0.074292  0.907741  -0.028335
    C  C93   0.385727  0.102591  0.884409  -0.381043
    C  C94   0.580230  0.118733  0.877073  0.497258
    O  O20   0.924256  0.120791  0.833330  -0.581142
    C  C95   0.786097  0.251116  0.728201  -0.019546
    C  C96   0.631759  0.281371  0.728755  0.037386
    C  C97   0.473604  0.285732  0.754595  0.000797
    C  C98   0.936122  0.246292  0.700840  -0.135412
    H  H32   0.880666  0.071623  0.931786  0.068899
    H  H33   0.911517  0.119603  0.887798  0.231434
    H  H34   0.071109  0.150842  0.784546  0.104318
    H  H35   0.084851  0.195533  0.739665  0.138966
    H  H36   0.055055  0.222407  0.698298  0.100340
    O  O21   0.358620  0.396715  0.681769  -0.531933
    C  C99   0.338295  0.344470  0.730819  0.002437
    H  H37   0.288085  0.441696  0.585040  0.117200
    H  H38   0.295518  0.395690  0.629667  0.169838
    H  H39   0.225051  0.369523  0.731920  0.108436
    C  C100  0.293134  0.258250  0.802424  -0.204034
    C  C101  0.283863  0.230272  0.826070  -0.016112
    O  O22   0.267127  0.174513  0.872676  -0.559177
    C  C102  0.328619  0.317950  0.755679  -0.163147
    H  H40   0.161392  0.279017  0.802421  0.137792
    H  H41   0.217662  0.061301  0.913153  0.132792
    H  H42   0.150020  0.230424  0.844009  0.109867
    H  H43   0.245857  0.111264  0.871198  0.276701
    H  H44   0.208401  0.324068  0.776065  0.104371
    C  C103  0.719997  0.173440  0.194410  0.253074
    N  N7    0.541769  0.166842  0.174714  0.033063
    C  C104  0.369011  0.190553  0.184184  0.235252
    C  C105  0.372708  0.221694  0.214104  -0.029867
    C  C106  0.552730  0.228312  0.234411  0.091896
    C  C107  0.727090  0.203990  0.224597  -0.035261
    C  C108  0.196971  0.246122  0.223854  -0.148274
    C  C109  0.202696  0.277007  0.253990  -0.132416
    C  C110  0.384263  0.283450  0.274308  -0.083799
    C  C111  0.558952  0.259216  0.264274  0.076417
    C  C112  0.740220  0.266055  0.284245  -0.109448
    C  C113  0.915148  0.241386  0.274773  -0.122931
    C  C114  0.908761  0.210363  0.244839  -0.138074
    C  C115  0.393110  0.314253  0.304455  0.467494
    N  N8    0.573959  0.321291  0.323311  -0.243823
    C  C116  0.746223  0.297672  0.313642  0.448960
    O  O23   0.894418  0.151130  0.184117  -0.368006
    O  O24   0.190602  0.183344  0.165023  -0.379823
    H  H45   0.055071  0.241144  0.207876  0.151154
    H  H46   0.065073  0.296118  0.261641  0.183633
    O  O25   0.222873  0.338051  0.314388  -0.533901
    O  O26   0.923647  0.304324  0.333145  -0.482025
    H  H47   0.056776  0.246320  0.290826  0.164570
    H  H48   0.045991  0.191119  0.237237  0.162649
    C  C117  0.774170  0.375537  0.361202  -0.334772
    H  H49   0.910557  0.367974  0.344062  0.231505
    C  C118  0.787574  0.407453  0.390265  -0.008178
    H  H50   0.935000  0.424239  0.396100  0.117726
    C  C119  0.615267  0.417346  0.412456  -0.051097
    C  C120  0.426844  0.396008  0.404935  -0.065425
    H  H51   0.291212  0.403792  0.422248  0.091078
    C  C121  0.410991  0.365049  0.374974  -0.296728
    H  H52   0.263239  0.348424  0.369045  0.246394
    C  C122  0.585906  0.354298  0.353423  0.392786
    C  C123  0.410253  0.138636  0.114791  -0.270044
    H  H53   0.313575  0.166077  0.115216  0.135741
    C  C124  0.412212  0.108140  0.084406  0.495996
    C  C125  0.542527  0.073870  0.082670  -0.418054
    C  C126  0.667789  0.069753  0.111533  0.056993
    H  H54   0.768560  0.042699  0.110313  0.087749
    C  C127  0.664599  0.099913  0.142003  -0.211951
    H  H55   0.759288  0.095407  0.164686  0.120123
    C  C128  0.537770  0.134796  0.143655  0.190773
    O  O27   0.642781  0.040815  0.979664  -0.436340
    O  O28   0.440030  0.047914  0.022029  -0.397036
    O  O29   0.222099  0.982525  0.043827  -0.614925
    C  C129  0.553042  0.042210  0.050254  0.758755
    O  O30   0.349579  0.013483  0.949932  -0.607052
    O  O31   0.138801  0.948516  0.971931  -0.377483
    C  C130  0.524654  0.034998  0.950901  0.576442
    O  O32   0.720266  0.017708  0.046863  -0.572607
    O  O33   0.534674  0.964160  0.994480  -0.585800
    V  V3    0.261614  0.001427  0.997383  1.384577
    O  O34   0.851382  0.971648  0.946213  -0.549447
    C  C131  0.025404  0.950229  0.943515  0.579777
    O  O35   0.935734  0.948264  0.013624  -0.464577
    C  C132  0.050974  0.958736  0.043179  0.667992
    V  V4    0.761246  0.991265  0.996339  1.419622
    O  O36   0.036857  0.028644  0.000588  -0.537023
    O  O37   0.289254  0.112508  0.055689  -0.441871
    C  C133  0.419107  0.133102  0.034210  0.264781
    H  H56   0.321203  0.145729  0.014292  0.027025
    H  H57   0.535792  0.110726  0.019971  -0.012615
    C  C134  0.533512  0.168941  0.057482  0.034153
    H  H58   0.416391  0.191335  0.071566  0.026295
    H  H59   0.631002  0.156451  0.077529  0.073679
    C  C135  0.674745  0.191262  0.034152  -0.423729
    H  H60   0.791819  0.168866  0.020058  0.100409
    H  H61   0.758609  0.217505  0.051198  0.100558
    H  H62   0.577259  0.203762  0.014111  0.093292
