# Generated by REPEAT Assigner based on pymatgen
data_DB0-m29_o84_o45_f0_pts.sym.91
_audit_creation_date              2022-05-24
_audit_creation_method            REPEAT_Assigner
_cell_length_a                    13.148238
_cell_length_b                    9.396170
_cell_length_c                    17.543497
_cell_angle_alpha                 89.053171
_cell_angle_beta                  99.057927
_cell_angle_gamma                 111.268417
_cell_volume                      1992.633168
_symmetry_space_group_name_H-M    P1
_symmetry_Int_Tables_number       1
loop_
    _symmetry_equiv_pos_site_id
    _symmetry_equiv_pos_as_xyz
    1  x,y,z
loop_
    _atom_site_type_symbol
    _atom_site_label
    _atom_site_fract_x
    _atom_site_fract_y
    _atom_site_fract_z
    _atom_type_partial_charge
    C   C1   0.215703  0.957332  0.904812  -0.061653
    C   C2   0.113096  0.934112  0.860636  0.208455
    C   C3   0.028392  0.947964  0.894470  -0.056475
    C   C4   0.926973  0.929204  0.850343  -0.103315
    C   C5   0.844518  0.948727  0.883089  -0.100543
    C   C6   0.230667  0.985252  0.984268  -0.017031
    C   C7   0.145539  0.999679  0.017900  -0.006674
    C   C8   0.045251  0.983515  0.972655  0.091381
    C   C9   0.961718  0.003554  0.005628  -0.020001
    C   C10  0.861396  0.987902  0.960973  0.091011
    C   C11  0.777445  0.005502  0.994730  -0.107265
    C   C12  0.161143  0.036577  0.096271  -0.054250
    C   C13  0.077683  0.054651  0.128632  -0.202730
    C   C14  0.978141  0.038050  0.083630  0.216461
    C   C15  0.894952  0.054209  0.117434  -0.272842
    C   C16  0.793706  0.036424  0.073852  0.156061
    H   H1   0.908691  0.899623  0.789332  0.084024
    H   H2   0.767504  0.931546  0.845390  0.110445
    H   H3   0.237776  0.053316  0.134337  0.104480
    H   H4   0.091188  0.082433  0.189846  0.145901
    H   H5   0.909566  0.079346  0.178936  0.149527
    O   O1   0.611463  0.046113  0.075625  -0.407304
    C   C17  0.704974  0.043413  0.113878  0.363986
    O   O2   0.543400  0.754240  0.145197  -0.477187
    O   O3   0.716813  0.038174  0.189443  -0.426133
    O   O4   0.496134  0.879345  0.234409  -0.521366
    C   C18  0.523169  0.764557  0.215371  0.556119
    Fe  Fe1  0.504826  0.018491  0.147640  1.379948
    O   O5   0.352857  0.922684  0.085788  -0.590912
    O   O6   0.421547  0.142885  0.023804  -0.484924
    C   C19  0.339172  0.015757  0.031707  0.617831
    O   O7   0.553930  0.231242  0.193924  -0.627211
    O   O8   0.426611  0.106583  0.269719  -0.613462
    C   C20  0.497494  0.234189  0.248958  0.767503
    O   O9   0.457167  0.756975  0.786563  -0.628343
    O   O10  0.568827  0.882421  0.701042  -0.547721
    C   C21  0.506548  0.754292  0.727414  0.614283
    O   O11  0.655157  0.068975  0.894321  -0.607614
    O   O12  0.587567  0.846182  0.954267  -0.481353
    C   C22  0.669045  0.975238  0.947793  0.683797
    O   O13  0.304456  0.981565  0.791925  -0.463500
    O   O14  0.510958  0.108050  0.745166  -0.478470
    C   C23  0.500679  0.233325  0.768845  0.476809
    O   O15  0.396329  0.939727  0.904098  -0.458196
    C   C24  0.307676  0.956867  0.865919  0.537727
    O   O16  0.491605  0.249217  0.841371  -0.465754
    Fe  Fe2  0.503625  0.969847  0.832263  1.389746
    C   C25  0.499804  0.355423  0.715711  0.185372
    C   C26  0.504631  0.339317  0.638243  -0.328174
    H   H6   0.506118  0.234276  0.615174  0.158430
    C   C27  0.507379  0.457271  0.589334  0.423945
    C   C28  0.508504  0.594018  0.618973  -0.305040
    H   H7   0.513238  0.691051  0.583822  0.104878
    C   C29  0.501020  0.608560  0.695660  0.147704
    C   C30  0.494982  0.489057  0.743608  -0.260463
    N   N1   0.508824  0.435489  0.509894  -0.249946
    N   N2   0.509190  0.549263  0.472430  0.017229
    C   C31  0.519833  0.653704  0.346840  0.248721
    C   C32  0.521279  0.640294  0.268228  -0.095806
    C   C33  0.519367  0.504172  0.237908  -0.123374
    C   C34  0.507687  0.380056  0.283455  -0.102489
    C   C35  0.499786  0.390997  0.360295  -0.087809
    H   H8   0.488915  0.290494  0.393765  0.066158
    C   C36  0.509441  0.529691  0.392693  0.158397
    H   H9   0.491762  0.503796  0.804005  0.169512
    H   H10  0.521125  0.490827  0.177145  0.155864
    N   N3   0.094782  0.893408  0.781100  -0.504532
    C   C37  0.093900  0.013634  0.731574  0.428153
    C   C38  0.029131  0.979651  0.659291  -0.215914
    C   C39  0.027334  0.094899  0.610057  -0.065814
    C   C40  0.090644  0.244787  0.632548  -0.122410
    C   C41  0.156173  0.279407  0.704206  -0.113189
    C   C42  0.158244  0.164567  0.753726  -0.166583
    H   H11  0.029502  0.792463  0.764873  0.327106
    H   H12  0.979272  0.862481  0.640747  0.109825
    H   H13  0.976273  0.067567  0.553699  0.080994
    H   H14  0.089303  0.335097  0.593883  0.106181
    H   H15  0.206439  0.396993  0.721601  0.132310
    H   H16  0.211768  0.195849  0.809015  0.133471
    N   N4   0.536795  0.795209  0.383047  -0.801884
    C   C43  0.639255  0.911582  0.376165  0.679050
    C   C44  0.648328  0.062682  0.377928  -0.384284
    C   C45  0.747566  0.177825  0.371832  -0.082872
    C   C46  0.838729  0.142759  0.364659  -0.084327
    C   C47  0.830892  0.992533  0.364350  -0.007009
    C   C48  0.731768  0.876913  0.370417  -0.319142
    H   H17  0.470175  0.829455  0.371458  0.440563
    H   H18  0.577907  0.091780  0.384700  0.208429
    H   H19  0.753946  0.295778  0.373000  0.121325
    H   H20  0.916602  0.233080  0.360047  0.101646
    H   H21  0.902857  0.965208  0.359768  0.096120
    H   H22  0.729391  0.760732  0.371729  0.156418
