data_DB0-m3_o150_o6_f0_fsc.sym.12_repeat
_audit_creation_date              2024-02-20
_audit_creation_method            'Materials Studio'
_symmetry_space_group_name_H-M    'P1'
_symmetry_Int_Tables_number       1
_symmetry_cell_setting            triclinic
loop_
_symmetry_equiv_pos_as_xyz
  x,y,z
_cell_length_a                    14.3778
_cell_length_b                    8.5495
_cell_length_c                    15.0550
_cell_angle_alpha                 90.0000
_cell_angle_beta                  90.9697
_cell_angle_gamma                 90.0000
loop_
_atom_site_label
_atom_site_type_symbol
_atom_site_fract_x
_atom_site_fract_y
_atom_site_fract_z
_atom_site_U_iso_or_equiv
_atom_site_adp_type
_atom_site_occupancy
H1     H     0.04354   0.99870   0.56028   0.00000  Uiso   1.00
H2     H     0.95641   0.00131   0.43971   0.00000  Uiso   1.00
C1     C     0.01982   0.13875   0.67391   0.00000  Uiso   1.00
C2     C     0.98017   0.86125   0.32609   0.00000  Uiso   1.00
C3     C     0.97843   0.14028   0.32537   0.00000  Uiso   1.00
C4     C     0.02157   0.85972   0.67463   0.00000  Uiso   1.00
C5     C     0.00637   0.14013   0.76437   0.00000  Uiso   1.00
C6     C     0.99365   0.85986   0.23564   0.00000  Uiso   1.00
C7     C     0.99128   0.14043   0.23481   0.00000  Uiso   1.00
C8     C     0.00873   0.85955   0.76518   0.00000  Uiso   1.00
H3     H     0.00222   0.25107   0.79833   0.00000  Uiso   1.00
H4     H     0.99782   0.74892   0.20168   0.00000  Uiso   1.00
H5     H     0.99865   0.25016   0.19998   0.00000  Uiso   1.00
H6     H     0.00136   0.74981   0.80000   0.00000  Uiso   1.00
C9     C     0.00448   0.00007   0.81083   0.00000  Uiso   1.00
C10    C     0.99551   0.99990   0.18917   0.00000  Uiso   1.00
C11    C     0.03208   0.99909   0.63071   0.00000  Uiso   1.00
C12    C     0.96790   0.00092   0.36929   0.00000  Uiso   1.00
C13    C     0.94408   0.10271   0.95266   0.00000  Uiso   1.00
C14    C     0.05597   0.89731   0.04733   0.00000  Uiso   1.00
C15    C     0.94406   0.10348   0.04426   0.00000  Uiso   1.00
C16    C     0.05593   0.89647   0.95573   0.00000  Uiso   1.00
H7     H     0.89779   0.18195   0.07837   0.00000  Uiso   1.00
H8     H     0.10217   0.81794   0.92161   0.00000  Uiso   1.00
C17    C     0.99954   0.00061   0.09202   0.00000  Uiso   1.00
C18    C     0.00045   0.99934   0.90797   0.00000  Uiso   1.00
O1     O     0.09001   0.66799   0.58191   0.00000  Uiso   1.00
O2     O     0.90998   0.33202   0.41810   0.00000  Uiso   1.00
O3     O     0.91088   0.67053   0.41889   0.00000  Uiso   1.00
O4     O     0.08911   0.32948   0.58111   0.00000  Uiso   1.00
O5     O     0.93137   0.66310   0.60257   0.00000  Uiso   1.00
O6     O     0.06862   0.33690   0.39743   0.00000  Uiso   1.00
O7     O     0.06950   0.66345   0.39818   0.00000  Uiso   1.00
O8     O     0.93049   0.33656   0.60182   0.00000  Uiso   1.00
C19    C     0.01484   0.71746   0.62128   0.00000  Uiso   1.00
C20    C     0.98516   0.28254   0.37873   0.00000  Uiso   1.00
C21    C     0.98635   0.71936   0.37978   0.00000  Uiso   1.00
C22    C     0.01365   0.28064   0.62022   0.00000  Uiso   1.00
Zn1    Zn    0.89711   0.50072   0.51057   0.00000  Uiso   1.00
Zn2    Zn    0.10289   0.49929   0.48943   0.00000  Uiso   1.00
C23    C     0.45848   0.50100   0.41662   0.00000  Uiso   1.00
C24    C     0.54153   0.49893   0.58335   0.00000  Uiso   1.00
H9     H     0.42603   0.50188   0.35133   0.00000  Uiso   1.00
H10    H     0.57399   0.49805   0.64864   0.00000  Uiso   1.00
C25    C     0.40437   0.49909   0.49130   0.00000  Uiso   1.00
C26    C     0.59564   0.50088   0.50868   0.00000  Uiso   1.00
C27    C     0.44590   0.49806   0.57461   0.00000  Uiso   1.00
C28    C     0.55411   0.50192   0.42536   0.00000  Uiso   1.00
C29    C     0.30478   0.49864   0.48310   0.00000  Uiso   1.00
C30    C     0.69522   0.50136   0.51689   0.00000  Uiso   1.00
N1     N     0.77565   0.50154   0.52095   0.00000  Uiso   1.00
N2     N     0.22434   0.49848   0.47905   0.00000  Uiso   1.00
O9     O     0.88430   0.19855   0.90685   0.00000  Uiso   1.00
H11    H     0.82689   0.13573   0.89910   0.00000  Uiso   1.00
O10    O     0.11569   0.80139   0.09316   0.00000  Uiso   1.00
H12    H     0.17279   0.86470   0.10175   0.00000  Uiso   1.00
O11    O     0.60784   0.50385   0.35140   0.00000  Uiso   1.00
H13    H     0.61784   0.39211   0.33719   0.00000  Uiso   1.00
O12    O     0.39218   0.49624   0.64858   0.00000  Uiso   1.00
H14    H     0.38259   0.60800   0.66300   0.00000  Uiso   1.00
