# generated using pymatgen
data_ZnH7C17N3O4
_symmetry_space_group_name_H-M   'P 1'
_cell_length_a   8.53067100
_cell_length_b   10.74834200
_cell_length_c   13.42149400
_cell_angle_alpha   97.66788200
_cell_angle_beta   90.09577200
_cell_angle_gamma   90.00836800
_symmetry_Int_Tables_number   1
_chemical_formula_structural   ZnH7C17N3O4
_chemical_formula_sum   'Zn2 H14 C34 N6 O8'
_cell_volume   1219.61858199
_cell_formula_units_Z   2
loop_
 _symmetry_equiv_pos_site_id
 _symmetry_equiv_pos_as_xyz
  1  'x, y, z'
loop_
 _atom_site_type_symbol
 _atom_site_label
 _atom_site_symmetry_multiplicity
 _atom_site_fract_x
 _atom_site_fract_y
 _atom_site_fract_z
 _atom_site_occupancy
  Zn  Zn1  1  0.50003000  0.49893700  0.10733600  1
  Zn  Zn2  1  0.49922700  0.50097200  0.88494100  1
  H  H1  1  0.99651200  0.59140700  0.04861300  1
  H  H2  1  0.99555200  0.40775300  0.94343000  1
  H  H3  1  0.25508100  0.90395100  0.98728600  1
  H  H4  1  0.25484700  0.09607500  0.00585300  1
  H  H5  1  0.61094400  0.10419500  0.98358300  1
  H  H6  1  0.52241000  0.69676200  0.76689300  1
  H  H7  1  0.68667300  0.73198400  0.56379800  1
  H  H8  1  0.53465100  0.81287900  0.43923100  1
  H  H9  1  0.47923000  0.30351100  0.22627500  1
  H  H10  1  0.49127600  0.18903400  0.36877400  1
  H  H11  1  0.48000000  0.18902800  0.55775100  1
  H  H12  1  0.51967400  0.81138100  0.62539000  1
  H  H13  1  0.65600500  0.25449700  0.51127100  1
  H  H14  1  0.49923500  0.30318200  0.72476700  1
  C  C1  1  0.99822200  0.68868000  0.03685900  1
  C  C2  1  0.13846500  0.74596800  0.02314000  1
  C  C3  1  0.14186700  0.86788800  0.00352500  1
  C  C4  1  0.85981000  0.74936500  0.02372700  1
  C  C5  1  0.86154000  0.87465300  0.00901300  1
  C  C6  1  0.00352600  0.93634800  0.00239400  1
  C  C7  1  0.00339700  0.06313300  0.99000600  1
  C  C8  1  0.14159700  0.13190400  0.98926400  1
  C  C9  1  0.13806100  0.25367100  0.96936200  1
  C  C10  1  0.72272900  0.05848000  0.98946700  1
  C  C11  1  0.86104600  0.12400900  0.98279300  1
  C  C12  1  0.85891100  0.24964900  0.96807200  1
  C  C13  1  0.99748900  0.31050900  0.95526400  1
  C  C14  1  0.27989800  0.66982700  0.01465400  1
  C  C15  1  0.27973100  0.32998300  0.97773800  1
  C  C16  1  0.71721900  0.32722200  0.97708600  1
  C  C17  1  0.71749900  0.67268900  0.01485500  1
  C  C18  1  0.49842300  0.39039900  0.69293900  1
  C  C19  1  0.51156600  0.60995900  0.71649000  1
  C  C20  1  0.51599300  0.61121600  0.61393500  1
  C  C21  1  0.50435500  0.50021800  0.55053800  1
  C  C22  1  0.50236300  0.38865100  0.58989800  1
  C  C23  1  0.55759500  0.72854000  0.57274500  1
  C  C24  1  0.48156100  0.73298300  0.47131600  1
  C  C25  1  0.50443700  0.61228400  0.40311800  1
  C  C26  1  0.50362400  0.50044300  0.44243100  1
  C  C27  1  0.48987700  0.38921400  0.37919000  1
  C  C28  1  0.45087000  0.27131700  0.42112400  1
  C  C29  1  0.52815900  0.26854200  0.52261500  1
  C  C30  1  0.50340400  0.61026700  0.29979000  1
  C  C31  1  0.49082900  0.39046300  0.27642000  1
  C  C32  1  0.31351900  0.75594700  0.48545100  1
  C  C33  1  0.28079100  0.26357900  0.43270900  1
  C  C34  1  0.49950100  0.72646000  0.25806900  1
  N  N1  1  0.72541800  0.93619800  0.00188200  1
  N  N2  1  0.49898800  0.50048700  0.75425700  1
  N  N3  1  0.50102300  0.49992400  0.23820500  1
  N  N4  1  0.18062500  0.77410700  0.49663100  1
  N  N5  1  0.14628500  0.25745900  0.44187000  1
  N  N6  1  0.49637000  0.82011800  0.22446400  1
  O  O1  1  0.33019900  0.62897800  0.92391700  1
  O  O2  1  0.33527700  0.63071700  0.09619100  1
  O  O3  1  0.33103800  0.37055500  0.06856600  1
  O  O4  1  0.33460500  0.36906600  0.89600000  1
  O  O5  1  0.66846600  0.37029600  0.06799000  1
  O  O6  1  0.66283700  0.36815100  0.89589000  1
  O  O7  1  0.66799300  0.62957800  0.92417300  1
  O  O8  1  0.66406600  0.63126800  0.09583000  1
