# Generated by REPEAT Assigner based on pymatgen
data_DB0-m3_o19_o24_f0_pcu.sym.16_sqe
_audit_creation_date              2022-05-24
_audit_creation_method            REPEAT_Assigner
_cell_length_a                    11.917930
_cell_length_b                    10.772286
_cell_length_c                    10.822069
_cell_angle_alpha                 90.000000
_cell_angle_beta                  90.013641
_cell_angle_gamma                 90.000000
_cell_volume                      1389.373416
_symmetry_space_group_name_H-M    P1
_symmetry_Int_Tables_number       1
loop_
    _symmetry_equiv_pos_site_id
    _symmetry_equiv_pos_as_xyz
    1  x,y,z
loop_
    _atom_site_type_symbol
    _atom_site_label
    _atom_site_fract_x
    _atom_site_fract_y
    _atom_site_fract_z
    _atom_type_partial_charge
    O   O1   0.332829  0.607284  0.501391  -0.688722
    O   O2   0.667171  0.392717  0.498609  -0.688805
    O   O3   0.667171  0.607284  0.498609  -0.688746
    O   O4   0.332829  0.392717  0.501391  -0.688792
    N   N1   0.500000  0.172944  0.500000  -0.124334
    N   N2   0.500000  0.827056  0.500000  -0.124258
    C   C1   0.280749  0.500000  0.501732  0.971922
    C   C2   0.719251  0.500000  0.498268  0.971884
    O   O5   0.498643  0.607230  0.315908  -0.686723
    O   O6   0.501357  0.392770  0.684092  -0.686790
    O   O7   0.501357  0.607230  0.684092  -0.686805
    O   O8   0.498643  0.392770  0.315908  -0.686711
    C   C3   0.497676  0.500000  0.258406  0.378403
    C   C4   0.502325  0.500000  0.741594  0.378616
    Zn  Zn1  0.500000  0.641395  0.500000  1.201187
    Zn  Zn2  0.500000  0.358605  0.500000  1.201232
    C   C5   0.500000  0.065539  0.500000  0.275676
    C   C6   0.500000  0.934461  0.500000  0.275586
    C   C7   0.447195  0.599777  0.039041  -0.255561
    C   C8   0.552805  0.400223  0.960959  -0.255788
    C   C9   0.552805  0.599777  0.960959  -0.255776
    C   C10  0.447195  0.400223  0.039041  -0.255571
    C   C11  0.397353  0.500000  0.956765  -0.182179
    C   C12  0.602647  0.500000  0.043235  -0.181965
    C   C13  0.502850  0.500000  0.879245  1.009604
    C   C14  0.497150  0.500000  0.120755  1.009501
    C   C15  0.160343  0.500000  0.501318  -0.335081
    C   C16  0.839658  0.500000  0.498683  -0.335011
    C   C17  0.059237  0.500000  0.500543  0.118427
    C   C18  0.940764  0.500000  0.499457  0.118381
    Br  Br1  0.246089  0.500000  0.892272  -0.023740
    Br  Br2  0.753912  0.500000  0.107728  -0.023728
    Br  Br3  0.367285  0.746791  0.091920  -0.013868
    Br  Br4  0.632716  0.253209  0.908080  -0.013799
    Br  Br5  0.632716  0.746791  0.908080  -0.013803
    Br  Br6  0.367285  0.253209  0.091920  -0.013862
