# Generated by REPEAT Assigner based on pymatgen
data_DB0-m3_o52_o158_f0_fsc.sym.25
_audit_creation_date              2022-05-24
_audit_creation_method            REPEAT_Assigner
_cell_length_a                    13.381315
_cell_length_b                    8.546698
_cell_length_c                    15.003091
_cell_angle_alpha                 90.000000
_cell_angle_beta                  90.992053
_cell_angle_gamma                 90.000000
_cell_volume                      1715.587193
_symmetry_space_group_name_H-M    P1
_symmetry_Int_Tables_number       1
loop_
    _symmetry_equiv_pos_site_id
    _symmetry_equiv_pos_as_xyz
    1  x,y,z
loop_
    _atom_site_type_symbol
    _atom_site_label
    _atom_site_fract_x
    _atom_site_fract_y
    _atom_site_fract_z
    _atom_type_partial_charge
    H   H1   0.037881  0.996547  0.562668  0.110340
    H   H2   0.962119  0.996547  0.437332  0.110327
    C   C1   0.009775  0.135985  0.675936  -0.098758
    C   C2   0.990119  0.856868  0.324137  -0.135864
    C   C3   0.990225  0.135985  0.324064  -0.098789
    C   C4   0.009881  0.856868  0.675864  -0.135830
    C   C5   0.996820  0.136909  0.766897  0.074938
    C   C6   0.003063  0.855807  0.233165  0.066153
    C   C7   0.003180  0.136909  0.233103  0.074937
    C   C8   0.996937  0.855807  0.766836  0.066156
    H   H3   0.990385  0.247481  0.801251  0.022074
    H   H4   0.009431  0.745189  0.198849  0.018116
    H   H5   0.009615  0.247481  0.198750  0.022069
    H   H6   0.990569  0.745190  0.801152  0.018115
    C   C9   0.995635  0.996331  0.813241  -0.417806
    C   C10  0.004365  0.996331  0.186759  -0.417791
    C   C11  0.022747  0.996473  0.632604  -0.058213
    C   C12  0.977253  0.996473  0.367397  -0.058186
    N   N1   0.997973  0.860227  0.955947  -0.328702
    N   N2   0.002029  0.132383  0.044052  -0.336772
    N   N3   0.002027  0.860227  0.044053  -0.328702
    N   N4   0.997971  0.132383  0.955949  -0.336784
    C   C13  0.004568  0.996307  0.089105  0.865873
    C   C14  0.995432  0.996307  0.910895  0.865885
    O   O1   0.089980  0.665505  0.587261  -0.784307
    O   O2   0.910322  0.326978  0.412919  -0.752586
    O   O3   0.910020  0.665505  0.412739  -0.784312
    O   O4   0.089679  0.326978  0.587081  -0.752533
    O   O5   0.918018  0.660020  0.597756  -0.737456
    O   O6   0.081858  0.333267  0.401945  -0.642438
    O   O7   0.081982  0.660020  0.402245  -0.737452
    O   O8   0.918142  0.333267  0.598055  -0.642398
    C   C15  0.006250  0.714768  0.621797  0.941434
    C   C16  0.993815  0.278164  0.378036  0.826119
    C   C17  0.993750  0.714768  0.378203  0.941457
    C   C18  0.006185  0.278164  0.621964  0.826027
    Zn  Zn1  0.888799  0.496338  0.504037  1.045733
    Zn  Zn2  0.111201  0.496338  0.495963  1.045658
    C   C19  0.292755  0.506300  0.416963  -0.269580
    C   C20  0.707245  0.506300  0.583037  -0.269859
    N   N5   0.242181  0.495846  0.493588  0.212692
    N   N6   0.757819  0.495846  0.506412  0.212775
    C   C21  0.290814  0.472593  0.571799  -0.285932
    C   C22  0.709186  0.472593  0.428201  -0.286189
    C   C23  0.393341  0.460240  0.574925  0.312284
    C   C24  0.606659  0.460240  0.425076  0.313069
    C   C25  0.445850  0.466709  0.497553  -0.055211
    C   C26  0.554150  0.466709  0.502448  -0.056376
    C   C27  0.395672  0.486353  0.417027  -0.045625
    C   C28  0.604328  0.486353  0.582974  -0.045059
    C   C29  0.445957  0.421671  0.660089  -0.421102
    C   C30  0.554043  0.421671  0.339911  -0.420730
    C   C31  0.547623  0.499967  0.667957  0.410522
    C   C32  0.452377  0.499967  0.332043  0.410587
    H   H7   0.249111  0.462435  0.632528  0.195554
    H   H8   0.750889  0.462435  0.367473  0.195533
    H   H9   0.457153  0.293182  0.662823  0.126729
    H   H10  0.600170  0.457141  0.282644  0.121166
    H   H11  0.542847  0.293182  0.337178  0.126477
    H   H12  0.399830  0.457141  0.717357  0.121273
    H   H13  0.251961  0.529942  0.355680  0.218085
    H   H14  0.748039  0.529942  0.644320  0.218133
    C   C33  0.602285  0.419473  0.742742  0.484007
    O   O9   0.666246  0.322160  0.727050  -0.476779
    O   O10  0.571946  0.441736  0.830079  -0.520629
    H   H15  0.613229  0.373976  0.872005  0.413100
    C   C34  0.465433  0.669134  0.310857  0.556685
    O   O11  0.427449  0.724580  0.243511  -0.492835
    O   O12  0.519995  0.764536  0.368923  -0.574529
    H   H16  0.521315  0.875427  0.345322  0.413444
    C   C35  0.397716  0.419473  0.257258  0.484087
    O   O13  0.333754  0.322160  0.272951  -0.476799
    O   O14  0.428054  0.441736  0.169921  -0.520691
    H   H17  0.386771  0.373976  0.127996  0.413116
    C   C36  0.534567  0.669134  0.689143  0.556732
    O   O15  0.572551  0.724580  0.756489  -0.492849
    O   O16  0.480005  0.764536  0.631077  -0.574352
    H   H18  0.478685  0.875427  0.654678  0.413347
