# generated using pymatgen
data_Zn2H19C33N2O8F3
_symmetry_space_group_name_H-M   'P 1'
_cell_length_a   8.51879000
_cell_length_b   12.98913200
_cell_length_c   14.19406600
_cell_angle_alpha   90.63303900
_cell_angle_beta   93.35560400
_cell_angle_gamma   86.46146800
_symmetry_Int_Tables_number   1
_chemical_formula_structural   Zn2H19C33N2O8F3
_chemical_formula_sum   'Zn2 H19 C33 N2 O8 F3'
_cell_volume   1564.87178111
_cell_formula_units_Z   1
loop_
 _symmetry_equiv_pos_site_id
 _symmetry_equiv_pos_as_xyz
  1  'x, y, z'
loop_
 _atom_site_type_symbol
 _atom_site_label
 _atom_site_symmetry_multiplicity
 _atom_site_fract_x
 _atom_site_fract_y
 _atom_site_fract_z
 _atom_site_occupancy
  Zn  Zn1  1  0.49002800  0.51306200  0.89374400  1
  Zn  Zn2  1  0.50783700  0.48948400  0.10314000  1
  H  H1  1  0.01447600  0.57136800  0.04075800  1
  H  H2  1  0.70535900  0.83213500  0.99679300  1
  H  H3  1  0.68275400  0.98593000  0.02596900  1
  H  H4  1  0.65044700  0.16605600  0.00821700  1
  H  H5  1  0.98338700  0.43118800  0.95616800  1
  H  H6  1  0.29250800  0.17040600  0.00004400  1
  H  H7  1  0.31510600  0.01661100  0.97084600  1
  H  H8  1  0.34741900  0.83648400  0.98862200  1
  H  H9  1  0.68954800  0.39676700  0.60443000  1
  H  H10  1  0.53757000  0.67123600  0.57250700  1
  H  H11  1  0.71214700  0.58527700  0.57838600  1
  H  H12  1  0.69856800  0.59545100  0.41570600  1
  H  H13  1  0.50361500  0.65522500  0.41507300  1
  H  H14  1  0.25593700  0.46179800  0.57204700  1
  H  H15  1  0.27564300  0.59717000  0.55031700  1
  H  H16  1  0.28583600  0.42091800  0.41862100  1
  H  H17  1  0.49919500  0.34445700  0.58706100  1
  H  H18  1  0.53416600  0.32623500  0.43359300  1
  H  H19  1  0.27080300  0.55741500  0.39476200  1
  C  C1  1  0.12560100  0.70903400  0.01639700  1
  C  C2  1  0.99781000  0.65329000  0.03019400  1
  C  C3  1  0.84879800  0.69889000  0.02078600  1
  C  C4  1  0.82570300  0.80318000  0.00805800  1
  C  C5  1  0.95377900  0.86435700  0.00682100  1
  C  C6  1  0.10398900  0.81547600  0.00557000  1
  C  C7  1  0.93393100  0.97237900  0.00328800  1
  C  C8  1  0.06393300  0.03016300  0.99353400  1
  C  C9  1  0.21090300  0.97849700  0.98512000  1
  C  C10  1  0.23070600  0.87310600  0.99307800  1
  C  C11  1  0.78696000  0.02404400  0.01169900  1
  C  C12  1  0.76715900  0.12943400  0.00375500  1
  C  C13  1  0.89387700  0.18706700  0.99127800  1
  C  C14  1  0.04408700  0.13818600  0.99001700  1
  C  C15  1  0.87226500  0.29351200  0.98048300  1
  C  C16  1  0.00005400  0.34926400  0.96670900  1
  C  C17  1  0.14906500  0.30366100  0.97610000  1
  C  C18  1  0.17216300  0.19936500  0.98879300  1
  C  C19  1  0.28185900  0.36855800  0.98345300  1
  C  C20  1  0.27653900  0.64880000  0.00959100  1
  C  C21  1  0.71599800  0.63399600  0.01343700  1
  C  C22  1  0.72132300  0.35374000  0.98729300  1
  C  C23  1  0.57362000  0.40584800  0.56473500  1
  C  C24  1  0.58827800  0.59486900  0.54988000  1
  C  C25  1  0.58049500  0.58921900  0.44306300  1
  C  C26  1  0.49417700  0.51044300  0.58698400  1
  C  C27  1  0.59303600  0.39584600  0.45933400  1
  C  C28  1  0.50920300  0.48964600  0.41034700  1
  C  C29  1  0.33825700  0.49541000  0.43566500  1
  C  C30  1  0.32944600  0.51818100  0.54019400  1
  C  C31  1  0.51376400  0.48040300  0.30765400  1
  C  C32  1  0.48620200  0.52121300  0.68935500  1
  C  C33  1  0.76721200  0.37918000  0.43944400  1
  N  N1  1  0.51573900  0.47618000  0.22626000  1
  N  N2  1  0.48219900  0.52634000  0.77062300  1
  O  O1  1  0.33848400  0.39208700  0.06822900  1
  O  O2  1  0.32895900  0.40755500  0.90605400  1
  O  O3  1  0.32013000  0.62099700  0.92506700  1
  O  O4  1  0.33941400  0.60498200  0.08703000  1
  O  O5  1  0.65938000  0.61045700  0.92866500  1
  O  O6  1  0.66890600  0.59499100  0.09083300  1
  O  O7  1  0.67773700  0.38155800  0.07180200  1
  O  O8  1  0.65844500  0.39756500  0.90987100  1
  F  F1  1  0.82364000  0.28488000  0.47585500  1
  F  F2  1  0.85438000  0.45518800  0.48144000  1
  F  F3  1  0.78607000  0.37798400  0.34340300  1
