# Generated by REPEAT Assigner based on pymatgen
data_DB0-m9_o11_o14_f0_sra.sym.13_sqe
_audit_creation_date              2022-05-24
_audit_creation_method            REPEAT_Assigner
_cell_length_a                    6.326914
_cell_length_b                    13.040503
_cell_length_c                    16.000348
_cell_angle_alpha                 90.287116
_cell_angle_beta                  89.968930
_cell_angle_gamma                 90.007380
_cell_volume                      1320.110134
_symmetry_space_group_name_H-M    P1
_symmetry_Int_Tables_number       1
loop_
    _symmetry_equiv_pos_site_id
    _symmetry_equiv_pos_as_xyz
    1  x,y,z
loop_
    _atom_site_type_symbol
    _atom_site_label
    _atom_site_fract_x
    _atom_site_fract_y
    _atom_site_fract_z
    _atom_type_partial_charge
    O  O1   0.454698  0.462090  0.376943  -0.598241
    O  O2   0.829211  0.440127  0.603494  -0.570381
    O  O3   0.037200  0.608605  0.546246  -0.406153
    C  C1   0.656113  0.386810  0.602903  0.655633
    O  O4   0.739807  0.379431  0.437411  -0.341356
    O  O5   0.955277  0.548428  0.380720  -0.536886
    C  C2   0.622843  0.402480  0.371007  0.655241
    O  O6   0.537652  0.382794  0.536277  -0.498126
    O  O7   0.642394  0.577543  0.493713  -0.637443
    V  V1   0.916552  0.486109  0.491347  1.430303
    O  O8   0.239424  0.623442  0.448289  -0.526562
    C  C3   0.125024  0.607122  0.380017  0.709320
    O  O9   0.329468  0.543850  0.608085  -0.547049
    C  C4   0.157496  0.598707  0.612168  0.596559
    V  V2   0.416564  0.511074  0.492460  1.457319
    O  O10  0.142200  0.419829  0.487122  -0.639431
    H  H1   0.462630  0.727950  0.658089  0.167753
    C  C5   0.785647  0.635026  0.704954  -0.240341
    H  H2   0.790426  0.580327  0.654519  0.144855
    C  C6   0.603952  0.646133  0.751515  -0.027147
    H  H3   0.467228  0.599212  0.737918  0.108990
    C  C7   0.595108  0.718712  0.814114  -0.181558
    H  H4   0.451596  0.728606  0.849957  0.202308
    C  C8   0.768386  0.779538  0.830585  -0.300972
    H  H5   0.754709  0.838066  0.877992  0.171996
    C  C9   0.953952  0.766061  0.786021  0.307856
    C  C10  0.961407  0.693583  0.722499  0.065787
    C  C11  0.145710  0.677744  0.677771  -0.076143
    C  C12  0.320152  0.737743  0.694586  -0.161864
    H  H6   0.449819  0.858183  0.769407  0.146465
    C  C13  0.311741  0.811980  0.756327  -0.023690
    C  C14  0.130905  0.825122  0.803518  -0.389393
    C  C15  0.953421  0.702935  0.273449  0.046663
    C  C16  0.130535  0.684287  0.314893  -0.357221
    H  H7   0.809819  0.662585  0.290171  0.074173
    H  H8   0.271378  0.729605  0.303917  0.173259
    C  C17  0.946640  0.782744  0.210224  -0.039831
    C  C18  0.120592  0.810062  0.169796  -0.256945
    H  H9   0.796413  0.816661  0.193176  0.115655
    H  H10  0.269469  0.771386  0.181000  0.139843
    C  C19  0.798330  0.200996  0.772316  -0.087919
    C  C20  0.624099  0.182985  0.816177  -0.183859
    H  H11  0.941228  0.158649  0.786438  0.118701
    C  C21  0.805457  0.283596  0.711058  0.071998
    C  C22  0.637277  0.306244  0.665084  -0.349456
    H  H12  0.953522  0.322859  0.699405  0.067686
    H  H13  0.494243  0.260883  0.669107  0.137853
    C  C23  0.798209  0.211252  0.205893  0.058528
    C  C24  0.616660  0.167236  0.184124  -0.320123
    H  H14  0.943048  0.191979  0.173194  0.077403
    H  H15  0.478753  0.180045  0.222794  0.196602
    C  C25  0.801397  0.280282  0.278808  -0.126079
    C  C26  0.628615  0.333310  0.298575  -0.376324
    H  H16  0.491761  0.328998  0.258018  0.176078
    O  O11  0.801271  0.046144  0.881847  -0.617372
    O  O12  0.426204  0.042357  0.109192  -0.574539
    O  O13  0.218604  0.881633  0.038780  -0.482316
    C  C27  0.599506  0.095511  0.113672  0.615226
    O  O14  0.517816  0.121257  0.949388  -0.257060
    O  O15  0.301760  0.958960  0.878446  -0.624145
    C  C28  0.631349  0.105005  0.880994  0.572984
    O  O16  0.718768  0.107524  0.047517  -0.468543
    O  O17  0.614356  0.918154  0.988934  -0.611266
    V  V3   0.339871  0.009213  0.993664  1.371890
    O  O18  0.017914  0.877363  0.940210  -0.442660
    C  C29  0.133710  0.898746  0.873202  0.781680
    O  O19  0.927027  0.940308  0.105400  -0.563560
    C  C30  0.101463  0.888055  0.105753  0.624924
    V  V4   0.840036  0.984605  0.992815  1.465405
    O  O20  0.114471  0.075975  0.994462  -0.593379
    C  C31  0.436336  0.251494  0.808121  0.209319
    C  C32  0.337292  0.269672  0.893102  -0.304535
    H  H17  0.254648  0.199232  0.913767  0.074130
    H  H18  0.461742  0.290837  0.938819  0.062381
    H  H19  0.220703  0.332907  0.888627  0.031636
    H  H20  0.487075  0.326323  0.782274  0.030535
    H  H21  0.317440  0.215302  0.766470  -0.000790
    C  C33  0.997820  0.293042  0.328827  0.508369
    C  C34  0.171219  0.228527  0.290342  -0.403766
    H  H22  0.118930  0.147454  0.286695  0.065334
    H  H23  0.204644  0.257276  0.226581  0.097821
    H  H24  0.315467  0.233897  0.329444  0.105218
    H  H25  0.046113  0.374798  0.328860  -0.086917
    H  H26  0.968603  0.267793  0.393901  -0.060338
