# generated using pymatgen
data_Cu3H24C33O20
_symmetry_space_group_name_H-M   'P 1'
_cell_length_a   18.78170500
_cell_length_b   18.52957400
_cell_length_c   18.68711600
_cell_angle_alpha   108.94402100
_cell_angle_beta   109.92117200
_cell_angle_gamma   109.45649300
_symmetry_Int_Tables_number   1
_chemical_formula_structural   Cu3H24C33O20
_chemical_formula_sum   'Cu6 H48 C66 O40'
_cell_volume   5011.74683672
_cell_formula_units_Z   2
loop_
 _symmetry_equiv_pos_site_id
 _symmetry_equiv_pos_as_xyz
  1  'x, y, z'
loop_
 _atom_site_type_symbol
 _atom_site_label
 _atom_site_symmetry_multiplicity
 _atom_site_fract_x
 _atom_site_fract_y
 _atom_site_fract_z
 _atom_site_occupancy
  Cu  Cu1  1  0.50041000  0.43258100  0.44199200  1
  Cu  Cu2  1  0.49945400  0.55865100  0.56112000  1
  Cu  Cu3  1  0.94184500  0.43668900  0.00161000  1
  Cu  Cu4  1  0.06116100  0.56321800  0.00038700  1
  Cu  Cu5  1  0.93308600  0.99613500  0.43635700  1
  Cu  Cu6  1  0.05577000  0.99829300  0.55761200  1
  H  H1  1  0.69346100  0.39578600  0.60362300  1
  H  H2  1  0.62517000  0.34810500  0.64099700  1
  H  H3  1  0.74119000  0.35601900  0.74034700  1
  H  H4  1  0.80745200  0.40994700  0.70633100  1
  H  H5  1  0.77762400  0.54531500  0.66705600  1
  H  H6  1  0.67329900  0.57192900  0.80259800  1
  H  H7  1  0.78178500  0.58121200  0.89954700  1
  H  H8  1  0.88164100  0.63718700  0.85969400  1
  H  H9  1  0.24443300  0.38758500  0.52240700  1
  H  H10  1  0.12871900  0.27312900  0.51925000  1
  H  H11  1  0.23527000  0.10513400  0.46494700  1
  H  H12  1  0.34664100  0.21600000  0.46188900  1
  H  H13  1  0.38479100  0.63992100  0.37157400  1
  H  H14  1  0.27189900  0.64010000  0.25720700  1
  H  H15  1  0.12833100  0.35919900  0.12337900  1
  H  H16  1  0.24402400  0.35896300  0.23467300  1
  H  H17  1  0.76817800  0.75816300  0.64163000  1
  H  H18  1  0.87882400  0.87281200  0.64059300  1
  H  H19  1  0.73741700  0.73256400  0.36151700  1
  H  H20  1  0.13543400  0.38280400  0.86312700  1
  H  H21  1  0.13477300  0.26855400  0.75090800  1
  H  H22  1  0.85821000  0.11549000  0.62518200  1
  H  H23  1  0.04979100  0.78316000  0.15592500  1
  H  H24  1  0.94981900  0.60012600  0.23442100  1
  H  H25  1  0.83335700  0.82525500  0.79591900  1
  H  H26  1  0.79184700  0.83570300  0.87059900  1
  H  H27  1  0.71635400  0.76748100  0.75382900  1
  H  H28  1  0.49624800  0.46478800  0.20347000  1
  H  H29  1  0.51495800  0.51864600  0.14104400  1
  H  H30  1  0.43336100  0.51619700  0.17255500  1
  H  H31  1  0.70015400  0.18023000  0.73784100  1
  H  H32  1  0.64107900  0.08836000  0.62754800  1
  H  H33  1  0.64782700  0.19289700  0.64508200  1
  H  H34  1  0.11810000  0.06368700  0.28602700  1
  H  H35  1  0.02362100  0.03751600  0.19054300  1
  H  H36  1  0.11111100  0.02310800  0.18032900  1
  H  H37  1  0.86383600  0.65651600  0.43207800  1
  H  H38  1  0.95624200  0.65592200  0.50494200  1
  H  H39  1  0.87184700  0.55746400  0.40124200  1
  H  H40  1  0.00484700  0.54980700  0.71492400  1
  H  H41  1  0.08428800  0.66624700  0.78334400  1
  H  H42  1  0.00022800  0.62451000  0.67286900  1
  H  H43  1  0.46470200  0.37551500  0.78490300  1
  H  H44  1  0.41813000  0.27131900  0.68854300  1
  H  H45  1  0.38338400  0.34983800  0.67996400  1
  H  H46  1  0.70185200  0.39834300  0.98139100  1
  H  H47  1  0.68419300  0.29407800  0.90740900  1
  H  H48  1  0.59195900  0.31043100  0.89641300  1
  C  C1  1  0.37393200  0.37758400  0.49516200  1
  C  C2  1  0.61240400  0.49182500  0.62435100  1
  C  C3  1  0.62345300  0.61362700  0.50497000  1
  C  C4  1  0.38773000  0.49922300  0.37940500  1
  C  C5  1  0.68464400  0.40691300  0.66123800  1
  C  C6  1  0.76173800  0.41331300  0.73051100  1
  C  C7  1  0.76932600  0.56693900  0.72488600  1
  C  C8  1  0.66742600  0.50655400  0.77576700  1
  C  C9  1  0.68039000  0.49181000  0.69601600  1
  C  C10  1  0.80738800  0.49894200  0.81556600  1
  C  C11  1  0.84516000  0.57413100  0.79804100  1
  C  C12  1  0.74386500  0.51205700  0.84627300  1
  C  C13  1  0.24232500  0.32539100  0.50904700  1
  C  C14  1  0.17668700  0.26062200  0.50669900  1
  C  C15  1  0.17483400  0.18190500  0.49232800  1
  C  C16  1  0.23673300  0.16691500  0.47720000  1
  C  C17  1  0.29925400  0.22950300  0.47473300  1
  C  C18  1  0.30362400  0.30978700  0.49265700  1
  C  C19  1  0.32894300  0.57811700  0.31662300  1
  C  C20  1  0.26564600  0.57819100  0.25192700  1
  C  C21  1  0.19275800  0.49966300  0.18315100  1
  C  C22  1  0.18496400  0.42100700  0.17741500  1
  C  C23  1  0.25052200  0.42084500  0.23963400  1
  C  C24  1  0.32178300  0.49942900  0.31015000  1
  C  C25  1  0.76085900  0.75269000  0.58008200  1
  C  C26  1  0.82348000  0.81693800  0.57919500  1
  C  C27  1  0.81423300  0.81048500  0.50053400  1
  C  C28  1  0.74243200  0.73887400  0.42280800  1
  C  C29  1  0.67976100  0.67369300  0.42364400  1
  C  C30  1  0.69010200  0.68045900  0.50282600  1
  C  C31  1  0.99916900  0.38196400  0.87886800  1
  C  C32  1  0.87913900  0.50038800  0.88467100  1
  C  C33  1  0.00269500  0.61785800  0.12221200  1
  C  C34  1  0.12348200  0.49978600  0.11714700  1
  C  C35  1  0.99448400  0.87937900  0.38067800  1
  C  C36  1  0.10860200  0.11462800  0.49417000  1
  C  C37  1  0.99499600  0.11568400  0.61313600  1
  C  C38  1  0.88025600  0.87920700  0.49947400  1
  C  C39  1  0.07396700  0.32492300  0.81033600  1
  C  C40  1  0.07363400  0.25993900  0.74738800  1
  C  C41  1  0.99575300  0.18515100  0.68008800  1
  C  C42  1  0.91824900  0.17587000  0.67615000  1
  C  C43  1  0.91820200  0.24040500  0.73995100  1
  C  C44  1  0.99688200  0.31461200  0.80824000  1
  C  C45  1  0.02580000  0.76758200  0.19693300  1
  C  C46  1  0.02044000  0.83008000  0.25699900  1
  C  C47  1  0.99565300  0.81171700  0.31360700  1
  C  C48  1  0.97264300  0.72990400  0.30760400  1
  C  C49  1  0.97232300  0.66573600  0.24308400  1
  C  C50  1  0.00054700  0.68496500  0.18887900  1
  C  C51  1  0.78653700  0.71308300  0.81178700  1
  C  C52  1  0.78159500  0.79018400  0.80751500  1
  C  C53  1  0.56548500  0.60505000  0.27580700  1
  C  C54  1  0.49822500  0.52079300  0.19289000  1
  C  C55  1  0.76482300  0.18892200  0.66419600  1
  C  C56  1  0.68330200  0.16086100  0.66902300  1
  C  C57  1  0.02893800  0.92664400  0.19738900  1
  C  C58  1  0.07328200  0.01861000  0.21467400  1
  C  C59  1  0.95815700  0.65912400  0.39253000  1
  C  C60  1  0.90941300  0.63041100  0.43543500  1
  C  C61  1  0.95667400  0.63119900  0.76511000  1
  C  C62  1  0.01526700  0.61705400  0.73194400  1
  C  C63  1  0.51010600  0.38286800  0.69601200  1
  C  C64  1  0.43952700  0.34226400  0.71338900  1
  C  C65  1  0.66904000  0.37584200  0.85222700  1
  C  C66  1  0.66124600  0.34253100  0.91326800  1
  O  O1  1  0.41041300  0.35186600  0.45129200  1
  O  O2  1  0.40047500  0.46086200  0.54409400  1
  O  O3  1  0.58514400  0.43797500  0.54269800  1
  O  O4  1  0.58475700  0.54746000  0.64571500  1
  O  O5  1  0.59471900  0.53045900  0.45369200  1
  O  O6  1  0.59377700  0.63981600  0.55664900  1
  O  O7  1  0.41039100  0.43927000  0.35750200  1
  O  O8  1  0.41971900  0.55775400  0.46070200  1
  O  O9  1  0.94477100  0.35609700  0.90606200  1
  O  O10  1  0.05076200  0.46546600  0.90758000  1
  O  O11  1  0.85756800  0.44403100  0.91204800  1
  O  O12  1  0.96072000  0.55611500  0.91370600  1
  O  O13  1  0.95005400  0.53438800  0.09233000  1
  O  O14  1  0.05049200  0.64375900  0.08865400  1
  O  O15  1  0.04231300  0.44145200  0.08560800  1
  O  O16  1  0.14538400  0.55834800  0.09248600  1
  O  O17  1  0.96073400  0.92623400  0.35815800  1
  O  O18  1  0.02789200  0.89098500  0.46102900  1
  O  O19  1  0.02877100  0.10333700  0.46217000  1
  O  O20  1  0.13190200  0.06785800  0.52749500  1
  O  O21  1  0.92498800  0.06647000  0.53381200  1
  O  O22  1  0.06429800  0.10535000  0.63495700  1
  O  O23  1  0.85685000  0.88929000  0.42971600  1
  O  O24  1  0.96012400  0.92824800  0.56841800  1
  O  O25  1  0.77091300  0.64610200  0.73946800  1
  O  O26  1  0.80516800  0.71247600  0.88061200  1
  O  O27  1  0.60906400  0.60293300  0.34876400  1
  O  O28  1  0.57542200  0.67460500  0.27864600  1
  O  O29  1  0.84299500  0.23101500  0.73811600  1
  O  O30  1  0.76052600  0.17900500  0.59476600  1
  O  O31  1  0.04471700  0.91098100  0.26538400  1
  O  O32  1  0.97409200  0.86738000  0.12265700  1
  O  O33  1  0.94478200  0.71231000  0.36089200  1
  O  O34  1  0.01427700  0.63995400  0.39243800  1
  O  O35  1  0.90261400  0.56608100  0.77030800  1
  O  O36  1  0.95833900  0.70159800  0.78785000  1
  O  O37  1  0.58894600  0.45064000  0.76479200  1
  O  O38  1  0.49614700  0.35231300  0.62137000  1
  O  O39  1  0.71950600  0.46354400  0.88528300  1
  O  O40  1  0.62812200  0.32409400  0.77398200  1
