# generated using pymatgen
data_Fe2H32C65(NO4)4
_symmetry_space_group_name_H-M   'P 1'
_cell_length_a   17.30610000
_cell_length_b   14.18110400
_cell_length_c   18.96202900
_cell_angle_alpha   84.31449500
_cell_angle_beta   90.61725000
_cell_angle_gamma   116.11032400
_symmetry_Int_Tables_number   1
_chemical_formula_structural   Fe2H32C65(NO4)4
_chemical_formula_sum   'Fe2 H32 C65 N4 O16'
_cell_volume   4155.37655513
_cell_formula_units_Z   1
loop_
 _symmetry_equiv_pos_site_id
 _symmetry_equiv_pos_as_xyz
  1  'x, y, z'
loop_
 _atom_site_type_symbol
 _atom_site_label
 _atom_site_symmetry_multiplicity
 _atom_site_fract_x
 _atom_site_fract_y
 _atom_site_fract_z
 _atom_site_occupancy
  Fe  Fe1  1  0.54057000  0.05186100  0.30908300  1
  Fe  Fe2  1  0.47816200  0.00714500  0.69303600  1
  H  H1  1  0.01769500  0.94912600  0.23684500  1
  H  H2  1  0.73199600  0.98083600  0.02776900  1
  H  H3  1  0.99589800  0.10209400  0.77161100  1
  H  H4  1  0.27760800  0.05511400  0.98035900  1
  H  H5  1  0.93785800  0.93887700  0.04543300  1
  H  H6  1  0.07003100  0.09439500  0.96423800  1
  H  H7  1  0.07303100  0.03543000  0.71015400  1
  H  H8  1  0.29758300  0.01089300  0.86525300  1
  H  H9  1  0.35022900  0.05752200  0.08180500  1
  H  H10  1  0.27848900  0.92438000  0.29609500  1
  H  H11  1  0.94483300  0.02200200  0.29538800  1
  H  H12  1  0.71762600  0.03773700  0.13973700  1
  H  H13  1  0.65927100  0.98402700  0.92511500  1
  H  H14  1  0.73563800  0.09754100  0.70669000  1
  H  H15  1  0.88021600  0.11792300  0.72853900  1
  H  H16  1  0.18513500  0.99908200  0.66088400  1
  H  H17  1  0.83426400  0.06276500  0.34277500  1
  H  H18  1  0.50285000  0.66633700  0.70338300  1
  H  H19  1  0.52106200  0.50803500  0.70464200  1
  H  H20  1  0.52096600  0.14312100  0.47797500  1
  H  H21  1  0.51137200  0.40375600  0.35846700  1
  H  H22  1  0.50363000  0.53699600  0.41451300  1
  H  H23  1  0.53493200  0.38153800  0.64779800  1
  H  H24  1  0.50601500  0.68379400  0.41161500  1
  H  H25  1  0.48065400  0.90826300  0.52745600  1
  H  H26  1  0.01677100  0.72163500  0.40171500  1
  H  H27  1  0.99541500  0.64272900  0.32780900  1
  H  H28  1  0.05931100  0.62608200  0.39948900  1
  H  H29  1  0.14812600  0.73037700  0.29060000  1
  H  H30  1  0.17373400  0.80175000  0.36884800  1
  H  H31  1  0.09860200  0.90337900  0.32756200  1
  H  H32  1  0.04445400  0.81166100  0.26274100  1
  C  C1  1  0.21680000  0.99968200  0.11385500  1
  C  C2  1  0.15616500  0.95977600  0.16803900  1
  C  C3  1  0.08299200  0.96573300  0.14130900  1
  C  C4  1  0.17750100  0.01897500  0.05421900  1
  C  C5  1  0.01565300  0.95796200  0.17998200  1
  C  C6  1  0.94420700  0.97837900  0.15175700  1
  C  C7  1  0.89233000  0.00581100  0.19160500  1
  C  C8  1  0.83081800  0.01167800  0.14883200  1
  C  C9  1  0.84649800  0.98864000  0.08278900  1
  C  C10  1  0.79654500  0.98911100  0.01965100  1
  C  C11  1  0.83120800  0.01350000  0.95388300  1
  C  C12  1  0.79120100  0.02934400  0.89362500  1
  C  C13  1  0.85100900  0.06342800  0.83948600  1
  C  C14  1  0.92509900  0.06349900  0.86679000  1
  C  C15  1  0.99569400  0.08309400  0.82820600  1
  C  C16  1  0.06929900  0.06682500  0.85553900  1
  C  C17  1  0.12359200  0.04504200  0.81455100  1
  C  C18  1  0.18419200  0.03675900  0.85736000  1
  C  C19  1  0.16537200  0.05270100  0.92478900  1
  C  C20  1  0.21316800  0.04709100  0.98854000  1
  C  C21  1  0.12195000  0.03039900  0.74401000  1
  C  C22  1  0.18550800  0.00903900  0.71664700  1
  C  C23  1  0.24960400  0.00281000  0.75931700  1
  C  C24  1  0.24872400  0.01574800  0.83122300  1
  C  C25  1  0.30136100  0.01960000  0.12373700  1
  C  C26  1  0.32311200  0.99456700  0.19085300  1
  C  C27  1  0.25980500  0.94358600  0.24432000  1
  C  C28  1  0.17451400  0.92205500  0.23343900  1
  C  C29  1  0.89557100  0.02546200  0.26128100  1
  C  C30  1  0.83275900  0.04916200  0.28761800  1
  C  C31  1  0.76792600  0.05308200  0.24481500  1
  C  C32  1  0.76739200  0.03556100  0.17377100  1
  C  C33  1  0.70790700  0.01461600  0.88273300  1
  C  C34  1  0.68803700  0.03953300  0.81459500  1
  C  C35  1  0.75096600  0.07906000  0.76008700  1
  C  C36  1  0.83295200  0.08975100  0.77186700  1
  C  C37  1  0.69783700  0.06785000  0.27764400  1
  C  C38  1  0.50416100  0.86934400  0.39773900  1
  C  C39  1  0.41276600  0.02507600  0.20858300  1
  C  C40  1  0.51238800  0.21373200  0.35132600  1
  C  C41  1  0.49978500  0.64761000  0.52601800  1
  C  C42  1  0.49676100  0.68799100  0.58973600  1
  C  C43  1  0.50478400  0.63711400  0.65329500  1
  C  C44  1  0.51513800  0.54666200  0.65421900  1
  C  C45  1  0.51543100  0.50381700  0.59221900  1
  C  C46  1  0.50768700  0.55263200  0.52757200  1
  C  C47  1  0.52297400  0.41067300  0.59649200  1
  C  C48  1  0.51822900  0.35940700  0.53691000  1
  C  C49  1  0.51511700  0.41014600  0.47141100  1
  C  C50  1  0.50904000  0.50472800  0.46693700  1
  C  C51  1  0.51674600  0.25943200  0.54042700  1
  C  C52  1  0.52242600  0.22001900  0.47782400  1
  C  C53  1  0.52289200  0.27229400  0.41293100  1
  C  C54  1  0.51619100  0.36584900  0.40953800  1
  C  C55  1  0.49823400  0.70579100  0.46260900  1
  C  C56  1  0.49264100  0.79973700  0.46310900  1
  C  C57  1  0.48368700  0.83396200  0.52629700  1
  C  C58  1  0.48656400  0.77996400  0.58942900  1
  C  C59  1  0.60040900  0.01961400  0.79661300  1
  C  C60  1  0.49592000  0.83636000  0.65196600  1
  C  C61  1  0.31967500  0.98872300  0.72584200  1
  C  C62  1  0.50190200  0.18694800  0.60606300  1
  C  C63  1  0.10592400  0.85373800  0.28895400  1
  C  C64  1  0.12501200  0.76796600  0.32850800  1
  C  C65  1  0.04366100  0.68423800  0.36678400  1
  N  N1  1  0.09579600  0.99914800  0.07126700  1
  N  N2  1  0.91520700  0.96673600  0.08531600  1
  N  N3  1  0.91325800  0.03371800  0.93723700  1
  N  N4  1  0.09559400  0.07247200  0.92292900  1
  O  O1  1  0.63211800  0.06595600  0.24127200  1
  O  O2  1  0.50636300  0.83741400  0.33547900  1
  O  O3  1  0.69591400  0.07126400  0.34645400  1
  O  O4  1  0.51971500  0.96770900  0.40260300  1
  O  O5  1  0.42738700  0.97377100  0.26436100  1
  O  O6  1  0.47434100  0.11385600  0.17932400  1
  O  O7  1  0.57908100  0.20239700  0.32822800  1
  O  O8  1  0.43513400  0.13860100  0.34347300  1
  O  O9  1  0.59137300  0.07417700  0.74000800  1
  O  O10  1  0.53433600  0.93515800  0.82560800  1
  O  O11  1  0.43217100  0.85727700  0.66984300  1
  O  O12  1  0.57455100  0.90141000  0.66659400  1
  O  O13  1  0.47360200  0.20186500  0.66579100  1
  O  O14  1  0.38792800  0.99693900  0.76088800  1
  O  O15  1  0.50506500  0.09707300  0.60143700  1
  O  O16  1  0.31890100  0.97998600  0.65756500  1
