# Generated by REPEAT Assigner based on pymatgen
data_DB0-m3_o153_o159_f0_fsc.sym.21_sqe
_audit_creation_date              2022-05-24
_audit_creation_method            REPEAT_Assigner
_cell_length_a                    8.523112
_cell_length_b                    13.060718
_cell_length_c                    13.408977
_cell_angle_alpha                 90.607754
_cell_angle_beta                  93.277516
_cell_angle_gamma                 86.470183
_cell_volume                      1487.353877
_symmetry_space_group_name_H-M    P1
_symmetry_Int_Tables_number       1
loop_
    _symmetry_equiv_pos_site_id
    _symmetry_equiv_pos_as_xyz
    1  x,y,z
loop_
    _atom_site_type_symbol
    _atom_site_label
    _atom_site_fract_x
    _atom_site_fract_y
    _atom_site_fract_z
    _atom_type_partial_charge
    C   C1   0.020661  0.867497  0.992182  -0.125982
    C   C2   0.888372  0.810096  0.994039  0.065785
    C   C3   0.739180  0.858301  0.983395  0.039866
    C   C4   0.719964  0.962908  0.976656  0.217683
    C   C5   0.848610  0.022351  0.984966  -0.222496
    C   C6   0.999608  0.975232  0.992921  0.159854
    C   C7   0.825557  0.128794  0.987123  0.310562
    C   C8   0.952660  0.189483  0.994838  -0.140068
    C   C9   0.102922  0.142815  0.003516  0.122235
    C   C10  0.125229  0.037420  0.007597  -0.286452
    C   C11  0.933959  0.296209  0.993265  -0.052576
    C   C12  0.064184  0.351532  0.986300  -0.184087
    C   C13  0.212736  0.305552  0.995247  -0.161919
    C   C14  0.232778  0.201601  0.008596  0.193575
    C   C15  0.168951  0.814509  0.987473  0.295189
    C   C16  0.185392  0.710696  0.007132  -0.217562
    C   C17  0.055110  0.659163  0.024620  -0.118628
    C   C18  0.907131  0.704914  0.008133  -0.176215
    H   H1   0.048647  0.432812  0.975905  0.131232
    H   H2   0.242245  0.006747  0.026891  0.175607
    H   H3   0.069186  0.579312  0.042935  0.123897
    O   O1   0.403156  0.400890  0.083882  -0.702444
    O   O2   0.391341  0.402581  0.911616  -0.694080
    C   C19  0.346274  0.369735  0.996841  0.930629
    O   O3   0.379053  0.615271  0.916093  -0.726882
    O   O4   0.400289  0.613575  0.088491  -0.713644
    C   C20  0.335612  0.649584  0.003602  0.920369
    O   O5   0.718454  0.606865  0.917898  -0.769973
    O   O6   0.729309  0.605643  0.090288  -0.750492
    C   C21  0.775460  0.638148  0.005335  1.008661
    O   O7   0.742247  0.392613  0.085143  -0.698290
    O   O8   0.720034  0.393754  0.913102  -0.671750
    C   C22  0.784147  0.357313  0.997538  0.817827
    Zn  Zn1  0.550500  0.506713  0.889368  1.022698
    Zn  Zn2  0.570770  0.501085  0.112253  1.039008
    C   C23  0.577104  0.588666  0.294846  0.354626
    N   N1   0.580736  0.499595  0.243252  -0.119766
    C   C24  0.580752  0.409742  0.290932  0.353377
    C   C25  0.574407  0.407099  0.393193  -0.360147
    C   C26  0.567000  0.497602  0.448746  0.205381
    C   C27  0.570712  0.589308  0.398075  -0.249812
    C   C28  0.548409  0.410833  0.608206  -0.256122
    C   C29  0.556155  0.499143  0.552660  0.026667
    C   C30  0.552993  0.591863  0.603617  0.186564
    C   C31  0.558579  0.682200  0.552492  -0.394594
    C   C32  0.566441  0.681370  0.450416  0.413891
    C   C33  0.541593  0.416636  0.710342  0.283326
    N   N2   0.540727  0.507702  0.758347  0.024995
    C   C34  0.545935  0.594876  0.706503  -0.151581
    H   H4   0.547269  0.667469  0.745924  0.197445
    H   H5   0.556208  0.754610  0.592344  0.194374
    H   H6   0.574832  0.332239  0.425487  0.195762
    H   H7   0.548435  0.335182  0.576165  0.170816
    F   F1   0.607815  0.804774  0.980580  -0.090928
    F   F2   0.570725  0.772115  0.402869  -0.191703
    F   F3   0.575785  0.678010  0.244312  -0.079735
    F   F4   0.540004  0.328508  0.762502  -0.133395
    F   F5   0.571443  0.005959  0.966022  -0.124903
    F   F6   0.380434  0.157516  0.020815  -0.161504
    F   F7   0.678193  0.174001  0.978501  -0.125986
    F   F8   0.296551  0.859276  0.956656  -0.199443
    F   F9   0.584122  0.320711  0.238092  -0.128742
