# Generated by REPEAT Assigner based on pymatgen
data_DB0-m3_o21_o28_f0_pcu.sym.96
_audit_creation_date              2022-05-24
_audit_creation_method            REPEAT_Assigner
_cell_length_a                    12.957046
_cell_length_b                    14.112134
_cell_length_c                    23.450784
_cell_angle_alpha                 90.017994
_cell_angle_beta                  93.529228
_cell_angle_gamma                 88.911257
_cell_volume                      4279.106027
_symmetry_space_group_name_H-M    P1
_symmetry_Int_Tables_number       1
loop_
    _symmetry_equiv_pos_site_id
    _symmetry_equiv_pos_as_xyz
    1  x,y,z
loop_
    _atom_site_type_symbol
    _atom_site_label
    _atom_site_fract_x
    _atom_site_fract_y
    _atom_site_fract_z
    _atom_type_partial_charge
    O   O1   0.397025  0.636496  0.495143  -0.702447
    O   O2   0.599118  0.364029  0.505604  -0.703882
    O   O3   0.575159  0.645871  0.501053  -0.695322
    O   O4   0.420987  0.354600  0.499697  -0.690198
    C   C1   0.482455  0.685126  0.497369  0.933303
    C   C2   0.513744  0.315376  0.503386  0.937765
    O   O5   0.408910  0.498715  0.582433  -0.635805
    O   O6   0.587269  0.501792  0.418454  -0.635550
    O   O7   0.586825  0.508033  0.588314  -0.627745
    O   O8   0.409299  0.492467  0.412572  -0.634789
    C   C3   0.497883  0.504307  0.612086  0.641606
    C   C4   0.498266  0.496198  0.388806  0.659586
    Zn  Zn1  0.380711  0.494019  0.496542  1.100787
    Zn  Zn2  0.615439  0.506484  0.504348  1.097483
    C   C5   0.540135  0.421272  0.119809  0.332168
    C   C6   0.455924  0.579218  0.881078  0.335023
    N   N1   0.496774  0.494525  0.147136  -0.087374
    N   N2   0.499302  0.505971  0.853753  -0.105563
    C   C7   0.453641  0.568741  0.118011  0.375981
    C   C8   0.542405  0.431743  0.882877  0.428126
    C   C9   0.454240  0.571818  0.059232  0.016411
    C   C10  0.541783  0.428656  0.941655  -0.044839
    C   C11  0.497549  0.498019  0.029983  -0.029012
    C   C12  0.498468  0.502454  0.970903  0.030942
    C   C13  0.539500  0.420198  0.060100  -0.017195
    C   C14  0.456502  0.580269  0.940785  -0.051361
    C   C15  0.413122  0.649641  0.029831  -0.152395
    C   C16  0.582851  0.350810  0.971054  -0.111600
    C   C17  0.415006  0.655536  0.971367  0.076034
    C   C18  0.580931  0.344901  0.029517  0.051266
    O   O9   0.583838  0.350223  0.151434  -0.410545
    O   O10  0.412286  0.650296  0.849451  -0.398241
    O   O11  0.412812  0.641426  0.146665  -0.449081
    O   O12  0.583234  0.359057  0.854224  -0.463059
    H   H1   0.380824  0.708977  0.052276  0.125180
    H   H2   0.615098  0.291454  0.948605  0.109046
    C   C19  0.406515  0.502480  0.760294  -0.172967
    C   C20  0.405528  0.490213  0.234684  -0.178780
    H   H3   0.334237  0.498672  0.780807  0.131142
    H   H4   0.332956  0.486587  0.209513  0.132071
    C   C21  0.406058  0.502009  0.701473  -0.091001
    C   C22  0.405749  0.490494  0.293485  -0.074940
    H   H5   0.332829  0.498375  0.676987  0.112838
    H   H6   0.332721  0.487529  0.313245  0.111730
    C   C23  0.498066  0.505708  0.674659  0.009279
    C   C24  0.498073  0.494799  0.326232  -0.018610
    C   C25  0.590381  0.510007  0.707414  -0.107809
    C   C26  0.590072  0.498506  0.299409  -0.078868
    H   H7   0.663415  0.512965  0.687659  0.117287
    H   H8   0.663307  0.502144  0.323888  0.109425
    C   C27  0.590584  0.510286  0.766215  -0.148850
    C   C28  0.589595  0.498035  0.240587  -0.180616
    H   H9   0.663150  0.513903  0.791393  0.126516
    H   H10  0.661866  0.501847  0.220067  0.130499
    C   C29  0.498735  0.506586  0.792883  0.178664
    C   C30  0.497366  0.493920  0.208007  0.195109
    C   C31  0.522452  0.213856  0.503615  -0.299311
    C   C32  0.474379  0.786486  0.493374  -0.301917
    C   C33  0.541979  0.026892  0.501562  0.054565
    C   C34  0.462943  0.973067  0.482260  0.008006
    C   C35  0.468871  0.871553  0.488906  0.027529
    C   C36  0.530590  0.128632  0.503019  0.007090
    N   N3   0.226501  0.485679  0.491314  -0.154774
    N   N4   0.769649  0.514827  0.509590  -0.147712
    C   C37  0.026519  0.473672  0.483800  -0.067853
    C   C38  0.969631  0.526845  0.517105  -0.030008
    C   C39  0.858816  0.520133  0.512908  0.184744
    C   C40  0.137333  0.480379  0.487997  0.205787
    H   H11  0.006766  0.575291  0.547440  0.188162
    H   H12  0.989377  0.425229  0.453465  0.199607
    C   C41  0.375822  0.744557  0.945424  0.187014
    C   C42  0.271225  0.765759  0.943205  -0.142926
    C   C43  0.234487  0.851104  0.920778  0.068262
    Cl  Cl1  0.101621  0.877331  0.917358  -0.099218
    C   C44  0.302357  0.915946  0.901246  -0.096833
    C   C45  0.407072  0.895714  0.904470  -0.102705
    C   C46  0.443880  0.810376  0.926865  -0.205966
    H   H13  0.217900  0.715248  0.958764  0.091407
    H   H14  0.273531  0.982896  0.883750  0.105383
    H   H15  0.460362  0.946896  0.889619  0.130017
    H   H16  0.526076  0.794955  0.929814  0.120155
    C   C47  0.619907  0.255801  0.055449  0.171051
    C   C48  0.551695  0.190193  0.074094  -0.131826
    C   C49  0.588279  0.104769  0.096468  0.062813
    Cl  Cl2  0.501757  0.022133  0.120627  -0.096447
    C   C50  0.692929  0.084239  0.099586  -0.084449
    C   C51  0.760947  0.148867  0.079966  -0.098876
    C   C52  0.724432  0.234298  0.057559  -0.184985
    H   H17  0.469545  0.205844  0.071225  0.090814
    H   H18  0.721587  0.017222  0.117064  0.097428
    H   H19  0.842917  0.132440  0.081991  0.116569
    H   H20  0.777875  0.284635  0.041931  0.112591
    C   C53  0.365737  0.015463  0.457528  0.127442
    C   C54  0.272878  0.988241  0.477786  -0.164850
    C   C55  0.180768  0.024659  0.453693  0.116913
    Cl  Cl3  0.063531  0.991055  0.480295  -0.145955
    C   C56  0.180848  0.087243  0.408611  -0.125508
    C   C57  0.273075  0.112829  0.387294  -0.100378
    C   C58  0.365272  0.076610  0.411382  -0.115372
    H   H21  0.271828  0.939288  0.513179  0.124610
    H   H22  0.108593  0.115564  0.389656  0.108554
    H   H23  0.273115  0.160842  0.351389  0.112974
    H   H24  0.436939  0.095382  0.393377  0.105512
    C   C59  0.639452  0.984289  0.525770  0.079860
    C   C60  0.678713  0.012726  0.579027  -0.073879
    C   C61  0.771860  0.976000  0.601524  -0.034994
    Cl  Cl4  0.820143  0.011123  0.669489  -0.082165
    C   C62  0.827118  0.911891  0.570527  0.000196
    C   C63  0.789594  0.885049  0.516802  -0.039352
    C   C64  0.696379  0.921560  0.494274  -0.173056
    H   H25  0.635995  0.062882  0.603770  0.112126
    H   H26  0.900279  0.883353  0.588119  0.069654
    H   H27  0.833636  0.835818  0.492128  0.086402
    H   H28  0.668923  0.901711  0.451552  0.121256
