# Generated by REPEAT Assigner based on pymatgen
data_DB0-m29_o96_o450_f0_pts.sym.68
_audit_creation_date              2022-05-24
_audit_creation_method            REPEAT_Assigner
_cell_length_a                    17.157288
_cell_length_b                    14.043699
_cell_length_c                    19.222576
_cell_angle_alpha                 84.777923
_cell_angle_beta                  90.597450
_cell_angle_gamma                 116.787992
_cell_volume                      4115.039852
_symmetry_space_group_name_H-M    P1
_symmetry_Int_Tables_number       1
loop_
    _symmetry_equiv_pos_site_id
    _symmetry_equiv_pos_as_xyz
    1  x,y,z
loop_
    _atom_site_type_symbol
    _atom_site_label
    _atom_site_fract_x
    _atom_site_fract_y
    _atom_site_fract_z
    _atom_type_partial_charge
    C   C1   0.231804  0.038012  0.108342  0.054960
    C   C2   0.192582  0.068149  0.156940  0.001922
    C   C3   0.117703  0.065699  0.128617  0.379025
    N   N1   0.109541  0.034208  0.063548  -0.493705
    C   C4   0.179327  0.016829  0.050964  0.329687
    C   C5   0.059978  0.085788  0.162703  -0.377928
    C   C6   0.972486  0.066333  0.139010  0.164419
    C   C7   0.905734  0.056349  0.182890  0.027367
    C   C8   0.834504  0.036399  0.143763  0.058308
    C   C9   0.858744  0.033125  0.075674  0.150341
    N   N2   0.943962  0.053876  0.073218  -0.105844
    C   C10  0.800691  0.010478  0.015536  -0.374927
    C   C11  0.816141  0.977738  0.956138  0.352051
    C   C12  0.763348  0.955476  0.898824  0.034905
    C   C13  0.803149  0.926019  0.850189  0.025567
    C   C14  0.878658  0.930088  0.878232  0.364166
    N   N3   0.886717  0.961964  0.943204  -0.486736
    C   C15  0.936826  0.910796  0.843939  -0.391882
    C   C16  0.024530  0.930571  0.867389  0.217481
    C   C17  0.091554  0.941193  0.823453  0.055883
    C   C18  0.162945  0.961361  0.862548  -0.180204
    C   C19  0.138033  0.963267  0.930926  0.275118
    N   N4   0.052762  0.942210  0.933229  -0.166737
    C   C20  0.194394  0.982987  0.992060  -0.372751
    H   H1   0.075162  0.110178  0.214733  0.164226
    H   H2   0.740672  0.016981  0.021349  0.185401
    H   H3   0.921634  0.886209  0.791961  0.162249
    H   H4   0.252514  0.972125  0.988291  0.160376
    H   H5   0.982600  0.065444  0.028997  0.224820
    H   H6   0.013837  0.929610  0.977472  0.234210
    C   C21  0.093431  0.935738  0.752674  -0.164572
    C   C22  0.169809  0.948402  0.721384  -0.055897
    C   C23  0.243758  0.967618  0.760045  -0.154117
    C   C24  0.241360  0.977109  0.831808  0.363455
    C   C25  0.307934  0.029787  0.121875  -0.242698
    C   C26  0.340124  0.047515  0.188432  0.109814
    C   C27  0.297550  0.074604  0.238396  -0.046766
    C   C28  0.224196  0.087292  0.222722  -0.225279
    C   C29  0.903841  0.062179  0.253608  -0.130441
    C   C30  0.827298  0.049368  0.284604  -0.115578
    C   C31  0.753959  0.031216  0.245398  0.057667
    C   C32  0.756859  0.023648  0.173670  -0.177043
    C   C33  0.687013  0.963231  0.884947  -0.251001
    C   C34  0.655024  0.945097  0.818227  0.093156
    C   C35  0.697736  0.917508  0.768676  -0.031061
    C   C36  0.771438  0.905848  0.784536  -0.231646
    H   H7   0.037165  0.920788  0.721431  0.142218
    H   H8   0.339624  0.005676  0.083755  0.136753
    H   H9   0.322131  0.087184  0.290439  0.140597
    H   H10  0.192523  0.108540  0.262479  0.147083
    H   H11  0.959860  0.076615  0.285056  0.134805
    H   H12  0.700442  0.008710  0.142530  0.172231
    H   H13  0.655365  0.987756  0.922850  0.139885
    H   H14  0.673171  0.903990  0.716682  0.137003
    H   H15  0.803316  0.884655  0.744915  0.146910
    H   H16  0.170169  0.941426  0.665914  0.129209
    H   H17  0.826240  0.055162  0.340193  0.131365
    O   O1   0.607201  0.018152  0.248962  -0.578833
    C   C37  0.675775  0.022035  0.282118  0.604503
    O   O2   0.504582  0.797464  0.337871  -0.534436
    O   O3   0.675691  0.022235  0.350356  -0.519192
    O   O4   0.482878  0.911646  0.403054  -0.599064
    C   C38  0.480947  0.818223  0.397086  0.616595
    Fe  Fe1  0.525097  0.018615  0.320345  1.499243
    O   O5   0.412186  0.988284  0.273794  -0.680232
    O   O6   0.490902  0.085175  0.174941  -0.508886
    C   C39  0.416185  0.033328  0.210236  0.637939
    O   O7   0.595814  0.161472  0.356697  -0.629591
    O   O8   0.491530  0.204618  0.312215  -0.517004
    C   C40  0.554436  0.220870  0.355851  0.636465
    C   C41  0.554136  0.271206  0.419242  0.116956
    C   C42  0.536931  0.358332  0.417249  -0.364030
    H   H18  0.533893  0.398959  0.367521  0.145758
    C   C43  0.522135  0.393321  0.478507  0.437705
    C   C44  0.519533  0.336114  0.542350  -0.210904
    H   H19  0.503285  0.356958  0.591004  0.107349
    C   C45  0.533551  0.246338  0.543922  0.078082
    C   C46  0.554474  0.217451  0.482671  -0.209836
    N   N5   0.505324  0.483643  0.473615  -0.170222
    N   N6   0.491278  0.507225  0.531452  -0.162431
    C   C47  0.458927  0.632216  0.587587  -0.357915
    H   H20  0.461508  0.591419  0.637379  0.146177
    C   C48  0.441484  0.719194  0.585384  0.113060
    C   C49  0.441683  0.773121  0.521888  -0.195793
    C   C50  0.463342  0.744567  0.460811  0.034726
    C   C51  0.477584  0.654955  0.462563  -0.190006
    H   H21  0.494371  0.634391  0.414014  0.099736
    C   C52  0.474438  0.597535  0.526444  0.428778
    H   H22  0.563295  0.145997  0.483286  0.163352
    H   H23  0.432641  0.844434  0.521121  0.161961
    O   O9   0.582727  0.000755  0.730926  -0.689028
    O   O10  0.505023  0.911336  0.831894  -0.514201
    C   C53  0.579146  0.959262  0.795520  0.656580
    O   O11  0.399105  0.828887  0.647307  -0.649747
    O   O12  0.502613  0.785237  0.692929  -0.520589
    C   C54  0.440282  0.769205  0.648721  0.654298
    O   O13  0.493340  0.193879  0.667037  -0.493402
    O   O14  0.387925  0.972105  0.755231  -0.591011
    C   C55  0.321002  0.974406  0.722567  0.698104
    O   O15  0.513164  0.078762  0.601447  -0.576019
    C   C56  0.516139  0.172684  0.607632  0.550479
    O   O16  0.320923  0.976450  0.654191  -0.523162
    Fe  Fe2  0.470162  0.971494  0.683972  1.484600
    O   O17  0.312755  0.001172  0.870031  -0.329246
    C   C57  0.377573  0.102288  0.866881  0.771941
    O   O18  0.370957  0.174067  0.830703  -0.525421
    C   C58  0.456933  0.126464  0.908412  -0.411035
    H   H24  0.450767  0.051725  0.938061  0.118490
    H   H25  0.463632  0.185642  0.945423  0.112931
    H   H26  0.515420  0.159889  0.872690  0.147607
