# generated using pymatgen
data_ZnH12C17NO4
_symmetry_space_group_name_H-M   'P 1'
_cell_length_a   13.10286700
_cell_length_b   13.45257900
_cell_length_c   8.56146100
_cell_angle_alpha   90.00000000
_cell_angle_beta   93.37952600
_cell_angle_gamma   90.00000000
_symmetry_Int_Tables_number   1
_chemical_formula_structural   ZnH12C17NO4
_chemical_formula_sum   'Zn2 H24 C34 N2 O8'
_cell_volume   1506.48167121
_cell_formula_units_Z   2
loop_
 _symmetry_equiv_pos_site_id
 _symmetry_equiv_pos_as_xyz
  1  'x, y, z'
loop_
 _atom_site_type_symbol
 _atom_site_label
 _atom_site_symmetry_multiplicity
 _atom_site_fract_x
 _atom_site_fract_y
 _atom_site_fract_z
 _atom_site_occupancy
  Zn  Zn1  1  0.50655200  0.11216600  0.49616300  1
  Zn  Zn2  1  0.49613600  0.88750000  0.49471000  1
  H  H1  1  0.84784000  0.01830000  0.77924000  1
  H  H2  1  0.00441800  0.06345500  0.14779700  1
  H  H3  1  0.99391400  0.93728300  0.85150400  1
  H  H4  1  0.15337500  0.98075300  0.21103500  1
  H  H5  1  0.84151200  0.02289000  0.27829800  1
  H  H6  1  0.57267100  0.95842500  0.99681200  1
  H  H7  1  0.42978600  0.03462800  0.99374400  1
  H  H8  1  0.65380000  0.75684100  0.51136600  1
  H  H9  1  0.66999200  0.25089200  0.51670900  1
  H  H10  1  0.34957800  0.25145300  0.47536000  1
  H  H11  1  0.33359000  0.73967300  0.47650800  1
  H  H12  1  0.25584800  0.40175400  0.46517000  1
  H  H13  1  0.24971300  0.58293000  0.46565900  1
  H  H14  1  0.66941500  0.58093600  0.51320000  1
  H  H15  1  0.67477600  0.42839600  0.51746100  1
  H  H16  1  0.09033700  0.92907900  0.65171300  1
  H  H17  1  0.19527100  0.98907000  0.57194800  1
  H  H18  1  0.01061800  0.09033000  0.70591400  1
  H  H19  1  0.22006800  0.17437000  0.63446900  1
  H  H20  1  0.15512400  0.18460500  0.81486400  1
  H  H21  1  0.10553500  0.24868500  0.64205000  1
  H  H22  1  0.11366400  0.11299000  0.39714500  1
  H  H23  1  0.99075600  0.15987600  0.44859900  1
  H  H24  1  0.00966300  0.02747600  0.42746200  1
  C  C1  1  0.70008700  0.99286000  0.15104700  1
  C  C2  1  0.80341100  0.01242700  0.16411500  1
  C  C3  1  0.85870600  0.01335900  0.03138400  1
  C  C4  1  0.80762600  0.00821600  0.88457100  1
  C  C5  1  0.70349100  0.99153300  0.87297500  1
  C  C6  1  0.65256300  0.97652100  0.00633400  1
  C  C7  1  0.97046600  0.02276400  0.04887700  1
  C  C8  1  0.02960400  0.97960900  0.94700600  1
  C  C9  1  0.19577100  0.99514700  0.82451900  1
  C  C10  1  0.30095600  0.00736300  0.83892100  1
  C  C11  1  0.34920000  0.01983500  0.98422100  1
  C  C12  1  0.29806700  0.00752200  0.11784400  1
  C  C13  1  0.19365400  0.99217600  0.10606200  1
  C  C14  1  0.14153900  0.99037100  0.95962300  1
  C  C15  1  0.63702700  0.99560100  0.28566100  1
  C  C16  1  0.35957800  0.00428000  0.26657500  1
  C  C17  1  0.36575000  0.00420300  0.70578500  1
  C  C18  1  0.64240700  0.99518000  0.72442700  1
  C  C19  1  0.40697000  0.70272000  0.48479000  1
  C  C20  1  0.42061700  0.29233300  0.48480000  1
  C  C21  1  0.58496300  0.71244400  0.50433300  1
  C  C22  1  0.59887000  0.29178000  0.50763200  1
  C  C23  1  0.59320800  0.61056700  0.50530400  1
  C  C24  1  0.60058600  0.39429200  0.50774100  1
  C  C25  1  0.50602000  0.55201200  0.49574000  1
  C  C26  1  0.50964200  0.44795100  0.49624300  1
  C  C27  1  0.41216200  0.59991200  0.48499200  1
  C  C28  1  0.41912700  0.39491300  0.48496500  1
  C  C29  1  0.32640700  0.44356700  0.47387900  1
  C  C30  1  0.32290600  0.54563600  0.47418400  1
  C  C31  1  0.14091400  0.99481100  0.66549900  1
  C  C32  1  0.07984300  0.09032400  0.63818800  1
  C  C33  1  0.14458900  0.18009000  0.68557400  1
  C  C34  1  0.04639000  0.09818800  0.46634000  1
  N  N1  1  0.49310900  0.75719700  0.49455700  1
  N  N2  1  0.50966000  0.24245800  0.49635800  1
  O  O1  1  0.59949500  0.91105700  0.33391000  1
  O  O2  1  0.60957000  0.08335500  0.33685500  1
  O  O3  1  0.39882300  0.08755100  0.32158800  1
  O  O4  1  0.38882000  0.91732700  0.32162600  1
  O  O5  1  0.40259500  0.08888200  0.65660000  1
  O  O6  1  0.39263400  0.91616100  0.65393900  1
  O  O7  1  0.60312300  0.91217200  0.66964700  1
  O  O8  1  0.61304500  0.08215100  0.66982700  1
