# generated using pymatgen
data_Zn3H24C48(SO3)4
_symmetry_space_group_name_H-M   'P 1'
_cell_length_a   30.13246100
_cell_length_b   30.13263500
_cell_length_c   29.06256700
_cell_angle_alpha   90.00000000
_cell_angle_beta   90.00000000
_cell_angle_gamma   90.00000000
_symmetry_Int_Tables_number   1
_chemical_formula_structural   Zn3H24C48(SO3)4
_chemical_formula_sum   'Zn12 H96 C192 S16 O48'
_cell_volume   26387.95200706
_cell_formula_units_Z   4
loop_
 _symmetry_equiv_pos_site_id
 _symmetry_equiv_pos_as_xyz
  1  'x, y, z'
loop_
 _atom_site_type_symbol
 _atom_site_label
 _atom_site_symmetry_multiplicity
 _atom_site_fract_x
 _atom_site_fract_y
 _atom_site_fract_z
 _atom_site_occupancy
  Zn  Zn1  1  0.55031000  0.99998300  0.99992000  1
  Zn  Zn2  1  0.99999600  0.55034800  0.99999900  1
  Zn  Zn3  1  0.44964400  0.00005200  0.00004100  1
  Zn  Zn4  1  0.00007300  0.44968000  0.00005200  1
  Zn  Zn5  1  0.05032900  0.49997900  0.50009200  1
  Zn  Zn6  1  0.49996400  0.05035300  0.50004200  1
  Zn  Zn7  1  0.94966400  0.49997500  0.49995800  1
  Zn  Zn8  1  0.49995900  0.94968800  0.49992100  1
  Zn  Zn9  1  0.49992700  0.49989500  0.05206300  1
  Zn  Zn10  1  0.50012200  0.50006000  0.94793700  1
  Zn  Zn11  1  0.00009500  0.99993500  0.55206500  1
  Zn  Zn12  1  0.99991200  0.00010000  0.44794200  1
  H  H1  1  0.48517800  0.64103800  0.92905900  1
  H  H2  1  0.35865300  0.48574900  0.92706500  1
  H  H3  1  0.51160800  0.35853900  0.92663500  1
  H  H4  1  0.64104800  0.51239000  0.92861900  1
  H  H5  1  0.48839600  0.35896400  0.07159000  1
  H  H6  1  0.35893300  0.51425300  0.07101000  1
  H  H7  1  0.51486300  0.64135800  0.07274100  1
  H  H8  1  0.64142700  0.48758200  0.07328000  1
  H  H9  1  0.98856400  0.14109600  0.42843900  1
  H  H10  1  0.85899200  0.98504100  0.42909900  1
  H  H11  1  0.01471900  0.85858000  0.42725600  1
  H  H12  1  0.14136800  0.01174100  0.42657800  1
  H  H13  1  0.98497600  0.85901500  0.57092400  1
  H  H14  1  0.85857400  0.01468000  0.57279100  1
  H  H15  1  0.01169100  0.14139200  0.57340900  1
  H  H16  1  0.14108900  0.98854400  0.57153500  1
  H  H17  1  0.52401300  0.70947200  0.11221700  1
  H  H18  1  0.29097000  0.52280600  0.11092600  1
  H  H19  1  0.48098600  0.29105400  0.11184200  1
  H  H20  1  0.70959100  0.47993200  0.11306700  1
  H  H21  1  0.51876100  0.29037000  0.88677600  1
  H  H22  1  0.29054900  0.47697000  0.88747700  1
  H  H23  1  0.47626400  0.70899300  0.88920700  1
  H  H24  1  0.70897600  0.52030000  0.88849200  1
  H  H25  1  0.01908600  0.20950700  0.61329800  1
  H  H26  1  0.79041400  0.02355200  0.61227600  1
  H  H27  1  0.97578200  0.79110800  0.61077500  1
  H  H28  1  0.20905700  0.98140400  0.61175500  1
  H  H29  1  0.02362300  0.79041700  0.38778700  1
  H  H30  1  0.79108300  0.97588100  0.38924900  1
  H  H31  1  0.98144600  0.20906000  0.38820700  1
  H  H32  1  0.20948100  0.01915900  0.38668400  1
  H  H33  1  0.52517700  0.78906600  0.11306500  1
  H  H34  1  0.21135900  0.52353000  0.11221700  1
  H  H35  1  0.47985900  0.21144200  0.11317800  1
  H  H36  1  0.78920100  0.47912700  0.11396400  1
  H  H37  1  0.51947800  0.21074900  0.88588800  1
  H  H38  1  0.21093800  0.47586700  0.88659100  1
  H  H39  1  0.47546800  0.78859100  0.88790600  1
  H  H40  1  0.78857300  0.52151100  0.88720400  1
  H  H41  1  0.02019400  0.28912200  0.61420800  1
  H  H42  1  0.71081200  0.02435100  0.61313500  1
  H  H43  1  0.97462200  0.71151700  0.61207200  1
  H  H44  1  0.28867300  0.98067200  0.61306200  1
  H  H45  1  0.02442400  0.71081600  0.38693600  1
  H  H46  1  0.71149400  0.97472700  0.38795800  1
  H  H47  1  0.98071200  0.28867700  0.38689100  1
  H  H48  1  0.28909800  0.02027200  0.38576800  1
  H  H49  1  0.45840500  0.86097400  0.14226400  1
  H  H50  1  0.44266000  0.85566900  0.08260700  1
  H  H51  1  0.45015300  0.91019500  0.10714400  1
  H  H52  1  0.14485500  0.45668600  0.13985200  1
  H  H53  1  0.14221700  0.44063400  0.08003200  1
  H  H54  1  0.09148300  0.44903700  0.11180900  1
  H  H55  1  0.54676100  0.14324600  0.13881100  1
  H  H56  1  0.56078300  0.14210900  0.07840600  1
  H  H57  1  0.55311600  0.09058500  0.10902200  1
  H  H58  1  0.85739300  0.54656600  0.13992700  1
  H  H59  1  0.85792600  0.56101800  0.07962700  1
  H  H60  1  0.90975900  0.55335000  0.10968700  1
  H  H61  1  0.45223300  0.14434700  0.86113200  1
  H  H62  1  0.43799300  0.14115800  0.92142300  1
  H  H63  1  0.44573700  0.09072000  0.88896400  1
  H  H64  1  0.14208600  0.54236300  0.85864900  1
  H  H65  1  0.14275000  0.55818300  0.91857000  1
  H  H66  1  0.09033000  0.55010900  0.88975400  1
  H  H67  1  0.54255400  0.85720000  0.85916200  1
  H  H68  1  0.55860200  0.85668800  0.91901500  1
  H  H69  1  0.55051700  0.90904100  0.89005600  1
  H  H70  1  0.85901100  0.45441100  0.86029500  1
  H  H71  1  0.85672300  0.44019000  0.92058600  1
  H  H72  1  0.90992000  0.44765900  0.89310900  1
  H  H73  1  0.95324500  0.35720600  0.63939600  1
  H  H74  1  0.93923300  0.35826500  0.57898500  1
  H  H75  1  0.94685100  0.40982600  0.60954200  1
  H  H76  1  0.64211800  0.95725600  0.64145400  1
  H  H77  1  0.64289300  0.94123600  0.58159500  1
  H  H78  1  0.59041400  0.94929200  0.61031500  1
  H  H79  1  0.04141200  0.63959000  0.64173000  1
  H  H80  1  0.05715800  0.64478400  0.58206500  1
  H  H81  1  0.04966500  0.59030100  0.60671300  1
  H  H82  1  0.35509900  0.04785900  0.63818800  1
  H  H83  1  0.35849800  0.06209500  0.57791000  1
  H  H84  1  0.40882500  0.05429800  0.61054500  1
  H  H85  1  0.95737300  0.64224400  0.35859300  1
  H  H86  1  0.94127900  0.64283800  0.41843400  1
  H  H87  1  0.94939200  0.59044800  0.38956200  1
  H  H88  1  0.63956200  0.04157400  0.35835000  1
  H  H89  1  0.64484300  0.05725700  0.41802400  1
  H  H90  1  0.59032300  0.04983500  0.39344100  1
  H  H91  1  0.04793700  0.35518000  0.36178400  1
  H  H92  1  0.06211700  0.35846900  0.42208200  1
  H  H93  1  0.05435800  0.40885500  0.38953600  1
  H  H94  1  0.35723800  0.95336500  0.36052500  1
  H  H95  1  0.35828400  0.93931500  0.42092600  1
  H  H96  1  0.40985300  0.94698200  0.39039400  1
  C  C1  1  0.50077200  0.91330000  0.00011000  1
  C  C2  1  0.08674400  0.49922600  0.99975700  1
  C  C3  1  0.49918100  0.08672100  0.99985200  1
  C  C4  1  0.91332400  0.50080300  0.00029500  1
  C  C5  1  0.00085900  0.41327500  0.50021700  1
  C  C6  1  0.58667900  0.99915700  0.50022400  1
  C  C7  1  0.99913300  0.58669400  0.49983200  1
  C  C8  1  0.41325900  0.00088400  0.49974000  1
  C  C9  1  0.50096000  0.00021500  0.08992300  1
  C  C10  1  0.00021600  0.49919600  0.08996600  1
  C  C11  1  0.49899200  0.99983100  0.91004200  1
  C  C12  1  0.99984100  0.50083000  0.91008200  1
  C  C13  1  0.99900000  0.50007800  0.58996700  1
  C  C14  1  0.49979600  0.00080300  0.58992300  1
  C  C15  1  0.00099500  0.49986700  0.41008600  1
  C  C16  1  0.50011500  0.99924000  0.41003800  1
  C  C17  1  0.50081800  0.00021300  0.13925000  1
  C  C18  1  0.00030300  0.49940300  0.13929400  1
  C  C19  1  0.49913400  0.99983200  0.86071400  1
  C  C20  1  0.99972300  0.50062100  0.86075600  1
  C  C21  1  0.99913500  0.50012800  0.63929400  1
  C  C22  1  0.49970000  0.00055600  0.63925000  1
  C  C23  1  0.00086100  0.49982800  0.36075800  1
  C  C24  1  0.50021500  0.99948800  0.36071100  1
  C  C25  1  0.50069700  0.00015200  0.18069100  1
  C  C26  1  0.00039200  0.49953800  0.18073500  1
  C  C27  1  0.49925200  0.99989000  0.81927200  1
  C  C28  1  0.99962000  0.50047900  0.81931500  1
  C  C29  1  0.99924900  0.50018100  0.68073500  1
  C  C30  1  0.49961100  0.00036100  0.68069200  1
  C  C31  1  0.00074700  0.49979000  0.31931700  1
  C  C32  1  0.50031400  0.99968100  0.31927000  1
  C  C33  1  0.50055700  0.00002700  0.22925500  1
  C  C34  1  0.00050900  0.49965700  0.22930000  1
  C  C35  1  0.49938600  0.00001300  0.77070800  1
  C  C36  1  0.99949400  0.50034800  0.77075100  1
  C  C37  1  0.99938200  0.50026000  0.72929900  1
  C  C38  1  0.49949400  0.00015700  0.72925600  1
  C  C39  1  0.00061600  0.49973000  0.27075200  1
  C  C40  1  0.50044200  0.99988300  0.27070700  1
  C  C41  1  0.49191300  0.65857600  0.96071600  1
  C  C42  1  0.34125100  0.49216800  0.95887300  1
  C  C43  1  0.50629400  0.34116100  0.95867600  1
  C  C44  1  0.65860900  0.50677300  0.96049700  1
  C  C45  1  0.49365300  0.34140000  0.03964800  1
  C  C46  1  0.34140800  0.50778600  0.03928500  1
  C  C47  1  0.50817800  0.65875500  0.04098800  1
  C  C48  1  0.65882200  0.49325600  0.04131500  1
  C  C49  1  0.99386400  0.15863200  0.46039000  1
  C  C50  1  0.84143300  0.99170400  0.46076000  1
  C  C51  1  0.00795900  0.84120800  0.45900600  1
  C  C52  1  0.15877900  0.00649400  0.45861200  1
  C  C53  1  0.99166300  0.84145100  0.53927100  1
  C  C54  1  0.84119800  0.00794400  0.54103700  1
  C  C55  1  0.00645900  0.15879700  0.54137000  1
  C  C56  1  0.15862200  0.99386000  0.53958500  1
  C  C57  1  0.50001000  0.63553900  0.00091600  1
  C  C58  1  0.36445800  0.50000900  0.99902400  1
  C  C59  1  0.50001400  0.36440500  0.99909600  1
  C  C60  1  0.63559300  0.49997400  0.00096400  1
  C  C61  1  0.00011700  0.13559000  0.50093900  1
  C  C62  1  0.86444200  0.99987600  0.50095900  1
  C  C63  1  0.99986300  0.86445600  0.49907500  1
  C  C64  1  0.13557600  0.00013100  0.49904300  1
  C  C65  1  0.50854600  0.70453200  0.04071000  1
  C  C66  1  0.29562600  0.50796300  0.03925500  1
  C  C67  1  0.49325800  0.29562200  0.03964300  1
  C  C68  1  0.70460400  0.49303800  0.04105800  1
  C  C69  1  0.50649300  0.29538000  0.95894400  1
  C  C70  1  0.29547300  0.49181600  0.95912900  1
  C  C71  1  0.49172300  0.70435800  0.96073700  1
  C  C72  1  0.70438700  0.50718700  0.96052800  1
  C  C73  1  0.00685500  0.20457500  0.54111700  1
  C  C74  1  0.79541800  0.00811900  0.54076600  1
  C  C75  1  0.99127900  0.79567300  0.53924800  1
  C  C76  1  0.20440300  0.99366400  0.53956000  1
  C  C77  1  0.00813400  0.79542800  0.45928300  1
  C  C78  1  0.79565500  0.99132300  0.46078800  1
  C  C79  1  0.99366800  0.20441300  0.46040900  1
  C  C80  1  0.20455600  0.00689100  0.45885900  1
  C  C81  1  0.50018800  0.72750500  0.00065700  1
  C  C82  1  0.27249000  0.49983500  0.99925100  1
  C  C83  1  0.49981700  0.27244300  0.99935800  1
  C  C84  1  0.72755500  0.50017100  0.00073700  1
  C  C85  1  0.00031700  0.22755200  0.50070400  1
  C  C86  1  0.77247600  0.99966600  0.50071600  1
  C  C87  1  0.99965100  0.77249000  0.49932900  1
  C  C88  1  0.22753800  0.00033400  0.49926700  1
  C  C89  1  0.51736800  0.72728100  0.08068200  1
  C  C90  1  0.27303400  0.51633800  0.07942900  1
  C  C91  1  0.48621600  0.27308000  0.08012200  1
  C  C92  1  0.72738200  0.48561900  0.08132100  1
  C  C93  1  0.51343300  0.27259000  0.91859600  1
  C  C94  1  0.27273200  0.48334800  0.91906600  1
  C  C95  1  0.48299600  0.72693800  0.92063800  1
  C  C96  1  0.72694000  0.51470900  0.92015100  1
  C  C97  1  0.01387100  0.22732100  0.58147800  1
  C  C98  1  0.77263100  0.01682900  0.58074300  1
  C  C99  1  0.98243900  0.77313300  0.57934400  1
  C  C100  1  0.22699400  0.98672500  0.58002900  1
  C  C101  1  0.01687600  0.77263700  0.41931600  1
  C  C102  1  0.77311200  0.98251500  0.42068700  1
  C  C103  1  0.98675000  0.22700000  0.41993400  1
  C  C104  1  0.22729800  0.01392900  0.41849900  1
  C  C105  1  0.51796400  0.77289700  0.08084200  1
  C  C106  1  0.22741400  0.51668200  0.07984600  1
  C  C107  1  0.48561700  0.22746400  0.08056100  1
  C  C108  1  0.77300300  0.48521600  0.08150800  1
  C  C109  1  0.51379300  0.22696800  0.91841200  1
  C  C110  1  0.22711400  0.48278200  0.91888200  1
  C  C111  1  0.48261600  0.77255700  0.92021800  1
  C  C112  1  0.77255500  0.51534900  0.91974200  1
  C  C113  1  0.01445700  0.27293900  0.58167400  1
  C  C114  1  0.72701000  0.01721200  0.58091000  1
  C  C115  1  0.98184600  0.72751800  0.57976100  1
  C  C116  1  0.27261400  0.98635500  0.58045300  1
  C  C117  1  0.01725900  0.72701700  0.41915400  1
  C  C118  1  0.72749600  0.98192600  0.42027300  1
  C  C119  1  0.98637900  0.27262000  0.41950600  1
  C  C120  1  0.27291700  0.01451900  0.41830000  1
  C  C121  1  0.50938200  0.79639200  0.04077600  1
  C  C122  1  0.20376100  0.50829600  0.03984000  1
  C  C123  1  0.49242100  0.20376700  0.04026300  1
  C  C124  1  0.79647300  0.49263000  0.04117700  1
  C  C125  1  0.50683600  0.20351600  0.95883700  1
  C  C126  1  0.20361300  0.49102400  0.95901700  1
  C  C127  1  0.49133300  0.79622600  0.96014200  1
  C  C128  1  0.79624400  0.50808400  0.95996200  1
  C  C129  1  0.00766600  0.29643200  0.54124500  1
  C  C130  1  0.70354800  0.00851600  0.54085000  1
  C  C131  1  0.99044800  0.70381300  0.53983400  1
  C  C132  1  0.29626400  0.99330000  0.54015000  1
  C  C133  1  0.00853000  0.70355900  0.45920800  1
  C  C134  1  0.70379500  0.99050000  0.46020900  1
  C  C135  1  0.99330200  0.29627500  0.45980900  1
  C  C136  1  0.29641400  0.00770800  0.45872200  1
  C  C137  1  0.50030200  0.77344400  0.00052400  1
  C  C138  1  0.22655300  0.49971800  0.99936900  1
  C  C139  1  0.49969200  0.22650600  0.99948600  1
  C  C140  1  0.77349400  0.50029500  0.00062600  1
  C  C141  1  0.00043000  0.27348900  0.50058500  1
  C  C142  1  0.72653600  0.99955800  0.50059300  1
  C  C143  1  0.99954100  0.72655000  0.49945600  1
  C  C144  1  0.27347500  0.00044900  0.49938000  1
  C  C145  1  0.50956700  0.84245600  0.04042700  1
  C  C146  1  0.15769800  0.50820800  0.03973800  1
  C  C147  1  0.49219000  0.15770700  0.04015900  1
  C  C148  1  0.84253800  0.49264800  0.04083500  1
  C  C149  1  0.50678300  0.15745600  0.95919500  1
  C  C150  1  0.15755200  0.49084900  0.95936000  1
  C  C151  1  0.49138900  0.84229400  0.96022900  1
  C  C152  1  0.84230700  0.50834200  0.96008000  1
  C  C153  1  0.00787400  0.34249100  0.54089600  1
  C  C154  1  0.65748100  0.00847500  0.54050500  1
  C  C155  1  0.99027500  0.65774700  0.53974700  1
  C  C156  1  0.34232600  0.99333100  0.54003300  1
  C  C157  1  0.00848800  0.65749300  0.45955800  1
  C  C158  1  0.65772900  0.99033300  0.46029800  1
  C  C159  1  0.99333000  0.34233700  0.45992100  1
  C  C160  1  0.34247400  0.00792100  0.45906800  1
  C  C161  1  0.50055100  0.86492900  0.00026100  1
  C  C162  1  0.13509500  0.49945100  0.99961000  1
  C  C163  1  0.49940500  0.13506100  0.99973800  1
  C  C164  1  0.86496400  0.50057600  0.00040500  1
  C  C165  1  0.00067200  0.36493400  0.50034900  1
  C  C166  1  0.63505100  0.99934500  0.50034000  1
  C  C167  1  0.99932200  0.63506600  0.49971600  1
  C  C168  1  0.36491900  0.00069700  0.49960800  1
  C  C169  1  0.41308600  0.50002300  0.99891500  1
  C  C170  1  0.50005100  0.41302900  0.99895900  1
  C  C171  1  0.58697200  0.49994100  0.00108300  1
  C  C172  1  0.49999100  0.58691400  0.00104200  1
  C  C173  1  0.91306700  0.99996700  0.50108100  1
  C  C174  1  0.99995400  0.91308100  0.49894500  1
  C  C175  1  0.08695200  0.00005800  0.49892700  1
  C  C176  1  0.00004400  0.08696500  0.50106200  1
  C  C177  1  0.46233600  0.87548500  0.10744400  1
  C  C178  1  0.12610300  0.46070100  0.10729300  1
  C  C179  1  0.54153800  0.12537700  0.10590400  1
  C  C180  1  0.87498800  0.54165000  0.10681200  1
  C  C181  1  0.45732600  0.12537700  0.89339200  1
  C  C182  1  0.12508600  0.53828900  0.89221900  1
  C  C183  1  0.53864300  0.87431300  0.89269000  1
  C  C184  1  0.87507900  0.45942600  0.89421900  1
  C  C185  1  0.95846000  0.37504100  0.60646800  1
  C  C186  1  0.62514900  0.96117800  0.60784900  1
  C  C187  1  0.03748300  0.62501200  0.60694100  1
  C  C188  1  0.37417000  0.04274700  0.60599500  1
  C  C189  1  0.96126100  0.62518000  0.39215100  1
  C  C190  1  0.62502300  0.03762300  0.39315500  1
  C  C191  1  0.04279700  0.37419400  0.39400800  1
  C  C192  1  0.37505900  0.95856800  0.39346300  1
  S  S1  1  0.52050700  0.87437000  0.09122800  1
  S  S2  1  0.12590200  0.51878100  0.09069400  1
  S  S3  1  0.48293800  0.12595100  0.09141400  1
  S  S4  1  0.87453100  0.48315100  0.09189200  1
  S  S5  1  0.51587200  0.12538400  0.90811900  1
  S  S6  1  0.12557000  0.48014200  0.90856100  1
  S  S7  1  0.48055700  0.87400300  0.90926500  1
  S  S8  1  0.87400800  0.51798400  0.90885700  1
  S  S9  1  0.01706300  0.37450300  0.59199100  1
  S  S10  1  0.62551500  0.01927100  0.59130400  1
  S  S11  1  0.97931200  0.62609700  0.59072100  1
  S  S12  1  0.37414900  0.98420100  0.59126900  1
  S  S13  1  0.01933400  0.62552100  0.40877400  1
  S  S14  1  0.62607700  0.97943500  0.40931100  1
  S  S15  1  0.98423700  0.37415400  0.40867500  1
  S  S16  1  0.37448300  0.01716100  0.40798100  1
  O  O1  1  0.53920700  0.93370400  0.00124700  1
  O  O2  1  0.06597900  0.53749400  0.99883700  1
  O  O3  1  0.46073500  0.06633600  0.99891000  1
  O  O4  1  0.93409400  0.46254100  0.00141300  1
  O  O5  1  0.53745500  0.06597000  0.00082000  1
  O  O6  1  0.06636000  0.46078100  0.00084600  1
  O  O7  1  0.46250900  0.93406900  0.99895200  1
  O  O8  1  0.93371200  0.53924000  0.99900100  1
  O  O9  1  0.03929100  0.43368400  0.49919900  1
  O  O10  1  0.56593200  0.03743200  0.50138100  1
  O  O11  1  0.96071300  0.56626700  0.50104600  1
  O  O12  1  0.43398600  0.96259700  0.49877200  1
  O  O13  1  0.03741100  0.56594800  0.49875900  1
  O  O14  1  0.56625200  0.96074000  0.49890400  1
  O  O15  1  0.96257100  0.43400200  0.50110100  1
  O  O16  1  0.43366800  0.03931300  0.50086600  1
  O  O17  1  0.53935300  0.99914800  0.06871200  1
  O  O18  1  0.99905500  0.53745400  0.06844800  1
  O  O19  1  0.46266700  0.00114600  0.06846200  1
  O  O20  1  0.00134500  0.46077400  0.06881300  1
  O  O21  1  0.53728300  0.99875900  0.93150300  1
  O  O22  1  0.00087000  0.46256900  0.93160100  1
  O  O23  1  0.46060300  0.00103300  0.93125200  1
  O  O24  1  0.99887300  0.53925600  0.93123500  1
  O  O25  1  0.03729600  0.49910300  0.56851300  1
  O  O26  1  0.49870300  0.03924000  0.56880000  1
  O  O27  1  0.96060800  0.50105000  0.56874900  1
  O  O28  1  0.50092500  0.96256000  0.56837400  1
  O  O29  1  0.03938300  0.49875800  0.43130400  1
  O  O30  1  0.50107400  0.96079900  0.43116000  1
  O  O31  1  0.96270100  0.50098200  0.43153900  1
  O  O32  1  0.49912700  0.03748600  0.43158700  1
  O  O33  1  0.43394600  0.50124600  0.03853100  1
  O  O34  1  0.50073800  0.43389700  0.03858300  1
  O  O35  1  0.56629200  0.50066800  0.04078700  1
  O  O36  1  0.50128200  0.56624200  0.04073600  1
  O  O37  1  0.43377000  0.49872700  0.95922900  1
  O  O38  1  0.49876600  0.56604700  0.96143000  1
  O  O39  1  0.56611400  0.49925500  0.96145300  1
  O  O40  1  0.49932700  0.43370100  0.95924900  1
  O  O41  1  0.93374200  0.00128000  0.54077200  1
  O  O42  1  0.99873400  0.93395100  0.53855500  1
  O  O43  1  0.06608800  0.00075100  0.53855500  1
  O  O44  1  0.99930100  0.06629500  0.54077000  1
  O  O45  1  0.93393100  0.99874200  0.46146800  1
  O  O46  1  0.00073100  0.06609500  0.46143800  1
  O  O47  1  0.06627500  0.99931000  0.45922200  1
  O  O48  1  0.00126100  0.93375000  0.45925100  1
