# Generated by REPEAT Assigner based on pymatgen
data_DB0-m9_o17_o23_f0_sra.sym.33
_audit_creation_date              2022-05-24
_audit_creation_method            REPEAT_Assigner
_cell_length_a                    22.812042
_cell_length_b                    6.146059
_cell_length_c                    19.787290
_cell_angle_alpha                 90.000000
_cell_angle_beta                  94.157145
_cell_angle_gamma                 90.000000
_cell_volume                      2766.961430
_symmetry_space_group_name_H-M    P1
_symmetry_Int_Tables_number       1
loop_
    _symmetry_equiv_pos_site_id
    _symmetry_equiv_pos_as_xyz
    1  x,y,z
loop_
    _atom_site_type_symbol
    _atom_site_label
    _atom_site_fract_x
    _atom_site_fract_y
    _atom_site_fract_z
    _atom_type_partial_charge
    O  O1   0.435255  0.625337  0.450092  -0.506375
    O  O2   0.564746  0.125337  0.549908  -0.506335
    O  O3   0.557060  0.992332  0.417445  -0.543139
    O  O4   0.442940  0.492332  0.582554  -0.543150
    C  C1   0.579688  0.793826  0.419225  0.727657
    C  C2   0.420312  0.293826  0.580775  0.727664
    O  O5   0.436804  0.992404  0.412773  -0.486332
    O  O6   0.563196  0.492404  0.587227  -0.486407
    O  O7   0.437806  0.125130  0.545206  -0.533106
    O  O8   0.562195  0.625130  0.454794  -0.533117
    C  C3   0.415216  0.793107  0.413274  0.558606
    C  C4   0.584784  0.293107  0.586726  0.558604
    O  O9   0.502034  0.851359  0.543842  -0.375007
    O  O10  0.497966  0.351359  0.456158  -0.374992
    V  V1   0.499007  0.090790  0.480393  1.265219
    V  V2   0.500993  0.590790  0.519607  1.265119
    C  C5   0.835729  0.212928  0.869414  -0.002394
    C  C6   0.164271  0.712928  0.130586  -0.002408
    C  C7   0.865717  0.019670  0.865164  -0.406495
    C  C8   0.134283  0.519670  0.134836  -0.406392
    C  C9   0.849528  0.871260  0.815141  0.608603
    C  C10  0.150472  0.371260  0.184859  0.608560
    C  C11  0.803225  0.917092  0.768862  -0.515984
    C  C12  0.196775  0.417092  0.231138  -0.515981
    C  C13  0.772840  0.110057  0.773391  0.315731
    C  C14  0.227160  0.610057  0.226608  0.315684
    C  C15  0.789000  0.257758  0.823756  -0.113997
    C  C16  0.211000  0.757758  0.176244  -0.114006
    C  C17  0.787516  0.770839  0.717896  0.706292
    C  C18  0.212484  0.270839  0.282104  0.706298
    C  C19  0.740615  0.815745  0.672268  -0.442559
    C  C20  0.259385  0.315745  0.327732  -0.442521
    C  C21  0.710103  0.007943  0.677135  0.216649
    C  C22  0.289897  0.507943  0.322865  0.216473
    C  C23  0.726453  0.155946  0.727316  -0.196809
    C  C24  0.273548  0.655946  0.272684  -0.196622
    C  C25  0.696504  0.349935  0.731372  0.294266
    C  C26  0.303496  0.849935  0.268627  0.294028
    C  C27  0.712464  0.497038  0.781953  -0.339018
    C  C28  0.287536  0.997038  0.218047  -0.338940
    C  C29  0.758643  0.450470  0.828410  -0.076434
    C  C30  0.241357  0.950470  0.171590  -0.076422
    C  C31  0.663342  0.052781  0.631521  -0.161384
    C  C32  0.336659  0.552781  0.368479  -0.161200
    C  C33  0.633868  0.247317  0.635258  -0.029004
    C  C34  0.366132  0.747317  0.364742  -0.029167
    C  C35  0.650500  0.396695  0.684807  -0.231634
    C  C36  0.349500  0.896695  0.315193  -0.231362
    H  H1   0.848644  0.328513  0.908902  0.055897
    H  H2   0.151356  0.828513  0.091098  0.055898
    H  H3   0.728032  0.701140  0.632385  0.194079
    H  H4   0.271968  0.201140  0.367615  0.194063
    H  H5   0.650158  0.936538  0.592331  0.113805
    H  H6   0.349842  0.436538  0.407669  0.113775
    H  H7   0.627001  0.548757  0.687699  0.141611
    H  H8   0.372999  0.048757  0.312300  0.141502
    H  H9   0.688793  0.648622  0.785151  0.155288
    H  H10  0.311207  0.148622  0.214849  0.155279
    H  H11  0.771420  0.565692  0.868054  0.090300
    H  H12  0.228580  0.065692  0.131946  0.090285
    C  C37  0.251818  0.266735  0.820735  0.485729
    C  C38  0.748182  0.766735  0.179265  0.485782
    C  C39  0.245579  0.893557  0.779888  0.096009
    C  C40  0.754421  0.393557  0.220111  0.096031
    C  C41  0.285667  0.932636  0.723122  -0.406540
    C  C42  0.714333  0.432636  0.276877  -0.406513
    H  H13  0.343317  0.216736  0.803501  0.041146
    H  H14  0.656683  0.716736  0.196498  0.041136
    H  H15  0.268172  0.213419  0.872236  -0.063097
    H  H16  0.731829  0.713419  0.127764  -0.063094
    H  H17  0.216623  0.751849  0.768166  0.120759
    H  H18  0.783377  0.251849  0.231834  0.120782
    H  H19  0.273068  0.861361  0.827349  0.021371
    H  H20  0.726932  0.361361  0.172651  0.021388
    H  H21  0.329968  0.867283  0.738388  0.096241
    H  H22  0.670032  0.367283  0.261612  0.096234
    H  H23  0.268271  0.849015  0.676277  0.084107
    H  H24  0.731729  0.349015  0.323723  0.084087
    C  C43  0.374601  0.252447  0.625940  -0.202322
    C  C44  0.625399  0.752447  0.374060  -0.202298
    C  C45  0.209794  0.096898  0.789888  -0.304452
    C  C46  0.790206  0.596898  0.210112  -0.304889
    C  C47  0.303650  0.290748  0.777113  -0.312361
    C  C48  0.696350  0.790748  0.222886  -0.312322
    C  C49  0.289903  0.175237  0.710121  0.668876
    C  C50  0.710097  0.675237  0.289879  0.668925
    C  C51  0.231337  0.259349  0.679838  0.214370
    C  C52  0.768663  0.759349  0.320162  0.214316
    C  C53  0.182605  0.174831  0.721615  0.973815
    C  C54  0.817395  0.674831  0.278385  0.974020
    C  C55  0.336339  0.218239  0.663900  -0.265050
    C  C56  0.663661  0.718239  0.336100  -0.265086
    C  C57  0.163369  0.052950  0.836026  -0.050340
    C  C58  0.836631  0.552950  0.163974  -0.049873
    C  C59  0.125141  0.018034  0.873962  -0.263252
    C  C60  0.874859  0.518034  0.126038  -0.263616
    H  H25  0.232175  0.439585  0.682255  -0.083380
    H  H26  0.767825  0.939585  0.317745  -0.083373
    H  H27  0.311803  0.465817  0.767979  0.049588
    H  H28  0.688197  0.965817  0.232021  0.049579
    O  O11  0.938113  0.644541  0.045293  -0.575839
    O  O12  0.061887  0.144541  0.954707  -0.575806
    O  O13  0.063156  0.275954  0.086999  -0.519370
    O  O14  0.936844  0.775954  0.913001  -0.519537
    C  C61  0.084963  0.474944  0.086519  0.654323
    C  C62  0.915038  0.974944  0.913481  0.654508
    O  O15  0.942893  0.277197  0.082480  -0.523452
    O  O16  0.057107  0.777197  0.917520  -0.523567
    O  O17  0.934987  0.143251  0.950127  -0.512841
    O  O18  0.065013  0.643251  0.049873  -0.512818
    C  C63  0.920494  0.476050  0.080838  0.751176
    C  C64  0.079506  0.976050  0.919162  0.751086
    O  O19  0.998314  0.417429  0.956089  -0.347985
    O  O20  0.001686  0.917429  0.043911  -0.347962
    V  V3   0.000820  0.177693  0.019524  1.203359
    V  V4   0.999180  0.677693  0.980476  1.203831
    N  N1   0.141119  0.348916  0.731779  -0.798785
    H  H29  0.115782  0.370267  0.686170  0.239142
    H  H30  0.164911  0.491850  0.741373  0.255650
    N  N2   0.858881  0.848916  0.268221  -0.798898
    H  H31  0.884218  0.870267  0.313830  0.239213
    H  H32  0.835089  0.991850  0.258627  0.255661
    N  N3   0.151486  0.995462  0.687176  -0.893342
    H  H33  0.180901  0.868642  0.680889  0.257391
    H  H34  0.135217  0.049328  0.639446  0.295388
    N  N4   0.848514  0.495462  0.312824  -0.893439
    H  H35  0.819099  0.368642  0.319111  0.257419
    H  H36  0.864783  0.549328  0.360554  0.295405
    N  N5   0.221709  0.473194  0.825586  -0.712900
    H  H37  0.181930  0.442492  0.846788  0.276365
    H  H38  0.247178  0.569161  0.859876  0.232562
    N  N6   0.778291  0.973194  0.174413  -0.712993
    H  H39  0.818070  0.942492  0.153212  0.276417
    H  H40  0.752822  0.069161  0.140124  0.232576
    N  N7   0.881121  0.672792  0.810651  -0.812988
    H  H41  0.877735  0.588537  0.856007  0.349337
    H  H42  0.925256  0.712241  0.806691  0.317620
    N  N8   0.118879  0.172792  0.189349  -0.812891
    H  H43  0.122266  0.088537  0.143993  0.349287
    H  H44  0.074744  0.212241  0.193309  0.317571
    N  N9   0.222018  0.193045  0.609384  -0.842908
    H  H45  0.182711  0.262445  0.589480  0.271908
    H  H46  0.218179  0.024161  0.607189  0.290097
    N  N10  0.777982  0.693045  0.390616  -0.842890
    H  H47  0.817289  0.762445  0.410520  0.271884
    H  H48  0.781821  0.524161  0.392811  0.290102
    N  N11  0.820134  0.575284  0.711743  -1.089473
    H  H49  0.818643  0.488982  0.756990  0.477864
    H  H50  0.863781  0.618859  0.706318  0.372094
    N  N12  0.179866  0.075284  0.288257  -1.089486
    H  H51  0.181357  0.988982  0.243010  0.477860
    H  H52  0.136219  0.118860  0.293682  0.372101
