# Generated by REPEAT Assigner based on pymatgen
data_DB0-m3_o2_o15_f0_nbo.sym.70_sqe
_audit_creation_date              2022-05-24
_audit_creation_method            REPEAT_Assigner
_cell_length_a                    30.328723
_cell_length_b                    30.328994
_cell_length_c                    21.927610
_cell_angle_alpha                 90.000000
_cell_angle_beta                  90.000000
_cell_angle_gamma                 90.000000
_cell_volume                      20169.885531
_symmetry_space_group_name_H-M    P1
_symmetry_Int_Tables_number       1
loop_
    _symmetry_equiv_pos_site_id
    _symmetry_equiv_pos_as_xyz
    1  x,y,z
loop_
    _atom_site_type_symbol
    _atom_site_label
    _atom_site_fract_x
    _atom_site_fract_y
    _atom_site_fract_z
    _atom_type_partial_charge
    C   C1    0.499250  0.086312  0.000258  0.513168
    C   C2    0.000397  0.500884  0.119519  0.611524
    C   C3    0.342487  0.038402  0.494338  -0.209419
    C   C4    0.960407  0.657774  0.508372  -0.212980
    C   C5    0.342316  0.960151  0.506815  -0.212101
    C   C6    0.039932  0.342491  0.504524  -0.216379
    C   C7    0.657550  0.039932  0.506088  -0.215512
    C   C8    0.499414  0.134576  0.000068  0.185173
    C   C9    0.134503  0.500697  0.998851  0.185735
    C   C10   0.500760  0.865441  0.999776  0.174212
    C   C11   0.865371  0.499211  0.000922  0.171757
    C   C12   0.999254  0.634708  0.500023  0.136617
    C   C13   0.501104  0.000251  0.880739  0.614257
    C   C14   0.634510  0.000923  0.499155  0.137363
    C   C15   0.000771  0.365544  0.499619  0.137613
    C   C16   0.365346  0.999226  0.500596  0.135434
    C   C17   0.499708  0.225731  0.999583  0.090850
    C   C18   0.225666  0.500418  0.998386  0.094964
    C   C19   0.500362  0.774290  0.999979  0.101539
    C   C20   0.774225  0.499541  0.001158  0.109278
    C   C21   0.999472  0.725873  0.499506  -0.236793
    C   C22   0.725680  0.000759  0.498712  -0.218699
    C   C23   0.000513  0.274385  0.499897  -0.239759
    C   C24   0.999508  0.498992  0.880692  0.615677
    C   C25   0.274191  0.999438  0.500767  -0.231143
    C   C26   0.489109  0.297189  0.051946  -0.144455
    C   C27   0.297020  0.511761  0.050736  -0.138587
    C   C28   0.512233  0.703129  0.052558  -0.133027
    C   C29   0.702957  0.488322  0.053739  -0.132449
    C   C30   0.510666  0.296885  0.946541  -0.138691
    C   C31   0.702913  0.511216  0.948873  -0.134737
    C   C32   0.487936  0.702853  0.948305  -0.136955
    C   C33   0.296947  0.488698  0.945947  -0.131070
    C   C34   0.990623  0.797331  0.552454  -0.244433
    C   C35   0.998830  0.499886  0.619666  0.753458
    C   C36   0.797069  0.010969  0.551405  -0.241577
    C   C37   0.011864  0.203234  0.552734  -0.237702
    C   C38   0.202953  0.989341  0.553839  -0.237233
    C   C39   0.008626  0.797017  0.445837  -0.234565
    C   C40   0.202855  0.009891  0.448097  -0.239969
    C   C41   0.988765  0.202947  0.448000  -0.238896
    C   C42   0.796911  0.990282  0.445719  -0.236127
    C   C43   0.488645  0.342652  0.051081  -0.231507
    C   C44   0.342485  0.512260  0.050039  -0.236246
    C   C45   0.512668  0.657661  0.052173  -0.240878
    C   C46   0.500257  0.000907  0.619720  0.753001
    C   C47   0.657488  0.487938  0.053187  -0.240171
    C   C48   0.511233  0.342352  0.946941  -0.235231
    C   C49   0.657450  0.511785  0.949579  -0.236817
    C   C50   0.487329  0.657391  0.949246  -0.237484
    C   C51   0.342413  0.488082  0.946583  -0.243675
    C   C52   0.990094  0.842786  0.551624  -0.214224
    C   C53   0.842527  0.011499  0.550669  -0.217149
    C   C54   0.012308  0.157772  0.552371  -0.219669
    C   C55   0.157493  0.988929  0.553358  -0.219348
    C   C56   0.009324  0.842474  0.446202  -0.220170
    C   C57   0.001207  0.500408  0.380532  0.751485
    C   C58   0.157402  0.010566  0.448830  -0.215539
    C   C59   0.988092  0.157496  0.448932  -0.216139
    C   C60   0.842366  0.989560  0.446265  -0.220172
    C   C61   0.499954  0.365386  0.998890  0.197384
    C   C62   0.365344  0.500151  0.998290  0.203344
    C   C63   0.499976  0.634638  0.000837  0.200954
    C   C64   0.634592  0.499896  0.001414  0.203378
    C   C65   0.999750  0.865521  0.498797  0.207301
    C   C66   0.865343  0.000477  0.498420  0.209190
    C   C67   0.000147  0.134749  0.500792  0.203232
    C   C68   0.499654  0.999211  0.380582  0.752525
    C   C69   0.134568  0.999817  0.501158  0.205724
    C   C70   0.499848  0.273978  0.999357  0.068183
    C   C71   0.273919  0.500276  0.998353  0.061784
    C   C72   0.500160  0.726046  0.000282  0.060215
    C   C73   0.725987  0.499706  0.001261  0.054110
    C   C74   0.999583  0.774119  0.499263  0.248648
    C   C75   0.773931  0.000666  0.498610  0.241495
    C   C76   0.000372  0.226143  0.500218  0.248957
    C   C77   0.225953  0.999556  0.500903  0.244810
    C   C78   0.586308  0.499956  0.001462  0.625025
    C   C79   0.545647  0.934605  0.187932  -0.312132
    C   C80   0.499974  0.413677  0.998647  0.627262
    C   C81   0.413647  0.500092  0.998257  0.624308
    C   C82   0.499963  0.586342  0.001079  0.627709
    C   C83   0.086291  0.999949  0.501281  0.609300
    C   C84   0.999827  0.913810  0.498561  0.605541
    C   C85   0.913638  0.000359  0.498315  0.605838
    C   C86   0.000085  0.086465  0.501041  0.610566
    C   C87   0.406896  0.130845  0.186222  0.678820
    C   C88   0.132069  0.592766  0.184650  0.681703
    C   C89   0.591737  0.868550  0.184402  0.684745
    C   C90   0.935636  0.454309  0.188622  -0.311855
    C   C91   0.869590  0.408193  0.185850  0.681317
    C   C92   0.597334  0.128535  0.815483  0.681627
    C   C93   0.870781  0.595057  0.816819  0.686338
    C   C94   0.404876  0.872021  0.815520  0.687136
    C   C95   0.127280  0.402586  0.814069  0.682867
    C   C96   0.892010  0.619975  0.688511  0.491312
    C   C97   0.621323  0.107119  0.686902  0.485681
    C   C98   0.104850  0.378379  0.685864  0.489507
    C   C99   0.379794  0.894193  0.687549  0.493191
    C   C100  0.111449  0.617600  0.313228  0.500261
    C   C101  0.452866  0.064705  0.188843  -0.321024
    C   C102  0.382005  0.109308  0.314496  0.500612
    C   C103  0.891611  0.382592  0.313743  0.498913
    C   C104  0.617278  0.889756  0.312579  0.501449
    C   C105  0.477795  0.274857  0.109377  0.791676
    C   C106  0.274565  0.523772  0.107805  0.786316
    C   C107  0.524973  0.725801  0.109152  0.786536
    C   C108  0.725506  0.476211  0.110691  0.788690
    C   C109  0.521935  0.274225  0.889342  0.790377
    C   C110  0.725402  0.523278  0.891855  0.787553
    C   C111  0.475182  0.725203  0.891470  0.788581
    C   C112  0.086238  0.500839  0.999317  0.513026
    C   C113  0.065810  0.546981  0.188036  -0.323353
    C   C114  0.274425  0.476683  0.888933  0.786751
    C   C115  0.981364  0.774976  0.610528  0.893816
    C   C116  0.774642  0.021647  0.608964  0.891717
    C   C117  0.023995  0.225915  0.609551  0.893564
    C   C118  0.225545  0.978545  0.611228  0.893628
    C   C119  0.017769  0.774320  0.387985  0.887268
    C   C120  0.225339  0.020510  0.390567  0.892209
    C   C121  0.976828  0.225311  0.390874  0.889731
    C   C122  0.774315  0.979746  0.388242  0.887693
    C   C123  0.452674  0.936835  0.812188  -0.310836
    C   C124  0.062674  0.450688  0.811438  -0.305705
    C   C125  0.549367  0.063850  0.812170  -0.315601
    C   C126  0.935662  0.547382  0.812814  -0.309137
    C   C127  0.051316  0.438899  0.688778  -0.234548
    C   C128  0.440025  0.948065  0.689669  -0.227094
    C   C129  0.946129  0.559961  0.690151  -0.230867
    C   C130  0.561051  0.053296  0.689352  -0.233000
    C   C131  0.946903  0.441507  0.311098  -0.219343
    C   C132  0.500951  0.913703  0.999885  0.522628
    C   C133  0.558418  0.945107  0.310547  -0.227539
    C   C134  0.055669  0.559151  0.310830  -0.224170
    C   C135  0.440655  0.053740  0.311490  -0.219582
    C   C136  0.573533  0.906259  0.218348  -0.091134
    C   C137  0.907491  0.426406  0.219361  -0.088216
    C   C138  0.425193  0.092985  0.219728  -0.079723
    C   C139  0.094367  0.574559  0.218599  -0.083494
    C   C140  0.424015  0.909335  0.781713  -0.092465
    C   C141  0.090029  0.422113  0.780564  -0.090954
    C   C142  0.577834  0.091472  0.781562  -0.086482
    C   C143  0.913631  0.499044  0.000736  0.524522
    C   C144  0.907914  0.575951  0.782609  -0.094124
    C   C145  0.082399  0.414031  0.719268  0.113056
    C   C146  0.415512  0.916877  0.720505  0.110675
    C   C147  0.915046  0.584400  0.721296  0.115671
    C   C148  0.585841  0.084280  0.720150  0.115605
    C   C149  0.915014  0.417747  0.280540  0.104821
    C   C150  0.582169  0.913398  0.279621  0.108144
    C   C151  0.087449  0.582874  0.280000  0.108174
    C   C152  0.416850  0.085645  0.281029  0.101771
    C   C153  0.527072  0.970879  0.281063  -0.019092
    C   C154  0.999131  0.586436  0.500236  0.593538
    C   C155  0.972465  0.472885  0.281328  -0.029691
    C   C156  0.471825  0.028035  0.281532  -0.024607
    C   C157  0.029681  0.528073  0.281162  -0.031194
    C   C158  0.472166  0.972855  0.719162  -0.008433
    C   C159  0.026668  0.470932  0.718719  -0.003402
    C   C160  0.529106  0.028384  0.719052  -0.011576
    C   C161  0.971156  0.527886  0.719396  -0.014238
    C   C162  0.029317  0.473463  0.781528  0.267594
    C   C163  0.475145  0.970239  0.781938  0.273045
    C   C164  0.968907  0.524926  0.782206  0.276190
    C   C165  0.586237  0.001006  0.499561  0.592801
    C   C166  0.526604  0.030656  0.781897  0.276325
    C   C167  0.969803  0.475844  0.218563  0.289119
    C   C168  0.524119  0.968596  0.218265  0.281175
    C   C169  0.031827  0.525408  0.218321  0.294972
    C   C170  0.474500  0.030575  0.218725  0.285889
    C   C171  0.499511  0.999378  0.313353  -0.072110
    C   C172  0.001138  0.500458  0.313301  -0.065036
    C   C173  0.500499  0.000726  0.687000  -0.088778
    C   C174  0.998881  0.499576  0.686948  -0.087227
    C   C175  0.999250  0.499134  0.813696  -0.222693
    C   C176  0.000900  0.413813  0.499756  0.587241
    C   C177  0.500968  0.000377  0.813744  -0.222814
    C   C178  0.000656  0.500741  0.186561  -0.240882
    C   C179  0.499231  0.999648  0.186612  -0.233668
    C   C180  0.538615  0.202773  0.992435  -0.162451
    C   C181  0.202713  0.461444  0.991907  -0.161034
    C   C182  0.461310  0.797263  0.994708  -0.164458
    C   C183  0.797165  0.538566  0.995282  -0.169251
    C   C184  0.460653  0.203061  0.006938  -0.161848
    C   C185  0.796902  0.460351  0.006893  -0.174753
    C   C186  0.539619  0.796940  0.005032  -0.169166
    C   C187  0.413614  0.999120  0.500540  0.589069
    C   C188  0.202983  0.539537  0.004970  -0.160278
    C   C189  0.038206  0.702941  0.490617  -0.016758
    C   C190  0.702773  0.961853  0.491229  -0.022092
    C   C191  0.961444  0.297298  0.494336  -0.013251
    C   C192  0.297083  0.038408  0.493912  -0.019719
    C   C193  0.960625  0.703178  0.508602  -0.009415
    C   C194  0.296915  0.960356  0.507456  -0.013991
    C   C195  0.039717  0.297093  0.505160  -0.009631
    C   C196  0.702953  0.039756  0.506299  -0.016350
    C   C197  0.538558  0.157373  0.993031  -0.213757
    C   C198  0.499106  0.999806  0.119567  0.611788
    C   C199  0.157310  0.461501  0.992441  -0.215303
    C   C200  0.461427  0.842663  0.994985  -0.208371
    C   C201  0.842565  0.538489  0.995593  -0.205771
    C   C202  0.460417  0.157663  0.006798  -0.208982
    C   C203  0.842300  0.460098  0.006317  -0.195563
    C   C204  0.539898  0.842337  0.004519  -0.197421
    C   C205  0.157585  0.539759  0.004864  -0.209423
    C   C206  0.038206  0.657536  0.491324  -0.206896
    C   C207  0.657368  0.961839  0.491841  -0.211315
    C   C208  0.961485  0.342703  0.494646  -0.213981
    H   H1    0.539415  0.927865  0.140460  0.220469
    H   H2    0.431731  0.954050  0.642655  0.179637
    H   H3    0.243047  0.464984  0.111527  0.301713
    H   H4    0.510729  0.787998  0.134704  0.281891
    H   H5    0.466214  0.757264  0.114136  0.300343
    H   H6    0.787681  0.490632  0.136154  0.283201
    H   H7    0.757065  0.534967  0.114497  0.301885
    H   H8    0.506955  0.212145  0.864050  0.287157
    H   H9    0.463040  0.242829  0.887146  0.302501
    H   H10   0.787417  0.508593  0.865937  0.284517
    H   H11   0.756693  0.464383  0.887817  0.301500
    H   H12   0.489539  0.787142  0.864852  0.283906
    H   H13   0.951809  0.568245  0.643065  0.182203
    H   H14   0.534012  0.756507  0.885939  0.300268
    H   H15   0.212415  0.491310  0.862914  0.286387
    H   H16   0.243001  0.535525  0.885152  0.300578
    H   H17   0.997468  0.713041  0.635115  0.333046
    H   H18   0.040423  0.743908  0.609262  0.302326
    H   H19   0.712677  0.006217  0.634242  0.336019
    H   H20   0.743481  0.962632  0.610330  0.301032
    H   H21   0.009346  0.288062  0.634872  0.339367
    H   H22   0.965114  0.257223  0.613428  0.302126
    H   H23   0.287642  0.993875  0.635987  0.336269
    H   H24   0.568982  0.047558  0.642163  0.183584
    H   H25   0.256720  0.037545  0.612662  0.302668
    H   H26   0.001344  0.712344  0.364016  0.331270
    H   H27   0.958554  0.743561  0.389573  0.302145
    H   H28   0.287247  0.004725  0.365462  0.334839
    H   H29   0.256087  0.961291  0.389007  0.302598
    H   H30   0.991993  0.287154  0.364739  0.337453
    H   H31   0.035959  0.256107  0.386630  0.302785
    H   H32   0.712381  0.995529  0.363243  0.332973
    H   H33   0.743477  0.038930  0.387054  0.301795
    H   H34   0.952818  0.433195  0.358126  0.177213
    H   H35   0.566708  0.950697  0.357656  0.180890
    H   H36   0.050254  0.567223  0.358048  0.180474
    H   H37   0.432569  0.047975  0.358627  0.178023
    H   H38   0.569332  0.220401  0.986956  0.098425
    H   H39   0.220343  0.430676  0.987036  0.098302
    H   H40   0.430446  0.779648  0.991026  0.099512
    H   H41   0.928600  0.460539  0.141231  0.218915
    H   H42   0.779522  0.569377  0.991058  0.099688
    H   H43   0.430047  0.220914  0.012205  0.100042
    H   H44   0.779050  0.429664  0.011175  0.102140
    H   H45   0.570327  0.779069  0.008830  0.101157
    H   H46   0.220824  0.570196  0.009696  0.099844
    H   H47   0.068762  0.720596  0.483755  0.081237
    H   H48   0.720447  0.931180  0.485561  0.081644
    H   H49   0.930623  0.279629  0.490474  0.079385
    H   H50   0.279396  0.069134  0.488927  0.081101
    H   H51   0.930148  0.721016  0.515226  0.078624
    H   H52   0.458865  0.071632  0.141366  0.223186
    H   H53   0.279096  0.929708  0.512471  0.078341
    H   H54   0.070440  0.279266  0.509132  0.077508
    H   H55   0.720763  0.070366  0.511789  0.079484
    H   H56   0.569479  0.140139  0.987675  0.190262
    H   H57   0.140085  0.430526  0.987639  0.190169
    H   H58   0.430394  0.859914  0.991165  0.187978
    H   H59   0.859794  0.569498  0.991266  0.188169
    H   H60   0.429377  0.140659  0.012225  0.187636
    H   H61   0.859323  0.428963  0.010444  0.184883
    H   H62   0.571079  0.859331  0.008212  0.184888
    H   H63   0.072405  0.540990  0.140467  0.224519
    H   H64   0.140579  0.570844  0.009775  0.187379
    H   H65   0.068996  0.640316  0.484655  0.153426
    H   H66   0.640178  0.930911  0.486339  0.156520
    H   H67   0.930436  0.359906  0.490737  0.157957
    H   H68   0.359683  0.069374  0.489360  0.157359
    H   H69   0.929524  0.640738  0.515058  0.153862
    H   H70   0.359381  0.929094  0.511546  0.156401
    H   H71   0.071080  0.359528  0.508187  0.158208
    H   H72   0.640504  0.070929  0.511619  0.156622
    H   H73   0.479836  0.360279  0.092128  0.178789
    H   H74   0.458721  0.929844  0.859641  0.218535
    H   H75   0.360000  0.521650  0.090929  0.180938
    H   H76   0.522534  0.640270  0.092951  0.180284
    H   H77   0.639978  0.478629  0.094119  0.178420
    H   H78   0.520078  0.359744  0.905717  0.177359
    H   H79   0.639910  0.521169  0.908703  0.178963
    H   H80   0.477389  0.639782  0.908681  0.180971
    H   H81   0.359871  0.478631  0.905674  0.180955
    H   H82   0.982671  0.860375  0.593220  0.177085
    H   H83   0.860049  0.019965  0.591936  0.179391
    H   H84   0.021721  0.140397  0.593366  0.178196
    H   H85   0.069720  0.456389  0.858954  0.218451
    H   H86   0.140034  0.980528  0.594705  0.177000
    H   H87   0.016802  0.859818  0.404428  0.176570
    H   H88   0.139874  0.019057  0.407574  0.177372
    H   H89   0.978617  0.139909  0.408139  0.178680
    H   H90   0.859757  0.981025  0.404919  0.178090
    H   H91   0.435331  0.182369  0.227886  0.239119
    H   H92   0.392827  0.195343  0.181537  0.336148
    H   H93   0.183776  0.564412  0.225995  0.239425
    H   H94   0.196558  0.606751  0.179251  0.337240
    H   H95   0.564156  0.816820  0.226692  0.239553
    H   H96   0.543727  0.070576  0.859788  0.221513
    H   H97   0.606135  0.804141  0.179269  0.337400
    H   H98   0.818108  0.436030  0.228388  0.239540
    H   H99   0.805132  0.393898  0.181389  0.336082
    H   H100  0.570548  0.181202  0.774473  0.240199
    H   H101  0.613507  0.192512  0.820848  0.332682
    H   H102  0.818222  0.568451  0.775316  0.241609
    H   H103  0.806742  0.610935  0.822444  0.334616
    H   H104  0.431136  0.819672  0.773101  0.241175
    H   H105  0.388768  0.808006  0.820340  0.334462
    H   H106  0.179731  0.428957  0.772029  0.239770
    H   H107  0.928974  0.541377  0.860360  0.216861
    H   H108  0.191223  0.386146  0.818580  0.332657
    H   H109  0.868579  0.645216  0.610475  0.311683
    H   H110  0.863438  0.589966  0.617245  0.256753
    H   H111  0.646245  0.130264  0.608509  0.311382
    H   H112  0.591055  0.135662  0.615822  0.257863
    H   H113  0.127322  0.353174  0.607274  0.310943
    H   H114  0.133013  0.408357  0.614259  0.259032
    H   H115  0.354316  0.871388  0.609310  0.313037
    H   H116  0.409560  0.865995  0.615804  0.259185
    H   H117  0.135186  0.641898  0.391673  0.314369
    H   H118  0.045252  0.430944  0.641670  0.181567
    H   H119  0.138728  0.586542  0.384611  0.257324
    H   H120  0.357440  0.132255  0.393231  0.314335
    H   H121  0.412814  0.135934  0.386559  0.258811
    H   H122  0.869126  0.357385  0.392349  0.313932
    H   H123  0.865169  0.412785  0.386436  0.258546
    H   H124  0.642297  0.866552  0.390896  0.313242
    H   H125  0.586921  0.862576  0.384611  0.257775
    H   H126  0.492542  0.212820  0.135133  0.286638
    H   H127  0.536569  0.243243  0.111793  0.303762
    H   H128  0.212504  0.509236  0.133688  0.283903
    N   N1    0.403606  0.173061  0.214621  -0.676349
    N   N2    0.617565  0.114295  0.622829  -0.645498
    N   N3    0.111583  0.381958  0.621680  -0.649165
    N   N4    0.383089  0.887312  0.623367  -0.652717
    N   N5    0.118296  0.613747  0.377368  -0.654656
    N   N6    0.385657  0.115541  0.378778  -0.658308
    N   N7    0.885648  0.385775  0.378125  -0.656430
    N   N8    0.613924  0.883171  0.376826  -0.653767
    N   N9    0.507298  0.243902  0.136757  -0.744765
    N   N10   0.243611  0.494564  0.135787  -0.741099
    N   N11   0.496138  0.756887  0.137585  -0.740198
    N   N12   0.174433  0.596100  0.212616  -0.677672
    N   N13   0.756592  0.505315  0.138593  -0.741966
    N   N14   0.492317  0.243277  0.862189  -0.743625
    N   N15   0.756258  0.494040  0.863732  -0.741830
    N   N16   0.504079  0.755982  0.862519  -0.741277
    N   N17   0.243545  0.505942  0.860898  -0.741819
    N   N18   0.011976  0.744254  0.636000  -0.793605
    N   N19   0.743868  0.991691  0.635776  -0.794090
    N   N20   0.994800  0.256915  0.637450  -0.796873
    N   N21   0.256463  0.008403  0.637928  -0.795049
    N   N22   0.986997  0.743625  0.362822  -0.791547
    N   N23   0.595643  0.826331  0.212646  -0.677055
    N   N24   0.255960  0.990420  0.363710  -0.794845
    N   N25   0.006284  0.255873  0.362579  -0.795540
    N   N26   0.743648  0.009882  0.361579  -0.791984
    N   N27   0.827496  0.404470  0.214495  -0.675254
    N   N28   0.601970  0.170786  0.787546  -0.673474
    N   N29   0.828517  0.599787  0.788949  -0.677777
    N   N30   0.399887  0.829985  0.787084  -0.677292
    N   N31   0.169282  0.397640  0.785521  -0.673789
    N   N32   0.884705  0.616531  0.624431  -0.645319
    O   O1    0.461187  0.065841  0.002351  -0.641435
    O   O2    0.565701  0.039008  0.502235  -0.678790
    O   O3    0.038959  0.434329  0.499775  -0.675252
    O   O4    0.434157  0.961077  0.500305  -0.675135
    O   O5    0.037073  0.565732  0.497897  -0.694374
    O   O6    0.434297  0.037104  0.500618  -0.692108
    O   O7    0.962929  0.434524  0.499907  -0.689748
    O   O8    0.565550  0.963054  0.497284  -0.694636
    O   O9    0.461035  0.000228  0.091132  -0.597209
    O   O10   0.000640  0.538963  0.091094  -0.596836
    O   O11   0.537096  0.999508  0.090864  -0.609076
    O   O12   0.065757  0.538889  0.001605  -0.641742
    O   O13   0.999952  0.462899  0.090809  -0.609167
    O   O14   0.539155  0.998584  0.909131  -0.600021
    O   O15   0.001132  0.536961  0.909356  -0.610749
    O   O16   0.463130  0.001726  0.909409  -0.610931
    O   O17   0.998028  0.460934  0.909091  -0.600474
    O   O18   0.960841  0.499893  0.590982  -0.677842
    O   O19   0.500082  0.038960  0.591185  -0.677411
    O   O20   0.036813  0.500003  0.590894  -0.689954
    O   O21   0.500264  0.962985  0.590806  -0.689113
    O   O22   0.039166  0.498492  0.409166  -0.678451
    O   O23   0.539041  0.934173  0.999380  -0.645606
    O   O24   0.501470  0.037108  0.409446  -0.690945
    O   O25   0.963254  0.502107  0.409272  -0.690960
    O   O26   0.497913  0.961189  0.409087  -0.678505
    O   O27   0.565717  0.500468  0.054061  -0.669230
    O   O28   0.500365  0.434429  0.051160  -0.686054
    O   O29   0.434300  0.501512  0.050812  -0.687399
    O   O30   0.501375  0.565852  0.053727  -0.671042
    O   O31   0.434249  0.498576  0.945703  -0.669501
    O   O32   0.499565  0.434166  0.945966  -0.668743
    O   O33   0.565667  0.499490  0.948867  -0.685827
    O   O34   0.934117  0.460965  0.000031  -0.645984
    O   O35   0.498617  0.565589  0.948596  -0.687044
    O   O36   0.065751  0.000551  0.553911  -0.661614
    O   O37   0.000364  0.934560  0.551070  -0.676543
    O   O38   0.934338  0.001699  0.550836  -0.679211
    O   O39   0.001477  0.065977  0.553688  -0.662265
    O   O40   0.934187  0.998858  0.445727  -0.661317
    O   O41   0.999333  0.934303  0.445888  -0.659689
    O   O42   0.065603  0.999464  0.448725  -0.678515
    O   O43   0.998695  0.065722  0.448558  -0.678594
    O   O44   0.398061  0.127198  0.132223  -0.528054
    O   O45   0.537190  0.065576  0.998233  -0.657922
    O   O46   0.128152  0.601492  0.130653  -0.528354
    O   O47   0.599972  0.872304  0.130236  -0.529356
    O   O48   0.873075  0.399799  0.131696  -0.528294
    O   O49   0.606013  0.124312  0.869455  -0.531569
    O   O50   0.874967  0.603298  0.870927  -0.530865
    O   O51   0.396848  0.875829  0.869744  -0.531318
    O   O52   0.123464  0.394174  0.868181  -0.531253
    O   O53   0.881447  0.653724  0.714970  -0.450131
    O   O54   0.655261  0.117596  0.712962  -0.447553
    O   O55   0.115344  0.344445  0.711922  -0.447255
    O   O56   0.934354  0.537014  0.001142  -0.658612
    O   O57   0.346045  0.883596  0.713985  -0.449457
    O   O58   0.123161  0.651103  0.287098  -0.451677
    O   O59   0.348562  0.121229  0.288399  -0.449722
    O   O60   0.879731  0.349270  0.287318  -0.450188
    O   O61   0.650688  0.878182  0.286106  -0.452067
    O   O62   0.444699  0.285968  0.136930  -0.543898
    O   O63   0.285578  0.557226  0.134594  -0.542242
    O   O64   0.558747  0.714866  0.135226  -0.542209
    O   O65   0.714472  0.442757  0.137466  -0.542922
    O   O66   0.555113  0.285048  0.861758  -0.542868
    O   O67   0.462992  0.934444  0.000505  -0.657654
    O   O68   0.714504  0.556838  0.865229  -0.542654
    O   O69   0.441300  0.714247  0.865683  -0.543304
    O   O70   0.285314  0.443151  0.862232  -0.542132
    O   O71   0.949182  0.785934  0.640190  -0.558557
    O   O72   0.785574  0.054531  0.637131  -0.558381
    O   O73   0.057521  0.215028  0.636268  -0.558823
    O   O74   0.214639  0.945644  0.639378  -0.559093
    O   O75   0.049997  0.784970  0.358206  -0.555908
    O   O76   0.214568  0.053470  0.362451  -0.558563
    O   O77   0.943237  0.214484  0.364266  -0.558289
    O   O78   0.065510  0.462888  0.997508  -0.657625
    O   O79   0.785024  0.946824  0.359995  -0.556800
    O   O80   0.961107  0.565920  0.502646  -0.678722
    Zn  Zn1   0.450177  0.999997  0.000004  1.276972
    Zn  Zn2   0.500149  0.500049  0.930827  1.313254
    Zn  Zn3   0.999845  0.000114  0.568831  1.312130
    Zn  Zn4   0.000077  0.000184  0.430769  1.310928
    Zn  Zn5   0.999896  0.549866  0.999980  1.277130
    Zn  Zn6   0.550028  0.000041  0.000233  1.279878
    Zn  Zn7   0.999994  0.450013  0.000164  1.279649
    Zn  Zn8   0.950125  0.500080  0.499815  1.299052
    Zn  Zn9   0.499842  0.049958  0.500081  1.299821
    Zn  Zn10  0.049909  0.500204  0.500297  1.298934
    Zn  Zn11  0.500041  0.950164  0.500137  1.298097
    Zn  Zn12  0.499797  0.499988  0.068896  1.314524
