# generated using pymatgen
data_ZnH8(C3O)4
_symmetry_space_group_name_H-M   'P 1'
_cell_length_a   37.93884700
_cell_length_b   21.81403100
_cell_length_c   21.77427600
_cell_angle_alpha   90.00000000
_cell_angle_beta   122.70600500
_cell_angle_gamma   90.00000000
_symmetry_Int_Tables_number   1
_chemical_formula_structural   ZnH8(C3O)4
_chemical_formula_sum   'Zn12 H96 C144 O48'
_cell_volume   15163.31781193
_cell_formula_units_Z   12
loop_
 _symmetry_equiv_pos_site_id
 _symmetry_equiv_pos_as_xyz
  1  'x, y, z'
loop_
 _atom_site_type_symbol
 _atom_site_label
 _atom_site_symmetry_multiplicity
 _atom_site_fract_x
 _atom_site_fract_y
 _atom_site_fract_z
 _atom_site_occupancy
  Zn  Zn1  1  0.99998300  0.92901400  0.99981600  1
  Zn  Zn2  1  0.49998300  0.42901400  0.99981600  1
  Zn  Zn3  1  0.00007600  0.06802900  0.00015000  1
  Zn  Zn4  1  0.50007600  0.56802900  0.00015000  1
  Zn  Zn5  1  0.49728800  0.99864900  0.56702300  1
  Zn  Zn6  1  0.50276100  0.99878800  0.43316400  1
  Zn  Zn7  1  0.99728800  0.49864900  0.56702300  1
  Zn  Zn8  1  0.00276100  0.49878800  0.43316400  1
  Zn  Zn9  1  0.95246900  0.99872800  0.45579000  1
  Zn  Zn10  1  0.04747100  0.99860100  0.54409800  1
  Zn  Zn11  1  0.45246900  0.49872800  0.45579000  1
  Zn  Zn12  1  0.54747100  0.49860100  0.54409800  1
  H  H1  1  0.28501400  0.92463900  0.34832400  1
  H  H2  1  0.71522800  0.92537900  0.65242800  1
  H  H3  1  0.78501400  0.42463900  0.34832400  1
  H  H4  1  0.21522800  0.42537900  0.65242800  1
  H  H5  1  0.21350500  0.92913200  0.28053000  1
  H  H6  1  0.78672800  0.93026700  0.72014000  1
  H  H7  1  0.71350500  0.42913200  0.28053000  1
  H  H8  1  0.28672800  0.43026700  0.72014000  1
  H  H9  1  0.21232800  0.09301300  0.23479100  1
  H  H10  1  0.78750400  0.09441300  0.76453300  1
  H  H11  1  0.71232800  0.59301300  0.23479100  1
  H  H12  1  0.28750400  0.59441300  0.76453300  1
  H  H13  1  0.21241000  0.04034900  0.29789900  1
  H  H14  1  0.78754100  0.04137900  0.70184800  1
  H  H15  1  0.71241000  0.54034900  0.29789900  1
  H  H16  1  0.28754100  0.54137900  0.70184800  1
  H  H17  1  0.28047800  0.09367300  0.28840100  1
  H  H18  1  0.71935700  0.09477100  0.71094800  1
  H  H19  1  0.78047800  0.59367300  0.28840100  1
  H  H20  1  0.21935700  0.59477100  0.71094800  1
  H  H21  1  0.21661300  0.97294100  0.11675700  1
  H  H22  1  0.78354900  0.97503800  0.88358400  1
  H  H23  1  0.71661300  0.47294100  0.11675700  1
  H  H24  1  0.28354900  0.47503800  0.88358400  1
  H  H25  1  0.21792300  0.05436200  0.13270500  1
  H  H26  1  0.78203600  0.05636400  0.86696800  1
  H  H27  1  0.71792300  0.55436200  0.13270500  1
  H  H28  1  0.28203600  0.55636400  0.86696800  1
  H  H29  1  0.28709600  0.96824900  0.18809700  1
  H  H30  1  0.71307500  0.96995100  0.81232300  1
  H  H31  1  0.78709600  0.46824900  0.18809700  1
  H  H32  1  0.21307500  0.46995100  0.81232300  1
  H  H33  1  0.21449300  0.89950700  0.20410700  1
  H  H34  1  0.78583600  0.90109300  0.79682800  1
  H  H35  1  0.71449300  0.39950700  0.20410700  1
  H  H36  1  0.28583600  0.40109300  0.79682800  1
  H  H37  1  0.28454900  0.90018700  0.26983800  1
  H  H38  1  0.71577700  0.90140200  0.73113900  1
  H  H39  1  0.78454900  0.40018700  0.26983800  1
  H  H40  1  0.21577700  0.40140200  0.73113900  1
  H  H41  1  0.28866800  0.05014400  0.19948700  1
  H  H42  1  0.71130200  0.05177700  0.80025200  1
  H  H43  1  0.78866800  0.55014400  0.19948700  1
  H  H44  1  0.21130200  0.55177700  0.80025200  1
  H  H45  1  0.95173400  0.06656100  0.14850100  1
  H  H46  1  0.04582200  0.07227800  0.84858500  1
  H  H47  1  0.45173400  0.56656100  0.14850100  1
  H  H48  1  0.54582200  0.57227800  0.84858500  1
  H  H49  1  0.95120500  0.06542200  0.26052600  1
  H  H50  1  0.04636500  0.07045200  0.73657200  1
  H  H51  1  0.45120500  0.56542200  0.26052600  1
  H  H52  1  0.54636500  0.57045200  0.73657200  1
  H  H53  1  0.04770700  0.93013600  0.35092200  1
  H  H54  1  0.95462600  0.92825800  0.65162500  1
  H  H55  1  0.54770700  0.43013600  0.35092200  1
  H  H56  1  0.45462600  0.42825800  0.65162500  1
  H  H57  1  0.04608100  0.92803000  0.23698800  1
  H  H58  1  0.95634900  0.92699200  0.76565900  1
  H  H59  1  0.54608100  0.42803000  0.23698800  1
  H  H60  1  0.45634900  0.42699200  0.76565900  1
  H  H61  1  0.54642800  0.80470000  0.47164500  1
  H  H62  1  0.45445200  0.80474800  0.52722700  1
  H  H63  1  0.04642800  0.30470000  0.47164500  1
  H  H64  1  0.95445200  0.30474800  0.52722700  1
  H  H65  1  0.04772100  0.19249200  0.47474500  1
  H  H66  1  0.95358400  0.19251700  0.52519000  1
  H  H67  1  0.54772100  0.69249200  0.47474500  1
  H  H68  1  0.45358400  0.69251700  0.52519000  1
  H  H69  1  0.45325400  0.19204500  0.38650300  1
  H  H70  1  0.54584900  0.19298100  0.61487600  1
  H  H71  1  0.95325400  0.69204500  0.38650300  1
  H  H72  1  0.04584900  0.69298100  0.61487600  1
  H  H73  1  0.95186400  0.80437500  0.38644500  1
  H  H74  1  0.04674100  0.80530800  0.61367200  1
  H  H75  1  0.45186400  0.30437500  0.38644500  1
  H  H76  1  0.54674100  0.30530800  0.61367200  1
  H  H77  1  0.33022600  0.13363800  0.39607800  1
  H  H78  1  0.36341300  0.14571900  0.52735100  1
  H  H79  1  0.34491100  0.07716000  0.59527500  1
  H  H80  1  0.29226900  0.99643200  0.53042900  1
  H  H81  1  0.25830800  0.98375200  0.39960100  1
  H  H82  1  0.66952200  0.13413400  0.60295300  1
  H  H83  1  0.63630700  0.14545900  0.47158600  1
  H  H84  1  0.65495600  0.07647800  0.40421300  1
  H  H85  1  0.70777700  0.99609100  0.46970800  1
  H  H86  1  0.74177000  0.98416900  0.60063700  1
  H  H87  1  0.83022600  0.63363800  0.39607800  1
  H  H88  1  0.86341300  0.64571900  0.52735100  1
  H  H89  1  0.84491100  0.57716000  0.59527500  1
  H  H90  1  0.79226900  0.49643200  0.53042900  1
  H  H91  1  0.75830800  0.48375200  0.39960100  1
  H  H92  1  0.16952200  0.63413400  0.60295300  1
  H  H93  1  0.13630700  0.64545900  0.47158600  1
  H  H94  1  0.15495600  0.57647800  0.40421300  1
  H  H95  1  0.20777700  0.49609100  0.46970800  1
  H  H96  1  0.24177000  0.48416900  0.60063700  1
  C  C1  1  0.99881800  0.99711800  0.11883100  1
  C  C2  1  0.00122100  0.99987700  0.88108100  1
  C  C3  1  0.49881800  0.49711800  0.11883100  1
  C  C4  1  0.50122100  0.49987700  0.88108100  1
  C  C5  1  0.08195800  0.99726300  0.07894900  1
  C  C6  1  0.91812400  0.99979400  0.92105700  1
  C  C7  1  0.58195800  0.49726300  0.07894900  1
  C  C8  1  0.41812400  0.49979400  0.92105700  1
  C  C9  1  0.22581200  0.93679000  0.24513500  1
  C  C10  1  0.77441500  0.93813400  0.75549000  1
  C  C11  1  0.72581200  0.43679000  0.24513500  1
  C  C12  1  0.27441500  0.43813400  0.75549000  1
  C  C13  1  0.22492200  0.04856200  0.26303000  1
  C  C14  1  0.77501900  0.04979800  0.73666500  1
  C  C15  1  0.72492200  0.54856200  0.26303000  1
  C  C16  1  0.27501900  0.54979800  0.73666500  1
  C  C17  1  0.27244800  0.05143000  0.30647200  1
  C  C18  1  0.72748800  0.05241900  0.69322200  1
  C  C19  1  0.77244800  0.55143000  0.30647200  1
  C  C20  1  0.22748800  0.55241900  0.69322200  1
  C  C21  1  0.37335400  0.99817500  0.36921300  1
  C  C22  1  0.62672100  0.99886000  0.63097400  1
  C  C23  1  0.87335400  0.49817500  0.36921300  1
  C  C24  1  0.12672100  0.49886000  0.63097400  1
  C  C25  1  0.21052900  0.99800900  0.20661700  1
  C  C26  1  0.78955000  0.99957700  0.79349700  1
  C  C27  1  0.71052900  0.49800900  0.20661700  1
  C  C28  1  0.28955000  0.49957700  0.79349700  1
  C  C29  1  0.27325400  0.93630300  0.29096800  1
  C  C30  1  0.72697300  0.93738600  0.70969000  1
  C  C31  1  0.77325400  0.43630300  0.29096800  1
  C  C32  1  0.22697300  0.43738600  0.70969000  1
  C  C33  1  0.28978500  0.99803100  0.28519100  1
  C  C34  1  0.71029200  0.99915300  0.71496400  1
  C  C35  1  0.78978500  0.49803100  0.28519100  1
  C  C36  1  0.21029200  0.49915300  0.71496400  1
  C  C37  1  0.27574600  0.00683200  0.20607800  1
  C  C38  1  0.72432500  0.00842200  0.79401000  1
  C  C39  1  0.77574600  0.50683200  0.20607800  1
  C  C40  1  0.22432500  0.50842200  0.79401000  1
  C  C41  1  0.22824000  0.00888600  0.15941600  1
  C  C42  1  0.77182600  0.01073600  0.84063000  1
  C  C43  1  0.72824000  0.50888600  0.15941600  1
  C  C44  1  0.27182600  0.51073600  0.84063000  1
  C  C45  1  0.33562400  0.99804300  0.33106500  1
  C  C46  1  0.66445200  0.99891600  0.66911200  1
  C  C47  1  0.83562400  0.49804300  0.33106500  1
  C  C48  1  0.16445200  0.49891600  0.66911200  1
  C  C49  1  0.16469600  0.99771500  0.16071000  1
  C  C50  1  0.83538400  0.99956700  0.83937600  1
  C  C51  1  0.66469600  0.49771500  0.16071000  1
  C  C52  1  0.33538400  0.49956700  0.83937600  1
  C  C53  1  0.12694500  0.99748500  0.12320100  1
  C  C54  1  0.87313600  0.99962000  0.87685200  1
  C  C55  1  0.62694500  0.49748500  0.12320100  1
  C  C56  1  0.37313600  0.49962000  0.87685200  1
  C  C57  1  0.97268000  0.03630900  0.19276800  1
  C  C58  1  0.02592900  0.04037700  0.80552400  1
  C  C59  1  0.47268000  0.53630900  0.19276800  1
  C  C60  1  0.52592900  0.54037700  0.80552400  1
  C  C61  1  0.97216600  0.03534200  0.25552500  1
  C  C62  1  0.02646200  0.03904200  0.74278900  1
  C  C63  1  0.47216600  0.53534200  0.25552500  1
  C  C64  1  0.52646200  0.53904200  0.74278900  1
  C  C65  1  0.99949500  0.99780500  0.31273400  1
  C  C66  1  0.00045100  0.99933800  0.68709100  1
  C  C67  1  0.49949500  0.49780500  0.31273400  1
  C  C68  1  0.50045100  0.49933800  0.68709100  1
  C  C69  1  0.02644400  0.95992600  0.30637500  1
  C  C70  1  0.97483900  0.95973700  0.69497500  1
  C  C71  1  0.52644400  0.45992600  0.30637500  1
  C  C72  1  0.47483900  0.45973700  0.69497500  1
  C  C73  1  0.02527900  0.95838300  0.24209600  1
  C  C74  1  0.97607000  0.95868500  0.75932100  1
  C  C75  1  0.52527900  0.45838300  0.24209600  1
  C  C76  1  0.47607000  0.45868500  0.75932100  1
  C  C77  1  0.99883300  0.99720900  0.18568200  1
  C  C78  1  0.00116200  0.99960000  0.81418800  1
  C  C79  1  0.49883300  0.49720900  0.18568200  1
  C  C80  1  0.50116200  0.49960000  0.81418800  1
  C  C81  1  0.49956700  0.18542100  0.50072800  1
  C  C82  1  0.99956700  0.68542100  0.50072800  1
  C  C83  1  0.50029700  0.87879800  0.49907100  1
  C  C84  1  0.00029700  0.37879800  0.49907100  1
  C  C85  1  0.41828200  0.99842900  0.41498400  1
  C  C86  1  0.58179300  0.99890300  0.58520000  1
  C  C87  1  0.91828200  0.49842900  0.41498400  1
  C  C88  1  0.08179300  0.49890300  0.58520000  1
  C  C89  1  0.49972800  0.11854300  0.50109500  1
  C  C90  1  0.99972800  0.61854300  0.50109500  1
  C  C91  1  0.99915600  0.87881100  0.49964000  1
  C  C92  1  0.49915600  0.37881100  0.49964000  1
  C  C93  1  0.99997900  0.99819600  0.38001400  1
  C  C94  1  0.99996500  0.99920700  0.61981100  1
  C  C95  1  0.49997900  0.49819600  0.38001400  1
  C  C96  1  0.49996500  0.49920700  0.61981100  1
  C  C97  1  0.00079000  0.11846200  0.50030600  1
  C  C98  1  0.50079000  0.61846200  0.50030600  1
  C  C99  1  0.52610500  0.78019500  0.48371700  1
  C  C100  1  0.47487000  0.78022300  0.51539100  1
  C  C101  1  0.02610500  0.28019500  0.48371700  1
  C  C102  1  0.97487000  0.28022300  0.51539100  1
  C  C103  1  0.02707100  0.21702800  0.48602100  1
  C  C104  1  0.97414200  0.21704100  0.51368700  1
  C  C105  1  0.52707100  0.71702800  0.48602100  1
  C  C106  1  0.47414200  0.71704100  0.51368700  1
  C  C107  1  0.00066600  0.18535200  0.50000200  1
  C  C108  1  0.50066600  0.68535200  0.50000200  1
  C  C109  1  0.50042700  0.81189900  0.49940100  1
  C  C110  1  0.00042700  0.31189900  0.49940100  1
  C  C111  1  0.47368800  0.21682900  0.43656700  1
  C  C112  1  0.52530100  0.21735100  0.56453800  1
  C  C113  1  0.97368800  0.71682900  0.43656700  1
  C  C114  1  0.02530100  0.71735100  0.56453800  1
  C  C115  1  0.97268200  0.78000400  0.43664800  1
  C  C116  1  0.02602700  0.78052600  0.56374900  1
  C  C117  1  0.47268200  0.28000400  0.43664800  1
  C  C118  1  0.52602700  0.28052600  0.56374900  1
  C  C119  1  0.99928700  0.81193400  0.50002000  1
  C  C120  1  0.49928700  0.31193400  0.50002000  1
  C  C121  1  0.29205800  0.05731000  0.38757100  1
  C  C122  1  0.32136900  0.10315100  0.42464800  1
  C  C123  1  0.34034800  0.11006700  0.49893800  1
  C  C124  1  0.33004300  0.07165300  0.53702500  1
  C  C125  1  0.30060800  0.02637900  0.50067200  1
  C  C126  1  0.28162300  0.01918600  0.42640300  1
  C  C127  1  0.70785500  0.05782100  0.61207400  1
  C  C128  1  0.67844400  0.10346600  0.57462900  1
  C  C129  1  0.65944900  0.10995600  0.50028500  1
  C  C130  1  0.66983700  0.07130500  0.46250700  1
  C  C131  1  0.69937100  0.02622200  0.49922300  1
  C  C132  1  0.71837400  0.01945800  0.57354900  1
  C  C133  1  0.79205800  0.55731000  0.38757100  1
  C  C134  1  0.82136900  0.60315100  0.42464800  1
  C  C135  1  0.84034800  0.61006700  0.49893800  1
  C  C136  1  0.83004300  0.57165300  0.53702500  1
  C  C137  1  0.80060800  0.52637900  0.50067200  1
  C  C138  1  0.78162300  0.51918600  0.42640300  1
  C  C139  1  0.20785500  0.55782100  0.61207400  1
  C  C140  1  0.17844400  0.60346600  0.57462900  1
  C  C141  1  0.15944900  0.60995600  0.50028500  1
  C  C142  1  0.16983700  0.57130500  0.46250700  1
  C  C143  1  0.19937100  0.52622200  0.49922300  1
  C  C144  1  0.21837400  0.51945800  0.57354900  1
  O  O1  1  0.00060700  0.94416000  0.09220200  1
  O  O2  1  0.00129900  0.94697400  0.90976000  1
  O  O3  1  0.50060700  0.44416000  0.09220200  1
  O  O4  1  0.50129900  0.44697400  0.90976000  1
  O  O5  1  0.99761000  0.05002200  0.08912200  1
  O  O6  1  0.00063100  0.05292700  0.90881000  1
  O  O7  1  0.49761000  0.55002200  0.08912200  1
  O  O8  1  0.50063100  0.55292700  0.90881000  1
  O  O9  1  0.06257500  0.94422200  0.06077500  1
  O  O10  1  0.93769200  0.94691700  0.94198700  1
  O  O11  1  0.56257500  0.44422200  0.06077500  1
  O  O12  1  0.43769200  0.44691700  0.94198700  1
  O  O13  1  0.06236900  0.05016000  0.05950100  1
  O  O14  1  0.93752200  0.05279500  0.93765900  1
  O  O15  1  0.56236900  0.55016000  0.05950100  1
  O  O16  1  0.43752200  0.55279500  0.93765900  1
  O  O17  1  0.49858900  0.90746200  0.55040200  1
  O  O18  1  0.50189000  0.90713000  0.44748100  1
  O  O19  1  0.99858900  0.40746200  0.55040200  1
  O  O20  1  0.00189000  0.40713000  0.44748100  1
  O  O21  1  0.43582100  0.00055500  0.48597500  1
  O  O22  1  0.56424900  0.99825100  0.51417700  1
  O  O23  1  0.93582100  0.50055500  0.48597500  1
  O  O24  1  0.06424900  0.49825100  0.51417700  1
  O  O25  1  0.43965500  0.99629700  0.38370000  1
  O  O26  1  0.56041500  0.99943300  0.61651300  1
  O  O27  1  0.93965500  0.49629700  0.38370000  1
  O  O28  1  0.06041500  0.49943300  0.61651300  1
  O  O29  1  0.49933300  0.09023000  0.55386100  1
  O  O30  1  0.50030600  0.08988800  0.44865400  1
  O  O31  1  0.99933300  0.59023000  0.55386100  1
  O  O32  1  0.00030600  0.58988800  0.44865400  1
  O  O33  1  0.96291200  0.90713500  0.46523100  1
  O  O34  1  0.03530700  0.90744600  0.53370400  1
  O  O35  1  0.46291200  0.40713500  0.46523100  1
  O  O36  1  0.53530700  0.40744600  0.53370400  1
  O  O37  1  0.96398300  0.99883700  0.37514600  1
  O  O38  1  0.03591300  0.00195700  0.62462900  1
  O  O39  1  0.46398300  0.49883700  0.37514600  1
  O  O40  1  0.53591300  0.50195700  0.62462900  1
  O  O41  1  0.03638900  0.99781300  0.44213800  1
  O  O42  1  0.96360800  0.99613200  0.55775600  1
  O  O43  1  0.53638900  0.49781300  0.44213800  1
  O  O44  1  0.46360800  0.49613200  0.55775600  1
  O  O45  1  0.96470600  0.08983600  0.46973200  1
  O  O46  1  0.03695900  0.09012200  0.53102600  1
  O  O47  1  0.46470600  0.58983600  0.46973200  1
  O  O48  1  0.53695900  0.59012200  0.53102600  1
