# generated using pymatgen
data_Zn2H24C31N4O9
_symmetry_space_group_name_H-M   'P 1'
_cell_length_a   8.52479500
_cell_length_b   10.69390900
_cell_length_c   14.24895900
_cell_angle_alpha   97.80644200
_cell_angle_beta   90.10272400
_cell_angle_gamma   90.00840500
_symmetry_Int_Tables_number   1
_chemical_formula_structural   Zn2H24C31N4O9
_chemical_formula_sum   'Zn2 H24 C31 N4 O9'
_cell_volume   1286.94289381
_cell_formula_units_Z   1
loop_
 _symmetry_equiv_pos_site_id
 _symmetry_equiv_pos_as_xyz
  1  'x, y, z'
loop_
 _atom_site_type_symbol
 _atom_site_label
 _atom_site_symmetry_multiplicity
 _atom_site_fract_x
 _atom_site_fract_y
 _atom_site_fract_z
 _atom_site_occupancy
  Zn  Zn1  1  0.49449200  0.50257600  0.10547600  1
  Zn  Zn2  1  0.49429600  0.51567000  0.89735600  1
  H  H1  1  0.60559500  0.90566700  0.01672700  1
  H  H2  1  0.99074900  0.60207300  0.05870300  1
  H  H3  1  0.99091700  0.41694200  0.94439800  1
  H  H4  1  0.24927400  0.91243700  0.99410300  1
  H  H5  1  0.24965600  0.10545600  0.00716900  1
  H  H6  1  0.72705700  0.59787400  0.59684900  1
  H  H7  1  0.74367300  0.52015400  0.43838800  1
  H  H8  1  0.38156500  0.33017600  0.41971700  1
  H  H9  1  0.58906000  0.31366800  0.39840400  1
  H  H10  1  0.66896800  0.37675000  0.54929900  1
  H  H11  1  0.35478800  0.67031100  0.44721500  1
  H  H12  1  0.24244500  0.52773000  0.41325100  1
  H  H13  1  0.29141700  0.63711800  0.59803800  1
  H  H14  1  0.64649700  0.66628100  0.42302100  1
  H  H15  1  0.56892700  0.70469500  0.57819600  1
  H  H16  1  0.25049500  0.47147300  0.56317500  1
  H  H17  1  0.66443600  0.29861500  0.69081700  1
  H  H18  1  0.66979300  0.17176400  0.59228700  1
  H  H19  1  0.44745700  0.19307400  0.76347700  1
  H  H20  1  0.61573300  0.09252900  0.74280500  1
  H  H21  1  0.23704000  0.16285700  0.67405500  1
  H  H22  1  0.22803000  0.03910300  0.57599700  1
  H  H23  1  0.26006600  0.24677900  0.52584700  1
  H  H24  1  0.42470500  0.14233400  0.48830100  1
  C  C1  1  0.99259900  0.70005000  0.04784400  1
  C  C2  1  0.13314100  0.75676500  0.03339800  1
  C  C3  1  0.13629000  0.87766400  0.01156300  1
  C  C4  1  0.85382000  0.76085200  0.03488700  1
  C  C5  1  0.85589600  0.88585400  0.01782300  1
  C  C6  1  0.99812200  0.94635100  0.00913800  1
  C  C7  1  0.99814500  0.07222500  0.99335900  1
  C  C8  1  0.13645300  0.14054200  0.99028700  1
  C  C9  1  0.13317400  0.26165800  0.96885000  1
  C  C10  1  0.71742600  0.95097800  0.00966500  1
  C  C11  1  0.85615700  0.13360700  0.98557100  1
  C  C12  1  0.85420100  0.25826900  0.96855800  1
  C  C13  1  0.99268700  0.31891300  0.95511900  1
  C  C14  1  0.27434200  0.67965300  0.02362500  1
  C  C15  1  0.27439200  0.33855700  0.97869900  1
  C  C16  1  0.71223700  0.33570000  0.97876600  1
  C  C17  1  0.71249700  0.68241500  0.02454300  1
  C  C18  1  0.63578000  0.57702200  0.45407500  1
  C  C19  1  0.49769500  0.37069900  0.43976600  1
  C  C20  1  0.53946200  0.38338100  0.54514200  1
  C  C21  1  0.49467200  0.50274100  0.41224600  1
  C  C22  1  0.61345800  0.60695300  0.56029700  1
  C  C23  1  0.49466300  0.51508100  0.59055200  1
  C  C24  1  0.33401500  0.54889500  0.55585200  1
  C  C25  1  0.34711800  0.56803900  0.45270000  1
  C  C26  1  0.49447600  0.52113500  0.69373500  1
  C  C27  1  0.49497500  0.49695300  0.30908300  1
  C  C28  1  0.59330400  0.22734100  0.64542600  1
  C  C29  1  0.52037300  0.13928000  0.70756000  1
  C  C30  1  0.30664200  0.10992000  0.61608500  1
  C  C31  1  0.36510600  0.19840300  0.54920000  1
  N  N1  1  0.72001800  0.07255200  0.99445000  1
  N  N2  1  0.49433900  0.52393700  0.77518900  1
  N  N3  1  0.49507800  0.49431400  0.22764400  1
  N  N4  1  0.47249500  0.28912600  0.59809200  1
  O  O1  1  0.32538300  0.64335500  0.93745500  1
  O  O2  1  0.32966700  0.63619600  0.09890700  1
  O  O3  1  0.32558500  0.37484000  0.06493000  1
  O  O4  1  0.32932500  0.38206600  0.90348000  1
  O  O5  1  0.66296700  0.37445200  0.06502400  1
  O  O6  1  0.65833200  0.38136400  0.90403800  1
  O  O7  1  0.66281000  0.64382000  0.93825600  1
  O  O8  1  0.65873500  0.63684700  0.09922900  1
  O  O9  1  0.43195400  0.04693100  0.65223900  1
