# Generated by REPEAT Assigner based on pymatgen
data_DB0-m3_o18_o148_f0_fsc.sym.25_sqe
_audit_creation_date              2022-05-24
_audit_creation_method            REPEAT_Assigner
_cell_length_a                    8.532890
_cell_length_b                    10.828244
_cell_length_c                    14.101651
_cell_angle_alpha                 110.349675
_cell_angle_beta                  90.084904
_cell_angle_gamma                 89.998271
_cell_volume                      1221.618255
_symmetry_space_group_name_H-M    P1
_symmetry_Int_Tables_number       1
loop_
    _symmetry_equiv_pos_site_id
    _symmetry_equiv_pos_as_xyz
    1  x,y,z
loop_
    _atom_site_type_symbol
    _atom_site_label
    _atom_site_fract_x
    _atom_site_fract_y
    _atom_site_fract_z
    _atom_type_partial_charge
    C   C1   0.026698  0.683347  0.974043  -0.207935
    C   C2   0.886475  0.748073  0.987967  0.003050
    C   C3   0.882515  0.879480  0.001052  -0.351053
    C   C4   0.165273  0.750422  0.984300  -0.083096
    C   C5   0.163375  0.881877  0.992056  -0.182056
    C   C6   0.020772  0.945751  0.996365  0.417065
    C   C7   0.020594  0.075791  0.999322  -0.317475
    C   C8   0.881848  0.142697  0.997064  -0.085942
    C   C9   0.885751  0.274048  0.009891  -0.149908
    C   C10  0.301666  0.949017  0.993388  0.278287
    N   N1   0.299000  0.075188  0.997717  -0.667241
    C   C11  0.162881  0.139325  0.000988  0.640868
    C   C12  0.164496  0.270239  0.008147  -0.325260
    C   C13  0.026246  0.338091  0.020735  0.009351
    H   H1   0.413339  0.900645  0.989947  0.047676
    H   H2   0.028538  0.579603  0.959945  0.162457
    H   H3   0.028146  0.441745  0.034464  0.081706
    H   H4   0.769103  0.925258  0.014718  0.188184
    H   H5   0.768122  0.097346  0.985087  0.074201
    O   O1   0.694323  0.341384  0.915758  -0.701178
    O   O2   0.688032  0.428716  0.090576  -0.723520
    C   C14  0.743710  0.346378  0.005322  0.859351
    O   O3   0.694494  0.679611  0.081453  -0.663669
    O   O4   0.689325  0.593302  0.906947  -0.784320
    C   C15  0.744623  0.675314  0.992347  0.888752
    O   O5   0.355313  0.679575  0.078619  -0.649881
    O   O6   0.361746  0.592882  0.904931  -0.771437
    C   C16  0.307279  0.676964  0.989428  0.902133
    O   O7   0.356094  0.340337  0.913966  -0.716674
    O   O8   0.361052  0.426935  0.088367  -0.704793
    C   C17  0.307316  0.342873  0.003224  0.865081
    Zn  Zn1  0.523723  0.569150  0.110415  1.005309
    Zn  Zn2  0.525557  0.452000  0.884819  1.070768
    N   N2   0.520982  0.635216  0.243159  0.006991
    N   N3   0.527100  0.386740  0.752297  0.143025
    C   C18  0.470554  0.798933  0.401466  -0.194023
    C   C19  0.484140  0.761428  0.298267  0.048608
    C   C20  0.533628  0.544586  0.289131  -0.117267
    C   C21  0.518497  0.578562  0.393831  -0.009140
    C   C22  0.488135  0.708653  0.449087  0.263756
    C   C23  0.529445  0.486867  0.444460  0.071223
    C   C24  0.512490  0.529535  0.549729  0.029758
    C   C25  0.479841  0.661782  0.601667  -0.100507
    C   C26  0.468910  0.749472  0.551721  -0.282665
    C   C27  0.555354  0.353247  0.392654  -0.122074
    C   C28  0.560667  0.265049  0.442967  -0.260677
    C   C29  0.545666  0.307034  0.546156  0.232069
    C   C30  0.525062  0.438909  0.600780  0.042739
    C   C31  0.553949  0.216577  0.595019  -0.247094
    C   C32  0.543169  0.257908  0.698798  -0.141742
    C   C33  0.520425  0.476400  0.705785  -0.141661
    H   H6   0.442096  0.851355  0.594118  0.165935
    H   H7   0.517382  0.577624  0.753791  0.168816
    H   H8   0.551061  0.187328  0.737150  0.164973
    H   H9   0.578992  0.161781  0.400415  0.152555
    H   H10  0.443287  0.900226  0.445168  0.071960
    H   H11  0.550091  0.444544  0.241246  0.181384
    H   H12  0.456612  0.702210  0.681268  0.127710
    H   H13  0.570831  0.311377  0.312317  0.138011
    H   H14  0.570257  0.113168  0.552265  0.164970
    C   C34  0.453773  0.861419  0.251947  0.412193
    O   O9   0.547610  0.878611  0.192824  -0.427316
    C   C35  0.317572  0.949372  0.282973  -0.103109
    C   C36  0.314362  0.065550  0.262854  0.108518
    C   C37  0.186870  0.148496  0.291115  -0.109729
    C   C38  0.061295  0.115346  0.338722  -0.116629
    C   C39  0.062747  0.998710  0.357494  -0.110526
    C   C40  0.190188  0.915617  0.329536  -0.055977
    H   H15  0.411925  0.093101  0.225629  0.062987
    H   H16  0.185406  0.239616  0.275798  0.084563
    H   H17  0.961243  0.180296  0.360633  0.117982
    H   H18  0.963333  0.971872  0.393660  0.089206
    H   H19  0.186705  0.823050  0.342473  0.081403
