# generated using pymatgen
data_Zn2H15C26Br(NO4)2
_symmetry_space_group_name_H-M   'P 1'
_cell_length_a   15.03818300
_cell_length_b   11.12629300
_cell_length_c   9.91130900
_cell_angle_alpha   89.99737200
_cell_angle_beta   89.98545900
_cell_angle_gamma   90.00889200
_symmetry_Int_Tables_number   1
_chemical_formula_structural   Zn2H15C26Br(NO4)2
_chemical_formula_sum   'Zn2 H15 C26 Br1 N2 O8'
_cell_volume   1658.35251748
_cell_formula_units_Z   1
loop_
 _symmetry_equiv_pos_site_id
 _symmetry_equiv_pos_as_xyz
  1  'x, y, z'
loop_
 _atom_site_type_symbol
 _atom_site_label
 _atom_site_symmetry_multiplicity
 _atom_site_fract_x
 _atom_site_fract_y
 _atom_site_fract_z
 _atom_site_occupancy
  Zn  Zn1  1  0.50170000  0.49951100  0.66681800  1
  Zn  Zn2  1  0.50026300  0.50116900  0.35988500  1
  H  H1  1  0.78296200  0.58340400  0.70721400  1
  H  H2  1  0.78065300  0.43195200  0.31161000  1
  H  H3  1  0.91565000  0.37745900  0.20555100  1
  H  H4  1  0.07401800  0.36225100  0.20594600  1
  H  H5  1  0.21933900  0.56916500  0.70833100  1
  H  H6  1  0.08348500  0.61553100  0.81799700  1
  H  H7  1  0.92115100  0.62275600  0.81724700  1
  H  H8  1  0.50474700  0.88751900  0.30999600  1
  H  H9  1  0.48780000  0.90808700  0.61791000  1
  H  H10  1  0.49528800  0.10917700  0.30671000  1
  H  H11  1  0.51738200  0.09446400  0.61378400  1
  H  H12  1  0.56765100  0.65982700  0.88892800  1
  H  H13  1  0.49136600  0.41794100  0.91696800  1
  H  H14  1  0.59863600  0.62697900  0.13829700  1
  H  H15  1  0.44406200  0.46745600  0.10969400  1
  C  C1  1  0.50720600  0.26538200  0.51037000  1
  C  C2  1  0.32716200  0.48981500  0.51706000  1
  C  C3  1  0.49555600  0.73535800  0.51668600  1
  C  C4  1  0.67447300  0.50876100  0.50919700  1
  C  C5  1  0.81787300  0.54806700  0.62054200  1
  C  C6  1  0.77133100  0.50861700  0.50901800  1
  C  C7  1  0.81650200  0.46486900  0.39854800  1
  C  C8  1  0.90777100  0.45788800  0.40076600  1
  C  C9  1  0.95454600  0.49815700  0.51125900  1
  C  C10  1  0.90949400  0.54437200  0.62084700  1
  C  C11  1  0.95208300  0.40941900  0.29246600  1
  C  C12  1  0.04315000  0.40021500  0.29423700  1
  C  C13  1  0.09124100  0.44179400  0.40437300  1
  C  C14  1  0.04619400  0.49176700  0.51243500  1
  C  C15  1  0.09243000  0.53432600  0.62263100  1
  C  C16  1  0.04740700  0.58190800  0.73153500  1
  C  C17  1  0.95597600  0.58609900  0.73113500  1
  C  C18  1  0.18344400  0.43400900  0.40761300  1
  C  C19  1  0.22982600  0.48375600  0.51580300  1
  C  C20  1  0.18381800  0.53138700  0.62357900  1
  C  C21  1  0.50071500  0.93277100  0.40660400  1
  C  C22  1  0.49422000  0.86712400  0.51966300  1
  C  C23  1  0.50109500  0.06592400  0.40427300  1
  C  C24  1  0.50935000  0.13378600  0.51499500  1
  C  C25  1  0.54039200  0.58161100  0.93925000  1
  C  C26  1  0.54935200  0.57205000  0.08768400  1
  Br  Br1  1  0.24450300  0.34344800  0.27047700  1
  N  N1  1  0.50511000  0.49734100  0.86852700  1
  N  N2  1  0.49765900  0.50483600  0.15818700  1
  O  O1  1  0.50694300  0.32131700  0.62643300  1
  O  O2  1  0.50539100  0.32161100  0.39390000  1
  O  O3  1  0.36883000  0.49315600  0.63333700  1
  O  O4  1  0.36865000  0.49533800  0.40151800  1
  O  O5  1  0.49659600  0.67894500  0.63303800  1
  O  O6  1  0.49729800  0.67976300  0.39981200  1
  O  O7  1  0.63354700  0.50755300  0.62616000  1
  O  O8  1  0.63312500  0.50651400  0.39253600  1
