# generated using pymatgen
data_Cu3H4C30(ClO3)4
_symmetry_space_group_name_H-M   'P 1'
_cell_length_a   32.06310100
_cell_length_b   32.06310300
_cell_length_c   23.64085400
_cell_angle_alpha   90.00000000
_cell_angle_beta   90.00000000
_cell_angle_gamma   90.00000000
_symmetry_Int_Tables_number   1
_chemical_formula_structural   Cu3H4C30(ClO3)4
_chemical_formula_sum   'Cu12 H16 C120 Cl16 O48'
_cell_volume   24303.80288145
_cell_formula_units_Z   4
loop_
 _symmetry_equiv_pos_site_id
 _symmetry_equiv_pos_as_xyz
  1  'x, y, z'
loop_
 _atom_site_type_symbol
 _atom_site_label
 _atom_site_symmetry_multiplicity
 _atom_site_fract_x
 _atom_site_fract_y
 _atom_site_fract_z
 _atom_site_occupancy
  Cu  Cu1  1  0.95920900  0.49964400  0.50110800  1
  Cu  Cu2  1  0.49959500  0.04237600  0.50114400  1
  Cu  Cu3  1  0.04237100  0.49970900  0.50114000  1
  Cu  Cu4  1  0.49976500  0.95921400  0.50111200  1
  Cu  Cu5  1  0.45812900  0.99981600  0.00110900  1
  Cu  Cu6  1  0.99979100  0.54130700  0.00110300  1
  Cu  Cu7  1  0.54131300  0.99991500  0.00114700  1
  Cu  Cu8  1  0.99993000  0.45812300  0.00114000  1
  Cu  Cu9  1  0.99972600  0.99964400  0.44247200  1
  Cu  Cu10  1  0.99964200  0.99972400  0.55519800  1
  Cu  Cu11  1  0.49982400  0.49982800  0.94250300  1
  Cu  Cu12  1  0.49986800  0.49987600  0.05517000  1
  H  H1  1  0.04739100  0.21074300  0.56302200  1
  H  H2  1  0.21118200  0.95340200  0.56356300  1
  H  H3  1  0.95332000  0.78823500  0.56359000  1
  H  H4  1  0.78852700  0.04730900  0.56301900  1
  H  H5  1  0.95396100  0.21174600  0.43495100  1
  H  H6  1  0.78767100  0.95388400  0.43490800  1
  H  H7  1  0.04674900  0.78796100  0.43547800  1
  H  H8  1  0.21130300  0.04682900  0.43548800  1
  H  H9  1  0.54675500  0.71122300  0.06346400  1
  H  H10  1  0.71117900  0.45272300  0.06345100  1
  H  H11  1  0.45285300  0.28860700  0.06314700  1
  H  H12  1  0.28854900  0.54682400  0.06313200  1
  H  H13  1  0.45329700  0.71168100  0.93539900  1
  H  H14  1  0.28796500  0.45340100  0.93503300  1
  H  H15  1  0.54627600  0.28792100  0.93505200  1
  H  H16  1  0.71171000  0.54618300  0.93539000  1
  C  C1  1  0.00114900  0.41964900  0.50149900  1
  C  C2  1  0.41965200  0.00092800  0.50162800  1
  C  C3  1  0.00043200  0.57970500  0.50161700  1
  C  C4  1  0.57971000  0.00066100  0.50150400  1
  C  C5  1  0.49981500  0.91983400  0.00157600  1
  C  C6  1  0.91982900  0.49958200  0.00157500  1
  C  C7  1  0.49962800  0.07987700  0.00155600  1
  C  C8  1  0.07987200  0.49984800  0.00154500  1
  C  C9  1  0.00081000  0.49972300  0.39260900  1
  C  C10  1  0.49964100  0.00081300  0.39261400  1
  C  C11  1  0.00076300  0.49963900  0.60966400  1
  C  C12  1  0.49972800  0.00077100  0.60966800  1
  C  C13  1  0.49975000  0.99951700  0.89264200  1
  C  C14  1  0.99951000  0.49968800  0.89263700  1
  C  C15  1  0.49969300  0.99957300  0.10963800  1
  C  C16  1  0.99956900  0.49974100  0.10963100  1
  C  C17  1  0.07960900  0.99923900  0.49894500  1
  C  C18  1  0.99925600  0.91973500  0.49894000  1
  C  C19  1  0.91973400  0.99946800  0.49873000  1
  C  C20  1  0.99945200  0.07961100  0.49873200  1
  C  C21  1  0.57980900  0.49971500  0.99919100  1
  C  C22  1  0.49976400  0.41988900  0.99849100  1
  C  C23  1  0.41988200  0.49998700  0.99848700  1
  C  C24  1  0.49992000  0.57981600  0.99918500  1
  C  C25  1  0.00078800  0.49973800  0.33193400  1
  C  C26  1  0.49963700  0.00079100  0.33194000  1
  C  C27  1  0.00071800  0.49963400  0.67033500  1
  C  C28  1  0.49974200  0.00072400  0.67034300  1
  C  C29  1  0.49976100  0.99998600  0.83197800  1
  C  C30  1  0.99997800  0.49967300  0.83197100  1
  C  C31  1  0.49967600  0.00006300  0.17030700  1
  C  C32  1  0.00006300  0.49975300  0.17030000  1
  C  C33  1  0.00065600  0.49974800  0.28097000  1
  C  C34  1  0.49964400  0.00065800  0.28097600  1
  C  C35  1  0.00057300  0.49964200  0.72129700  1
  C  C36  1  0.49975300  0.00058100  0.72130600  1
  C  C37  1  0.49976200  0.00030700  0.78102100  1
  C  C38  1  0.00029800  0.49965800  0.78101200  1
  C  C39  1  0.49966100  0.00039100  0.22126600  1
  C  C40  1  0.00039100  0.49975300  0.22125900  1
  C  C41  1  0.02697200  0.22783800  0.53499000  1
  C  C42  1  0.22808600  0.97399700  0.53555300  1
  C  C43  1  0.97389400  0.77130900  0.53557400  1
  C  C44  1  0.77147400  0.02686800  0.53496800  1
  C  C45  1  0.97459100  0.22840000  0.46318800  1
  C  C46  1  0.77099300  0.97449300  0.46314800  1
  C  C47  1  0.02627100  0.77115600  0.46375400  1
  C  C48  1  0.22815400  0.02637700  0.46374700  1
  C  C49  1  0.52623500  0.72818800  0.03542300  1
  C  C50  1  0.72816200  0.47323000  0.03540900  1
  C  C51  1  0.47334700  0.27158400  0.03513400  1
  C  C52  1  0.27154900  0.52630900  0.03512000  1
  C  C53  1  0.47384200  0.72844500  0.96362900  1
  C  C54  1  0.27122300  0.47393400  0.96330400  1
  C  C55  1  0.52572300  0.27120000  0.96331900  1
  C  C56  1  0.72845800  0.52562400  0.96361800  1
  C  C57  1  0.00066900  0.20663400  0.49893100  1
  C  C58  1  0.20663700  0.00009400  0.49949300  1
  C  C59  1  0.00002300  0.79271900  0.49950400  1
  C  C60  1  0.79272000  0.00060400  0.49889700  1
  C  C61  1  0.50003900  0.70683200  0.99938800  1
  C  C62  1  0.70682600  0.49944600  0.99937800  1
  C  C63  1  0.49955800  0.29287500  0.99904700  1
  C  C64  1  0.29286900  0.50012500  0.99902900  1
  C  C65  1  0.97477800  0.27139600  0.46354400  1
  C  C66  1  0.27115300  0.02657100  0.46407000  1
  C  C67  1  0.02638900  0.72815500  0.46408000  1
  C  C68  1  0.72799700  0.97461200  0.46350700  1
  C  C69  1  0.02716900  0.27083300  0.53536200  1
  C  C70  1  0.72847700  0.02699300  0.53533600  1
  C  C71  1  0.97400600  0.72831600  0.53591000  1
  C  C72  1  0.27107800  0.97417900  0.53589300  1
  C  C73  1  0.47382500  0.77143800  0.96392700  1
  C  C74  1  0.77145200  0.52560400  0.96391200  1
  C  C75  1  0.52570400  0.22820400  0.96370700  1
  C  C76  1  0.22822700  0.47390600  0.96369300  1
  C  C77  1  0.52622600  0.77117700  0.03573200  1
  C  C78  1  0.22855700  0.52629000  0.03552200  1
  C  C79  1  0.47331900  0.22859200  0.03553300  1
  C  C80  1  0.77115100  0.47320300  0.03571500  1
  C  C81  1  0.00105500  0.29261700  0.49965400  1
  C  C82  1  0.29261900  0.00046900  0.50015200  1
  C  C83  1  0.00025300  0.70673300  0.50016400  1
  C  C84  1  0.70673600  0.00084600  0.49962700  1
  C  C85  1  0.50001200  0.79280500  0.99999200  1
  C  C86  1  0.79280000  0.49939900  0.99997400  1
  C  C87  1  0.49950800  0.20689900  0.99983100  1
  C  C88  1  0.20689400  0.50007800  0.99981800  1
  C  C89  1  0.00032000  0.16190600  0.49876300  1
  C  C90  1  0.16190700  0.99988300  0.49919800  1
  C  C91  1  0.99986400  0.83744300  0.49919300  1
  C  C92  1  0.83744400  0.00030700  0.49874400  1
  C  C93  1  0.49999300  0.66210700  0.99919900  1
  C  C94  1  0.66210100  0.49954100  0.99920400  1
  C  C95  1  0.49964200  0.33759900  0.99875500  1
  C  C96  1  0.33759200  0.50008100  0.99874400  1
  C  C97  1  0.00112700  0.33735700  0.50021100  1
  C  C98  1  0.33736100  0.00066800  0.50056200  1
  C  C99  1  0.00036300  0.66199500  0.50056100  1
  C  C100  1  0.66199800  0.00083100  0.50020000  1
  C  C101  1  0.49993100  0.83754700  0.00043700  1
  C  C102  1  0.83754100  0.49945400  0.00042500  1
  C  C103  1  0.49954400  0.16216400  0.00035200  1
  C  C104  1  0.16215800  0.49999400  0.00033800  1
  C  C105  1  0.00115300  0.37493100  0.50075800  1
  C  C106  1  0.37493300  0.00080400  0.50099500  1
  C  C107  1  0.00041600  0.62442300  0.50099000  1
  C  C108  1  0.62442600  0.00077300  0.50075300  1
  C  C109  1  0.49987100  0.87511900  0.00090600  1
  C  C110  1  0.87511300  0.49950900  0.00089900  1
  C  C111  1  0.49957900  0.12459100  0.00086200  1
  C  C112  1  0.12458500  0.49992500  0.00084800  1
  C  C113  1  0.99996600  0.12433800  0.49869900  1
  C  C114  1  0.12433700  0.99962800  0.49903300  1
  C  C115  1  0.99963600  0.87500700  0.49902500  1
  C  C116  1  0.87500700  0.99997600  0.49869000  1
  C  C117  1  0.49995900  0.62454100  0.99914100  1
  C  C118  1  0.62453500  0.49962200  0.99914900  1
  C  C119  1  0.49970100  0.37516400  0.99859000  1
  C  C120  1  0.37515700  0.50004400  0.99858200  1
  Cl  Cl1  1  0.06052000  0.29773300  0.58126700  1
  Cl  Cl2  1  0.29828700  0.94102900  0.58173300  1
  Cl  Cl3  1  0.94081000  0.70116100  0.58175000  1
  Cl  Cl4  1  0.70152400  0.06029100  0.58125900  1
  Cl  Cl5  1  0.94157800  0.29901000  0.41821900  1
  Cl  Cl6  1  0.70043400  0.94137100  0.41818200  1
  Cl  Cl7  1  0.05973400  0.70079300  0.41867300  1
  Cl  Cl8  1  0.29845900  0.05997100  0.41867500  1
  Cl  Cl9  1  0.55947500  0.79827100  0.08157100  1
  Cl  Cl10  1  0.79822000  0.43993400  0.08155700  1
  Cl  Cl11  1  0.44005600  0.20157900  0.08144000  1
  Cl  Cl12  1  0.20150800  0.55952300  0.08142800  1
  Cl  Cl13  1  0.44050900  0.79886500  0.91854700  1
  Cl  Cl14  1  0.20075400  0.44059700  0.91835400  1
  Cl  Cl15  1  0.55898400  0.20069700  0.91836800  1
  Cl  Cl16  1  0.79890200  0.55890300  0.91853700  1
  O  O1  1  0.96518100  0.43901400  0.49896600  1
  O  O2  1  0.43892200  0.03693200  0.49898600  1
  O  O3  1  0.03640200  0.56034100  0.49908200  1
  O  O4  1  0.56043700  0.96465900  0.49886500  1
  O  O5  1  0.03710000  0.43902200  0.49895400  1
  O  O6  1  0.56024300  0.03657800  0.49906200  1
  O  O7  1  0.96448100  0.56033300  0.49901000  1
  O  O8  1  0.43911700  0.96501400  0.49912600  1
  O  O9  1  0.46386900  0.93916900  0.99898400  1
  O  O10  1  0.93914700  0.53553600  0.99898000  1
  O  O11  1  0.53565700  0.06057100  0.99898100  1
  O  O12  1  0.06058400  0.46381000  0.99897000  1
  O  O13  1  0.53571800  0.93925300  0.99907300  1
  O  O14  1  0.06046500  0.53582300  0.99899600  1
  O  O15  1  0.46364200  0.06048700  0.99900700  1
  O  O16  1  0.93926500  0.46368700  0.99907000  1
  O  O17  1  0.06029700  0.00113400  0.45008100  1
  O  O18  1  0.00120500  0.93908200  0.45019300  1
  O  O19  1  0.93915700  0.00128200  0.45002900  1
  O  O20  1  0.00135500  0.06022200  0.44992600  1
  O  O21  1  0.93908500  0.00136200  0.54747500  1
  O  O22  1  0.00112300  0.93915200  0.54763800  1
  O  O23  1  0.06022200  0.00119400  0.54775000  1
  O  O24  1  0.00129200  0.06028900  0.54759200  1
  O  O25  1  0.56036800  0.49802200  0.95043800  1
  O  O26  1  0.49802100  0.43924100  0.94969300  1
  O  O27  1  0.43923200  0.49819800  0.94969100  1
  O  O28  1  0.49819100  0.56037700  0.95043300  1
  O  O29  1  0.43932500  0.50166800  0.04723700  1
  O  O30  1  0.50151000  0.43932900  0.04723900  1
  O  O31  1  0.56045900  0.50151700  0.04798200  1
  O  O32  1  0.50165600  0.56046200  0.04797700  1
  O  O33  1  0.96479500  0.50135300  0.41887900  1
  O  O34  1  0.49787900  0.03681500  0.41890900  1
  O  O35  1  0.03681700  0.49806400  0.41890200  1
  O  O36  1  0.50141400  0.96480700  0.41888300  1
  O  O37  1  0.03669600  0.49790500  0.58335500  1
  O  O38  1  0.49789400  0.03669700  0.58336100  1
  O  O39  1  0.96484900  0.50138600  0.58332600  1
  O  O40  1  0.50153300  0.96485900  0.58332900  1
  O  O41  1  0.46373500  0.00135900  0.91887600  1
  O  O42  1  0.00133300  0.53570400  0.91886900  1
  O  O43  1  0.53574600  0.00147000  0.91890800  1
  O  O44  1  0.00147900  0.46369200  0.91890200  1
  O  O45  1  0.53561800  0.00146700  0.08336400  1
  O  O46  1  0.00138700  0.53565800  0.08332500  1
  O  O47  1  0.46377700  0.00140800  0.08333200  1
  O  O48  1  0.00148100  0.46381600  0.08335800  1
