# generated using pymatgen
data_Zn6H65C112O24F
_symmetry_space_group_name_H-M   'P 1'
_cell_length_a   18.98437300
_cell_length_b   18.93646600
_cell_length_c   18.94132000
_cell_angle_alpha   109.41641700
_cell_angle_beta   109.51895300
_cell_angle_gamma   109.51784500
_symmetry_Int_Tables_number   1
_chemical_formula_structural   Zn6H65C112O24F
_chemical_formula_sum   'Zn6 H65 C112 O24 F1'
_cell_volume   5239.27289958
_cell_formula_units_Z   1
loop_
 _symmetry_equiv_pos_site_id
 _symmetry_equiv_pos_as_xyz
  1  'x, y, z'
loop_
 _atom_site_type_symbol
 _atom_site_label
 _atom_site_symmetry_multiplicity
 _atom_site_fract_x
 _atom_site_fract_y
 _atom_site_fract_z
 _atom_site_occupancy
  Zn  Zn1  1  0.49970300  0.57620100  0.57703000  1
  Zn  Zn2  1  0.49852700  0.43998300  0.43545400  1
  Zn  Zn3  1  0.07244700  0.00274100  0.57643200  1
  Zn  Zn4  1  0.93698300  0.00242600  0.43514700  1
  Zn  Zn5  1  0.06919500  0.57141400  0.00216800  1
  Zn  Zn6  1  0.92822300  0.43252000  0.99881800  1
  H  H1  1  0.79057700  0.84297400  0.89574700  1
  H  H2  1  0.68050200  0.67997900  0.11172500  1
  H  H3  1  0.81621700  0.70275000  0.21650700  1
  H  H4  1  0.84531000  0.73602800  0.36354200  1
  H  H5  1  0.56869300  0.90047300  0.57653100  1
  H  H6  1  0.41994700  0.85514200  0.54771200  1
  H  H7  1  0.30226000  0.70882200  0.43209500  1
  H  H8  1  0.48216500  0.65309800  0.37302000  1
  H  H9  1  0.59942200  0.79968900  0.48870700  1
  H  H10  1  0.25071500  0.63758500  0.26185000  1
  H  H11  1  0.24350300  0.37157800  0.24708600  1
  H  H12  1  0.77997300  0.94249200  0.84154200  1
  H  H13  1  0.07163100  0.29325300  0.18757800  1
  H  H14  1  0.96288600  0.14683900  0.06516500  1
  H  H15  1  0.03322400  0.21697400  0.89738400  1
  H  H16  1  0.14154100  0.36396600  0.01921600  1
  H  H17  1  0.17241700  0.56711900  0.49848900  1
  H  H18  1  0.19173800  0.53946500  0.61972700  1
  H  H19  1  0.22493600  0.42547600  0.62252400  1
  H  H20  1  0.21935100  0.36615900  0.38215100  1
  H  H21  1  0.18528700  0.47991300  0.37955300  1
  H  H22  1  0.12662100  0.25560300  0.50393900  1
  H  H23  1  0.76454600  0.91010200  0.69872200  1
  H  H24  1  0.38077400  0.24565000  0.50183500  1
  H  H25  1  0.40400300  0.19378100  0.61949800  1
  H  H26  1  0.43205200  0.07532600  0.61493600  1
  H  H27  1  0.32591600  0.92625400  0.49574000  1
  H  H28  1  0.19231900  0.89600000  0.38044100  1
  H  H29  1  0.16342900  0.01401900  0.38460500  1
  H  H30  1  0.62979600  0.50394800  0.76416100  1
  H  H31  1  0.73160700  0.53120100  0.56994700  1
  H  H32  1  0.85012500  0.52679200  0.55365100  1
  H  H33  1  0.95248800  0.50579100  0.65222600  1
  H  H34  1  0.77368800  0.68011700  0.66544500  1
  H  H35  1  0.93733700  0.49173900  0.76818100  1
  H  H36  1  0.74058700  0.49993700  0.87177500  1
  H  H37  1  0.03510300  0.67878100  0.58428800  1
  H  H38  1  0.15984900  0.79586600  0.60314200  1
  H  H39  1  0.14780400  0.82525900  0.48399400  1
  H  H40  1  0.88654000  0.61948000  0.32623500  1
  H  H41  1  0.89881200  0.59001100  0.44537800  1
  H  H42  1  0.00301400  0.62292900  0.25943800  1
  H  H43  1  0.00122600  0.87820200  0.25065600  1
  H  H44  1  0.11478900  0.90326800  0.20002000  1
  H  H45  1  0.78635800  0.71127900  0.80692000  1
  H  H46  1  0.11238800  0.93306400  0.08304600  1
  H  H47  1  0.99738400  0.82555400  0.93252800  1
  H  H48  1  0.88425400  0.68880400  0.89971600  1
  H  H49  1  0.88435400  0.65933300  0.01627500  1
  H  H50  1  0.39587700  0.33609900  0.81998100  1
  H  H51  1  0.35128200  0.31800600  0.92357100  1
  H  H52  1  0.20481200  0.28499800  0.89490700  1
  H  H53  1  0.14684600  0.28784500  0.65838400  1
  H  H54  1  0.29423500  0.32215700  0.68833300  1
  H  H55  1  0.13353800  0.38368500  0.87493700  1
  H  H56  1  0.87466200  0.88847800  0.64160100  1
  H  H57  1  0.86714600  0.12512400  0.62381300  1
  H  H58  1  0.80126000  0.10346400  0.72590200  1
  H  H59  1  0.65552300  0.07186600  0.69912200  1
  H  H60  1  0.60630700  0.17372500  0.68484300  1
  H  H61  1  0.70275300  0.30677200  0.69610700  1
  H  H62  1  0.84835200  0.33821700  0.72221800  1
  H  H63  1  0.62496200  0.63040500  0.37365000  1
  H  H64  1  0.60149100  0.72149300  0.30017600  1
  H  H65  1  0.57308000  0.68903000  0.15370800  1
  C  C1  1  0.37957900  0.50989900  0.38824900  1
  C  C2  1  0.78435800  0.82897200  0.83310400  1
  C  C3  1  0.33115000  0.32093500  0.80701200  1
  C  C4  1  0.07475100  0.32683900  0.81961400  1
  C  C5  1  0.99614700  0.31495700  0.81154900  1
  C  C6  1  0.92082100  0.24104700  0.74101000  1
  C  C7  1  0.92585600  0.18207300  0.67913000  1
  C  C8  1  0.00455100  0.19370900  0.68761300  1
  C  C9  1  0.07986000  0.26624400  0.75946800  1
  C  C10  1  0.78000800  0.14851100  0.71972300  1
  C  C11  1  0.69815600  0.13072000  0.70478700  1
  C  C12  1  0.67057000  0.18780600  0.69682300  1
  C  C13  1  0.81975700  0.83152700  0.58254600  1
  C  C14  1  0.72473100  0.26250100  0.70338900  1
  C  C15  1  0.80668400  0.28045100  0.71862000  1
  C  C16  1  0.83498900  0.22404700  0.72787800  1
  C  C17  1  0.81285600  0.81961300  0.50413200  1
  C  C18  1  0.74055900  0.74790700  0.42816700  1
  C  C19  1  0.67990800  0.68722100  0.43275900  1
  C  C20  1  0.68709100  0.69858700  0.51110800  1
  C  C21  1  0.75670000  0.77303500  0.58684800  1
  C  C22  1  0.64917400  0.71785700  0.28233500  1
  C  C23  1  0.63310300  0.69970000  0.19997100  1
  C  C24  1  0.69327800  0.69465400  0.17643900  1
  C  C25  1  0.61908800  0.63148500  0.51022500  1
  C  C26  1  0.76949800  0.70771700  0.23531800  1
  C  C27  1  0.78589400  0.72656000  0.31792300  1
  C  C28  1  0.72610300  0.73234700  0.34202300  1
  C  C29  1  0.43359600  0.81050200  0.50961000  1
  C  C30  1  0.36755000  0.72830800  0.44460100  1
  C  C31  1  0.38482400  0.67073300  0.39640600  1
  C  C32  1  0.46833100  0.69678100  0.41206600  1
  C  C33  1  0.53422100  0.77922200  0.47674000  1
  C  C34  1  0.51696300  0.83591200  0.52580900  1
  C  C35  1  0.24864700  0.57892400  0.25902400  1
  C  C36  1  0.62041200  0.50766200  0.62380800  1
  C  C37  1  0.18145100  0.49975300  0.18875200  1
  C  C38  1  0.17932700  0.42464400  0.18503100  1
  C  C39  1  0.24486600  0.43029900  0.25093700  1
  C  C40  1  0.31198000  0.50936800  0.32131700  1
  C  C41  1  0.31369400  0.58457600  0.32560200  1
  C  C42  1  0.06285200  0.27703400  0.12372800  1
  C  C43  1  0.00177200  0.19479500  0.05505800  1
  C  C44  1  0.99078300  0.17350900  0.97366400  1
  C  C45  1  0.04096700  0.23437000  0.96097200  1
  C  C46  1  0.10147700  0.31692800  0.02939200  1
  C  C47  1  0.37971200  0.38484300  0.50287200  1
  C  C48  1  0.11205700  0.33872200  0.11092800  1
  C  C49  1  0.19837500  0.50173500  0.56783900  1
  C  C50  1  0.21699100  0.43766500  0.56929500  1
  C  C51  1  0.22638500  0.38985700  0.50360300  1
  C  C52  1  0.21471900  0.40499200  0.43517000  1
  C  C53  1  0.19524100  0.46856500  0.43340900  1
  C  C54  1  0.18759200  0.51726600  0.49994000  1
  C  C55  1  0.18280900  0.25345200  0.50398600  1
  C  C56  1  0.19413600  0.18549100  0.50513300  1
  C  C57  1  0.26636400  0.18298000  0.50513400  1
  C  C58  1  0.77852200  0.88476400  0.80274800  1
  C  C59  1  0.32507500  0.24810400  0.50298500  1
  C  C60  1  0.31408700  0.31657600  0.50287700  1
  C  C61  1  0.24261300  0.31966700  0.50434200  1
  C  C62  1  0.35697900  0.12835100  0.56707900  1
  C  C63  1  0.37280800  0.06187300  0.56465500  1
  C  C64  1  0.31334700  0.97833800  0.49790300  1
  C  C65  1  0.23819300  0.96134400  0.43341500  1
  C  C66  1  0.22190800  0.02765100  0.43610800  1
  C  C67  1  0.28097000  0.11135800  0.50348900  1
  C  C68  1  0.77381000  0.52083300  0.61463900  1
  C  C69  1  0.77007100  0.86658400  0.72261500  1
  C  C70  1  0.84223800  0.51976500  0.60530800  1
  C  C71  1  0.89981000  0.50868000  0.66078200  1
  C  C72  1  0.89116300  0.50218200  0.72789200  1
  C  C73  1  0.82423300  0.50654400  0.74050700  1
  C  C74  1  0.76225100  0.51145700  0.68048300  1
  C  C75  1  0.69114900  0.50930400  0.68853100  1
  C  C76  1  0.68470400  0.50569000  0.75766600  1
  C  C77  1  0.74655600  0.50205200  0.81763300  1
  C  C78  1  0.81688500  0.50352300  0.81051900  1
  C  C79  1  0.00456200  0.87892800  0.38996800  1
  C  C80  1  0.76663700  0.79209100  0.67224200  1
  C  C81  1  0.88080700  0.88567600  0.50415000  1
  C  C82  1  0.00537100  0.12632200  0.62184000  1
  C  C83  1  0.12807600  0.11857000  0.50608300  1
  C  C84  1  0.99594700  0.38062400  0.87969700  1
  C  C85  1  0.11469800  0.49837500  0.12015000  1
  C  C86  1  0.00020900  0.62323600  0.11999300  1
  C  C87  1  0.88289900  0.50443500  0.87951400  1
  C  C88  1  0.09938000  0.75793900  0.54271100  1
  C  C89  1  0.09235500  0.77485700  0.47602300  1
  C  C90  1  0.01486400  0.72735700  0.39912000  1
  C  C91  1  0.77438800  0.73737000  0.70365700  1
  C  C92  1  0.94622300  0.65933800  0.38754100  1
  C  C93  1  0.95315700  0.64251500  0.45426900  1
  C  C94  1  0.02957000  0.69218400  0.53208100  1
  C  C95  1  0.00206900  0.67889100  0.25712300  1
  C  C96  1  0.00007700  0.68913600  0.18786200  1
  C  C97  1  0.00187000  0.76260000  0.18659700  1
  C  C98  1  0.00258800  0.82245300  0.25314300  1
  C  C99  1  0.00633300  0.81321800  0.32332100  1
  C  C100  1  0.00857300  0.74154300  0.32636500  1
  C  C101  1  0.06371200  0.85590900  0.13409900  1
  C  C102  1  0.78230300  0.75531000  0.78350300  1
  C  C103  1  0.06263800  0.87270800  0.06841600  1
  C  C104  1  0.99827500  0.81251400  0.98412400  1
  C  C105  1  0.93473800  0.73581800  0.96569900  1
  C  C106  1  0.93540400  0.71902900  0.03128700  1
  C  C107  1  0.00074900  0.77853600  0.11571700  1
  C  C108  1  0.30617500  0.31084600  0.86505800  1
  C  C109  1  0.22389400  0.29232700  0.84886500  1
  C  C110  1  0.16574700  0.28225900  0.77379800  1
  C  C111  1  0.19113700  0.29307600  0.71602400  1
  C  C112  1  0.27385800  0.31262300  0.73285600  1
  O  O1  1  0.41037700  0.56292900  0.47032300  1
  O  O2  1  0.95296400  0.90828900  0.36446700  1
  O  O3  1  0.96185100  0.91388600  0.55773700  1
  O  O4  1  0.85795300  0.91429400  0.45122600  1
  O  O5  1  0.05854600  0.09869300  0.64730400  1
  O  O6  1  0.95033400  0.09412100  0.54011900  1
  O  O7  1  0.15132400  0.08942200  0.55870100  1
  O  O8  1  0.04734100  0.09306800  0.45554300  1
  O  O9  1  0.04954400  0.46230700  0.91001400  1
  O  O10  1  0.94379200  0.35562800  0.90849600  1
  O  O11  1  0.14000000  0.55416800  0.09505100  1
  O  O12  1  0.40496100  0.45480200  0.36223900  1
  O  O13  1  0.03308700  0.44372300  0.08835900  1
  O  O14  1  0.05253800  0.64817900  0.09142700  1
  O  O15  1  0.94904700  0.54160700  0.09211900  1
  O  O16  1  0.96445500  0.55943200  0.91182800  1
  O  O17  1  0.85731900  0.45097600  0.90708600  1
  O  O18  1  0.59222100  0.65459900  0.56476900  1
  O  O19  1  0.58750600  0.55034700  0.45380500  1
  O  O20  1  0.59226800  0.56016600  0.65031600  1
  O  O21  1  0.58859700  0.45398100  0.54193100  1
  O  O22  1  0.40981400  0.46592500  0.55789600  1
  O  O23  1  0.40718700  0.36162700  0.44895300  1
  O  O24  1  0.05768600  0.90960500  0.47160700  1
  F  F1  1  0.93138300  0.09249800  0.90628400  1
