# generated using pymatgen
data_ZnH10C19N3O4
_symmetry_space_group_name_H-M   'P 1'
_cell_length_a   10.85414500
_cell_length_b   10.86557300
_cell_length_c   13.41575700
_cell_angle_alpha   90.00000000
_cell_angle_beta   90.00000000
_cell_angle_gamma   90.00000000
_symmetry_Int_Tables_number   1
_chemical_formula_structural   ZnH10C19N3O4
_chemical_formula_sum   'Zn2 H20 C38 N6 O8'
_cell_volume   1582.20749050
_cell_formula_units_Z   2
loop_
 _symmetry_equiv_pos_site_id
 _symmetry_equiv_pos_as_xyz
  1  'x, y, z'
loop_
 _atom_site_type_symbol
 _atom_site_label
 _atom_site_symmetry_multiplicity
 _atom_site_fract_x
 _atom_site_fract_y
 _atom_site_fract_z
 _atom_site_occupancy
  Zn  Zn1  1  0.51701200  0.50000000  0.88834500  1
  Zn  Zn2  1  0.48298800  0.50000000  0.11165500  1
  H  H1  1  0.48630600  0.80731900  0.41314100  1
  H  H2  1  0.51369400  0.19268000  0.58685800  1
  H  H3  1  0.48630600  0.19267800  0.41314300  1
  H  H4  1  0.51369500  0.80731800  0.58686100  1
  H  H5  1  0.09466300  0.69203800  0.01587600  1
  H  H6  1  0.90533700  0.30796200  0.98412200  1
  H  H7  1  0.09466300  0.30796200  0.01587600  1
  H  H8  1  0.90533700  0.69203800  0.98412200  1
  H  H9  1  0.41246900  0.89258200  0.94144200  1
  H  H10  1  0.58753100  0.10741800  0.05855700  1
  H  H11  1  0.41246900  0.10741700  0.94144200  1
  H  H12  1  0.58753100  0.89258200  0.05855700  1
  H  H13  1  0.54489300  0.22773600  0.25256000  1
  H  H14  1  0.38740200  0.22986300  0.26369500  1
  H  H15  1  0.45510400  0.77225800  0.74744000  1
  H  H16  1  0.61260000  0.77013100  0.73630000  1
  H  H17  1  0.54489600  0.77226000  0.25256000  1
  H  H18  1  0.38739900  0.77013200  0.26369500  1
  H  H19  1  0.45510700  0.22773700  0.74744000  1
  H  H20  1  0.61259600  0.22986200  0.73630100  1
  C  C1  1  0.25778200  0.78247400  0.97744700  1
  C  C2  1  0.74221700  0.21752600  0.02255400  1
  C  C3  1  0.25778300  0.21752600  0.97744600  1
  C  C4  1  0.74221700  0.78247400  0.02255400  1
  C  C5  1  0.31455200  0.89158400  0.95575300  1
  C  C6  1  0.68544800  0.10841500  0.04424700  1
  C  C7  1  0.31455200  0.10841600  0.95575300  1
  C  C8  1  0.68544800  0.89158400  0.04424700  1
  C  C9  1  0.25044800  0.00000000  0.96330100  1
  C  C10  1  0.74955200  0.00000000  0.03669900  1
  C  C11  1  0.13317800  0.78007800  0.99634500  1
  C  C12  1  0.86682200  0.21992200  0.00365500  1
  C  C13  1  0.13317800  0.21992200  0.99634500  1
  C  C14  1  0.86682200  0.78007800  0.00365500  1
  C  C15  1  0.06383400  0.88847500  0.99343300  1
  C  C16  1  0.93616600  0.11152500  0.00656700  1
  C  C17  1  0.06383400  0.11152500  0.99343300  1
  C  C18  1  0.93616600  0.88847500  0.00656700  1
  C  C19  1  0.12534300  0.00000000  0.98301500  1
  C  C20  1  0.87465700  0.00000000  0.01698600  1
  C  C21  1  0.47191400  0.39197300  0.29340500  1
  C  C22  1  0.52808500  0.60802600  0.70659500  1
  C  C23  1  0.47191400  0.60802600  0.29340500  1
  C  C24  1  0.52808500  0.39197400  0.70659500  1
  C  C25  1  0.48432400  0.60926600  0.39681100  1
  C  C26  1  0.51567600  0.39073500  0.60318900  1
  C  C27  1  0.48432400  0.39073400  0.39681100  1
  C  C28  1  0.51567600  0.60926500  0.60318900  1
  C  C29  1  0.49223800  0.50000000  0.44852600  1
  C  C30  1  0.50776300  0.50000000  0.55147400  1
  C  C31  1  0.49193200  0.71882500  0.44924700  1
  C  C32  1  0.50806900  0.28117500  0.55075300  1
  C  C33  1  0.49193200  0.28117500  0.44924700  1
  C  C34  1  0.50806900  0.71882400  0.55075400  1
  C  C35  1  0.33407500  0.67239400  0.98619700  1
  C  C36  1  0.66592500  0.32760500  0.01380300  1
  C  C37  1  0.33407500  0.32760600  0.98619700  1
  C  C38  1  0.66592400  0.67239500  0.01380300  1
  N  N1  1  0.46860400  0.50000000  0.24274200  1
  N  N2  1  0.53139600  0.50000000  0.75725800  1
  N  N3  1  0.46486000  0.27874400  0.23988500  1
  N  N4  1  0.53514000  0.72125500  0.76011400  1
  N  N5  1  0.46486000  0.72125500  0.23988600  1
  N  N6  1  0.53514000  0.27874400  0.76011400  1
  O  O1  1  0.35843700  0.63008200  0.07578100  1
  O  O2  1  0.64156300  0.36991800  0.92421800  1
  O  O3  1  0.61156700  0.36813100  0.09464700  1
  O  O4  1  0.38843300  0.63186900  0.90535300  1
  O  O5  1  0.38843300  0.36813100  0.90535300  1
  O  O6  1  0.61156700  0.63186900  0.09464700  1
  O  O7  1  0.64156300  0.63008200  0.92421800  1
  O  O8  1  0.35843700  0.36991800  0.07578100  1
