# generated using pymatgen
data_Fe2H20C45O16
_symmetry_space_group_name_H-M   'P 1'
_cell_length_a   16.13160300
_cell_length_b   9.38736200
_cell_length_c   15.04969500
_cell_angle_alpha   87.50541600
_cell_angle_beta   85.26827400
_cell_angle_gamma   108.56222100
_symmetry_Int_Tables_number   1
_chemical_formula_structural   Fe2H20C45O16
_chemical_formula_sum   'Fe2 H20 C45 O16'
_cell_volume   2147.22023266
_cell_formula_units_Z   1
loop_
 _symmetry_equiv_pos_site_id
 _symmetry_equiv_pos_as_xyz
  1  'x, y, z'
loop_
 _atom_site_type_symbol
 _atom_site_label
 _atom_site_symmetry_multiplicity
 _atom_site_fract_x
 _atom_site_fract_y
 _atom_site_fract_z
 _atom_site_occupancy
  Fe  Fe1  1  0.52660200  0.97357600  0.13672200  1
  Fe  Fe2  1  0.51213500  0.98349900  0.81002600  1
  H  H1  1  0.94143500  0.94214700  0.82461300  1
  H  H2  1  0.18209800  0.87872900  0.86312300  1
  H  H3  1  0.04339700  0.90013000  0.88234200  1
  H  H4  1  0.80428900  0.93221100  0.77483900  1
  H  H5  1  0.23417400  0.04088500  0.16470200  1
  H  H6  1  0.09879800  0.08032100  0.17873600  1
  H  H7  1  0.82154900  0.11815700  0.13902700  1
  H  H8  1  0.52363400  0.69807300  0.38431300  1
  H  H9  1  0.49719200  0.22835100  0.43030200  1
  H  H10  1  0.52194900  0.26310500  0.56077700  1
  H  H11  1  0.50486600  0.70980900  0.51983500  1
  H  H12  1  0.53194900  0.42840800  0.16878500  1
  H  H13  1  0.49506000  0.51770900  0.77952600  1
  H  H14  1  0.94801400  0.34629200  0.19002100  1
  H  H15  1  0.96269700  0.42488400  0.34237900  1
  H  H16  1  0.97835000  0.37745900  0.49241000  1
  H  H17  1  0.04110700  0.25170400  0.50996700  1
  H  H18  1  0.92275000  0.18390600  0.53386500  1
  H  H19  1  0.97315100  0.99253900  0.42905100  1
  H  H20  1  0.95780700  0.91380600  0.27621300  1
  C  C1  1  0.89376200  0.95876700  0.87367600  1
  C  C2  1  0.27445400  0.92571800  0.96132000  1
  C  C3  1  0.19364800  0.91041300  0.93028000  1
  C  C4  1  0.12933800  0.94705200  0.98164300  1
  C  C5  1  0.05181500  0.94221700  0.94732200  1
  C  C6  1  0.98838100  0.98812600  0.99590800  1
  C  C7  1  0.81514400  0.95549800  0.84341300  1
  C  C8  1  0.74882400  0.97459400  0.89980000  1
  C  C9  1  0.90973700  0.98824100  0.96162200  1
  C  C10  1  0.84529600  0.02027400  0.01651900  1
  C  C11  1  0.76198900  0.00049200  0.98855600  1
  C  C12  1  0.28724400  0.96704100  0.04827400  1
  C  C13  1  0.22242700  0.00300200  0.09867800  1
  C  C14  1  0.14441700  0.99509400  0.06508200  1
  C  C15  1  0.08240900  0.03816100  0.11483400  1
  C  C16  1  0.00378600  0.03280700  0.08168200  1
  C  C17  1  0.94225500  0.07837800  0.13218100  1
  C  C18  1  0.86510700  0.07452200  0.09886200  1
  C  C19  1  0.68623300  0.98490100  0.05509700  1
  C  C20  1  0.52537900  0.69876000  0.20855200  1
  C  C21  1  0.37100100  0.99360800  0.08602300  1
  C  C22  1  0.51658200  0.17651500  0.26295200  1
  C  C23  1  0.50696600  0.77095700  0.68560600  1
  C  C24  1  0.66332900  0.94903300  0.86561600  1
  C  C25  1  0.50676800  0.25047700  0.73704400  1
  C  C26  1  0.34689000  0.91916600  0.89672700  1
  C  C27  1  0.52449000  0.57420800  0.27199600  1
  C  C28  1  0.52067500  0.58903500  0.36336800  1
  C  C29  1  0.51343200  0.46730000  0.42426900  1
  C  C30  1  0.50818400  0.33022600  0.38919500  1
  C  C31  1  0.51867400  0.31943800  0.29835600  1
  C  C32  1  0.52735000  0.44089500  0.23985500  1
  C  C33  1  0.51286500  0.36451700  0.58319500  1
  C  C34  1  0.50548500  0.37536500  0.67483600  1
  C  C35  1  0.49798100  0.50554100  0.70839800  1
  C  C36  1  0.50103700  0.62543500  0.65082800  1
  C  C37  1  0.50566300  0.61303300  0.55988100  1
  C  C38  1  0.50989300  0.48127400  0.52359200  1
  C  C39  1  0.95434800  0.12646700  0.22287700  1
  C  C40  1  0.95403300  0.26862800  0.24234300  1
  C  C41  1  0.96229800  0.31274700  0.32828600  1
  C  C42  1  0.96968200  0.21386100  0.39548600  1
  C  C43  1  0.97850500  0.25987600  0.48859200  1
  C  C44  1  0.96823200  0.07074400  0.37645400  1
  C  C45  1  0.96004200  0.02676900  0.29050100  1
  O  O1  1  0.61527100  0.01015700  0.03204900  1
  O  O2  1  0.53189100  0.68351200  0.12222300  1
  O  O3  1  0.68563400  0.93016600  0.13694400  1
  O  O4  1  0.51859100  0.82506900  0.23733500  1
  O  O5  1  0.40825500  0.88794800  0.09194600  1
  O  O6  1  0.40836800  0.12542200  0.11590300  1
  O  O7  1  0.56050900  0.17749100  0.18547500  1
  O  O8  1  0.46410000  0.04933000  0.30337100  1
  O  O9  1  0.46983800  0.77639100  0.76578700  1
  O  O10  1  0.55830400  0.89502100  0.64096800  1
  O  O11  1  0.63332800  0.06174300  0.84957100  1
  O  O12  1  0.61758600  0.81226300  0.84832300  1
  O  O13  1  0.33226100  0.89411800  0.81342400  1
  O  O14  1  0.52090000  0.12932300  0.70771300  1
  O  O15  1  0.42818000  0.96040100  0.91744500  1
  O  O16  1  0.49264000  0.25897600  0.82346900  1
