# generated using pymatgen
data_ZnH8C19N4(ClO)4
_symmetry_space_group_name_H-M   'P 1'
_cell_length_a   24.20218000
_cell_length_b   24.27662100
_cell_length_c   15.87095300
_cell_angle_alpha   90.00000000
_cell_angle_beta   91.27765700
_cell_angle_gamma   90.00000000
_symmetry_Int_Tables_number   1
_chemical_formula_structural   ZnH8C19N4(ClO)4
_chemical_formula_sum   'Zn4 H32 C76 N16 Cl16 O16'
_cell_volume   9322.61486168
_cell_formula_units_Z   4
loop_
 _symmetry_equiv_pos_site_id
 _symmetry_equiv_pos_as_xyz
  1  'x, y, z'
loop_
 _atom_site_type_symbol
 _atom_site_label
 _atom_site_symmetry_multiplicity
 _atom_site_fract_x
 _atom_site_fract_y
 _atom_site_fract_z
 _atom_site_occupancy
  Zn  Zn1  1  0.49287000  0.00000000  0.59460600  1
  Zn  Zn2  1  0.50713000  0.00000000  0.40539300  1
  Zn  Zn3  1  0.99287000  0.50000000  0.59460600  1
  Zn  Zn4  1  0.00713000  0.50000000  0.40539300  1
  H  H1  1  0.36775200  0.12086600  0.61035400  1
  H  H2  1  0.63224800  0.87913400  0.38964500  1
  H  H3  1  0.63224800  0.12086600  0.38964500  1
  H  H4  1  0.36775200  0.87913400  0.61035400  1
  H  H5  1  0.86775200  0.62086600  0.61035400  1
  H  H6  1  0.13224800  0.37913400  0.38964500  1
  H  H7  1  0.13224800  0.62086600  0.38964500  1
  H  H8  1  0.86775200  0.37913400  0.61035400  1
  H  H9  1  0.29865200  0.19050000  0.60663000  1
  H  H10  1  0.70134800  0.80949900  0.39336900  1
  H  H11  1  0.70134800  0.19050100  0.39336900  1
  H  H12  1  0.29865200  0.80950000  0.60663000  1
  H  H13  1  0.79865200  0.69050000  0.60663000  1
  H  H14  1  0.20134800  0.30949900  0.39336900  1
  H  H15  1  0.20134800  0.69050100  0.39336900  1
  H  H16  1  0.79865200  0.30950000  0.60663000  1
  H  H17  1  0.68757400  0.79718400  0.66091700  1
  H  H18  1  0.31242600  0.20281600  0.33908300  1
  H  H19  1  0.31242600  0.79718400  0.33908300  1
  H  H20  1  0.68757400  0.20281600  0.66091700  1
  H  H21  1  0.18757400  0.29718400  0.66091700  1
  H  H22  1  0.81242600  0.70281600  0.33908300  1
  H  H23  1  0.81242600  0.29718400  0.33908300  1
  H  H24  1  0.18757400  0.70281600  0.66091700  1
  H  H25  1  0.57065600  0.00000000  0.73469800  1
  H  H26  1  0.42934400  0.00000000  0.26530200  1
  H  H27  1  0.07065600  0.50000000  0.73469800  1
  H  H28  1  0.92934400  0.50000000  0.26530200  1
  H  H29  1  0.57009200  0.00000000  0.88636300  1
  H  H30  1  0.42990800  0.00000000  0.11363600  1
  H  H31  1  0.07009200  0.50000000  0.88636300  1
  H  H32  1  0.92990800  0.50000000  0.11363600  1
  C  C1  1  0.57598100  0.07686200  0.51562200  1
  C  C2  1  0.42401900  0.92313800  0.48437700  1
  C  C3  1  0.42401900  0.07686200  0.48437700  1
  C  C4  1  0.57598100  0.92313800  0.51562200  1
  C  C5  1  0.07598100  0.57686200  0.51562200  1
  C  C6  1  0.92401900  0.42313800  0.48437700  1
  C  C7  1  0.92401900  0.57686200  0.48437700  1
  C  C8  1  0.07598100  0.42313800  0.51562200  1
  C  C9  1  0.61871500  0.87976800  0.52320300  1
  C  C10  1  0.38128500  0.12023200  0.47679700  1
  C  C11  1  0.38128500  0.87976800  0.47679700  1
  C  C12  1  0.61871500  0.12023200  0.52320300  1
  C  C13  1  0.11871500  0.37976800  0.52320300  1
  C  C14  1  0.88128500  0.62023200  0.47679700  1
  C  C15  1  0.88128500  0.37976800  0.47679700  1
  C  C16  1  0.11871500  0.62023200  0.52320300  1
  C  C17  1  0.64362800  0.86186000  0.45028200  1
  C  C18  1  0.35637200  0.13814000  0.54971800  1
  C  C19  1  0.35637200  0.86186000  0.54971800  1
  C  C20  1  0.64362800  0.13814000  0.45028200  1
  C  C21  1  0.14362800  0.36186000  0.45028200  1
  C  C22  1  0.85637200  0.63814000  0.54971800  1
  C  C23  1  0.85637200  0.36186000  0.54971800  1
  C  C24  1  0.14362800  0.63814000  0.45028200  1
  C  C25  1  0.68367100  0.82148000  0.45257200  1
  C  C26  1  0.31632900  0.17852000  0.54742800  1
  C  C27  1  0.31632900  0.82148000  0.54742800  1
  C  C28  1  0.68367100  0.17852000  0.45257200  1
  C  C29  1  0.18367100  0.32148000  0.45257200  1
  C  C30  1  0.81632900  0.67852000  0.54742800  1
  C  C31  1  0.81632900  0.32148000  0.54742800  1
  C  C32  1  0.18367100  0.67852000  0.45257200  1
  C  C33  1  0.69968200  0.79799500  0.52874700  1
  C  C34  1  0.30031800  0.20200500  0.47125300  1
  C  C35  1  0.30031800  0.79799500  0.47125300  1
  C  C36  1  0.69968200  0.20200500  0.52874700  1
  C  C37  1  0.19968200  0.29799500  0.52874700  1
  C  C38  1  0.80031800  0.70200500  0.47125300  1
  C  C39  1  0.80031800  0.29799500  0.47125300  1
  C  C40  1  0.19968200  0.70200500  0.52874700  1
  C  C41  1  0.67518200  0.81551800  0.60137600  1
  C  C42  1  0.32481800  0.18448200  0.39862400  1
  C  C43  1  0.32481800  0.81551800  0.39862400  1
  C  C44  1  0.67518200  0.18448200  0.60137600  1
  C  C45  1  0.17518200  0.31551800  0.60137600  1
  C  C46  1  0.82481800  0.68448200  0.39862400  1
  C  C47  1  0.82481800  0.31551800  0.39862400  1
  C  C48  1  0.17518200  0.68448200  0.60137600  1
  C  C49  1  0.63506900  0.85586600  0.59982800  1
  C  C50  1  0.36493200  0.14413400  0.40017100  1
  C  C51  1  0.36493200  0.85586600  0.40017100  1
  C  C52  1  0.63506900  0.14413400  0.59982800  1
  C  C53  1  0.13506900  0.35586600  0.59982800  1
  C  C54  1  0.86493200  0.64413400  0.40017100  1
  C  C55  1  0.86493200  0.35586600  0.40017100  1
  C  C56  1  0.13506900  0.64413400  0.59982800  1
  C  C57  1  0.46857300  0.00000000  0.23411100  1
  C  C58  1  0.53142700  0.00000000  0.76588900  1
  C  C59  1  0.96857300  0.50000000  0.23411100  1
  C  C60  1  0.03142700  0.50000000  0.76588900  1
  C  C61  1  0.46923100  0.00000000  0.14730000  1
  C  C62  1  0.53076900  0.00000000  0.85270000  1
  C  C63  1  0.96923100  0.50000000  0.14730000  1
  C  C64  1  0.03076900  0.50000000  0.85270000  1
  C  C65  1  0.51937000  0.00000000  0.10703700  1
  C  C66  1  0.48063000  0.00000000  0.89296300  1
  C  C67  1  0.01937000  0.50000000  0.10703700  1
  C  C68  1  0.98063000  0.50000000  0.89296300  1
  C  C69  1  0.56732400  0.00000000  0.15529700  1
  C  C70  1  0.43267600  0.00000000  0.84470200  1
  C  C71  1  0.06732400  0.50000000  0.15529700  1
  C  C72  1  0.93267600  0.50000000  0.84470200  1
  C  C73  1  0.56517100  0.00000000  0.24205100  1
  C  C74  1  0.43482900  0.00000000  0.75794800  1
  C  C75  1  0.06517100  0.50000000  0.24205100  1
  C  C76  1  0.93482900  0.50000000  0.75794800  1
  N  N1  1  0.74047300  0.75634400  0.53473500  1
  N  N2  1  0.25952700  0.24365600  0.46526500  1
  N  N3  1  0.25952700  0.75634400  0.46526500  1
  N  N4  1  0.74047300  0.24365600  0.53473500  1
  N  N5  1  0.24047300  0.25634400  0.53473500  1
  N  N6  1  0.75952700  0.74365600  0.46526500  1
  N  N7  1  0.75952700  0.25634400  0.46526500  1
  N  N8  1  0.24047300  0.74365600  0.53473500  1
  N  N9  1  0.51592200  0.00000000  0.28036700  1
  N  N10  1  0.48407800  0.00000000  0.71963300  1
  N  N11  1  0.01592200  0.50000000  0.28036700  1
  N  N12  1  0.98407800  0.50000000  0.71963300  1
  N  N13  1  0.52301800  0.00000000  0.01821000  1
  N  N14  1  0.47698200  0.00000000  0.98179000  1
  N  N15  1  0.02301800  0.50000000  0.01821000  1
  N  N16  1  0.97698200  0.50000000  0.98179000  1
  Cl  Cl1  1  0.60727600  0.87357400  0.69750100  1
  Cl  Cl2  1  0.39272400  0.12642600  0.30249900  1
  Cl  Cl3  1  0.39272400  0.87357400  0.30249900  1
  Cl  Cl4  1  0.60727600  0.12642600  0.69750100  1
  Cl  Cl5  1  0.10727600  0.37357400  0.69750100  1
  Cl  Cl6  1  0.89272400  0.62642600  0.30249900  1
  Cl  Cl7  1  0.89272400  0.37357400  0.30249900  1
  Cl  Cl8  1  0.10727600  0.62642600  0.69750100  1
  Cl  Cl9  1  0.63138000  0.00000000  0.10617400  1
  Cl  Cl10  1  0.36862000  0.00000000  0.89382600  1
  Cl  Cl11  1  0.13138000  0.50000000  0.10617400  1
  Cl  Cl12  1  0.86862000  0.50000000  0.89382600  1
  Cl  Cl13  1  0.62733700  0.00000000  0.30070500  1
  Cl  Cl14  1  0.37266300  0.00000000  0.69929500  1
  Cl  Cl15  1  0.12733700  0.50000000  0.30070500  1
  Cl  Cl16  1  0.87266300  0.50000000  0.69929500  1
  O  O1  1  0.55233800  0.05808100  0.58329000  1
  O  O2  1  0.44766200  0.94191900  0.41671000  1
  O  O3  1  0.44766200  0.05808100  0.41671000  1
  O  O4  1  0.55233800  0.94191900  0.58329000  1
  O  O5  1  0.05233800  0.55808100  0.58329000  1
  O  O6  1  0.94766200  0.44191900  0.41671000  1
  O  O7  1  0.94766200  0.55808100  0.41671000  1
  O  O8  1  0.05233800  0.44191900  0.58329000  1
  O  O9  1  0.56298900  0.05838600  0.44003500  1
  O  O10  1  0.43701100  0.94161400  0.55996500  1
  O  O11  1  0.43701100  0.05838600  0.55996500  1
  O  O12  1  0.56298900  0.94161400  0.44003500  1
  O  O13  1  0.06298900  0.55838600  0.44003500  1
  O  O14  1  0.93701100  0.44161400  0.55996500  1
  O  O15  1  0.93701100  0.55838600  0.55996500  1
  O  O16  1  0.06298900  0.44161400  0.44003500  1
