# Generated by REPEAT Assigner based on pymatgen
data_DB0-m3_o20_o23_f0_nbo.sym.97
_audit_creation_date              2022-05-24
_audit_creation_method            REPEAT_Assigner
_cell_length_a                    42.155288
_cell_length_b                    29.039122
_cell_length_c                    29.538740
_cell_angle_alpha                 90.000000
_cell_angle_beta                  45.277046
_cell_angle_gamma                 90.000000
_cell_volume                      25692.263171
_symmetry_space_group_name_H-M    P1
_symmetry_Int_Tables_number       1
loop_
    _symmetry_equiv_pos_site_id
    _symmetry_equiv_pos_as_xyz
    1  x,y,z
loop_
    _atom_site_type_symbol
    _atom_site_label
    _atom_site_fract_x
    _atom_site_fract_y
    _atom_site_fract_z
    _atom_type_partial_charge
    O   O1    0.992670  0.539445  0.571695  -0.708667
    O   O2    0.992798  0.459993  0.572060  -0.694266
    O   O3    0.492670  0.039445  0.571695  -0.708666
    O   O4    0.492798  0.959993  0.572060  -0.694285
    C   C1    0.992335  0.499839  0.593942  0.814371
    C   C2    0.492335  0.999839  0.593942  0.814472
    O   O5    0.057618  0.540461  0.437133  -0.650499
    O   O6    0.057726  0.460642  0.439415  -0.650984
    O   O7    0.557618  0.040461  0.437133  -0.650333
    O   O8    0.557726  0.960642  0.439415  -0.650881
    C   C3    0.077706  0.500570  0.417847  0.636569
    C   C4    0.577706  0.000570  0.417847  0.636341
    Zn  Zn1   0.991037  0.552750  0.505865  1.342794
    Zn  Zn2   0.991133  0.448288  0.506001  1.343060
    Zn  Zn3   0.491037  0.052750  0.505865  1.342592
    Zn  Zn4   0.491133  0.948288  0.506001  1.343001
    O   O9    0.991150  0.541037  0.438003  -0.691792
    O   O10   0.991249  0.461594  0.438397  -0.706634
    O   O11   0.491150  0.041037  0.438003  -0.691714
    O   O12   0.491249  0.961594  0.438397  -0.706578
    O   O13   0.924802  0.540285  0.572104  -0.640003
    O   O14   0.924912  0.460680  0.574407  -0.639617
    O   O15   0.424802  0.040285  0.572104  -0.639858
    O   O16   0.424912  0.960680  0.574407  -0.639525
    C   C5    0.990418  0.501194  0.417328  0.799322
    C   C6    0.490418  0.001194  0.417328  0.799384
    C   C7    0.904752  0.500462  0.593764  0.615366
    C   C8    0.404752  0.000462  0.593764  0.614885
    C   C9    0.227335  0.543692  0.290396  -0.238741
    C   C10   0.227346  0.457457  0.290132  -0.231689
    C   C11   0.727335  0.043692  0.290396  -0.238731
    C   C12   0.727346  0.957457  0.290132  -0.231613
    C   C13   0.277662  0.458218  0.240978  -0.203710
    C   C14   0.277654  0.542951  0.241214  -0.194181
    C   C15   0.777662  0.958218  0.240978  -0.203774
    C   C16   0.777654  0.042951  0.241214  -0.194182
    H   H1    0.286764  0.537973  0.268039  0.039294
    H   H2    0.286754  0.463011  0.267851  0.040962
    H   H3    0.786764  0.037973  0.268039  0.039289
    H   H4    0.786754  0.963011  0.267851  0.040972
    H   H5    0.214538  0.543252  0.338461  0.061359
    H   H6    0.214533  0.457667  0.338210  0.060511
    H   H7    0.714538  0.043252  0.338461  0.061361
    H   H8    0.714533  0.957667  0.338210  0.060500
    H   H9    0.213800  0.426609  0.286630  0.024183
    H   H10   0.213762  0.574640  0.287118  0.026256
    H   H11   0.713800  0.926609  0.286630  0.024168
    H   H12   0.713762  0.074640  0.287118  0.026249
    C   C17   0.380764  0.500665  0.111726  0.164429
    C   C18   0.880764  0.000665  0.111726  0.164460
    C   C19   0.211618  0.500645  0.281867  0.890882
    C   C20   0.711618  0.000645  0.281867  0.890821
    C   C21   0.293650  0.500659  0.199129  0.913728
    C   C22   0.793650  0.000659  0.199129  0.913770
    C   C23   0.277296  0.500797  0.166908  -0.035058
    C   C24   0.777296  0.000797  0.166908  -0.035031
    C   C25   0.227154  0.500790  0.217578  -0.213740
    C   C26   0.727154  0.000790  0.217578  -0.213752
    C   C27   0.341242  0.500665  0.150925  -0.710745
    C   C28   0.841242  0.000665  0.150925  -0.710781
    C   C29   0.164008  0.500635  0.329940  -0.573740
    C   C30   0.664008  0.000635  0.329940  -0.573698
    C   C31   0.124464  0.500613  0.370153  0.092462
    C   C32   0.624464  0.000613  0.370153  0.092478
    H   H13   0.214475  0.531926  0.212831  0.028774
    H   H14   0.214483  0.469754  0.212646  0.028415
    H   H15   0.714475  0.031926  0.212831  0.028774
    H   H16   0.714483  0.969754  0.212646  0.028420
    H   H17   0.290007  0.531097  0.135631  -0.003211
    H   H18   0.290017  0.470611  0.135451  -0.001814
    H   H19   0.790007  0.031097  0.135631  -0.003223
    H   H20   0.790017  0.970611  0.135451  -0.001820
    C   C33   0.993249  0.500103  0.642697  -0.149472
    C   C34   0.493249  0.000103  0.642697  -0.149475
    C   C35   0.993909  0.500228  0.683481  0.055926
    C   C36   0.493909  0.000228  0.683481  0.055895
    C   C37   0.994583  0.500311  0.731661  -0.020507
    C   C38   0.494583  0.000311  0.731661  -0.020484
    C   C39   0.995055  0.500353  0.772638  0.012343
    C   C40   0.495055  0.000353  0.772638  0.012324
    C   C41   0.995451  0.500386  0.821100  0.014926
    C   C42   0.495451  0.000386  0.821100  0.014938
    C   C43   0.995568  0.500413  0.862434  -0.093329
    C   C44   0.495568  0.000413  0.862434  -0.093327
    C   C45   0.857947  0.500432  0.642308  0.038949
    C   C46   0.357947  0.000432  0.642308  0.039472
    C   C47   0.818376  0.500390  0.683475  -0.082405
    C   C48   0.318376  0.000390  0.683475  -0.082835
    C   C49   0.772272  0.500332  0.731161  0.043276
    C   C50   0.272272  0.000332  0.731161  0.043557
    C   C51   0.732678  0.500288  0.771510  0.032740
    C   C52   0.232678  0.000288  0.771510  0.032563
    C   C53   0.686556  0.500257  0.817594  -0.079023
    C   C54   0.186556  0.000257  0.817594  -0.078929
    C   C55   0.646972  0.500258  0.856337  0.031580
    C   C56   0.146972  0.000258  0.856337  0.031540
    C   C57   0.991103  0.500934  0.366963  -0.130234
    C   C58   0.491103  0.000934  0.366963  -0.130412
    C   C59   0.991827  0.500810  0.324790  0.041033
    C   C60   0.491827  0.000810  0.324790  0.041174
    C   C61   0.992767  0.500728  0.274994  -0.010116
    C   C62   0.492767  0.000728  0.274994  -0.010213
    C   C63   0.993579  0.500689  0.232732  0.002300
    C   C64   0.493579  0.000689  0.232732  0.002375
    C   C65   0.994499  0.500664  0.182954  0.021935
    C   C66   0.494499  0.000664  0.182954  0.021880
    C   C67   0.995186  0.500647  0.140818  -0.104877
    C   C68   0.495186  0.000647  0.140818  -0.104832
    O   O17   0.509909  0.569222  0.028028  -0.657137
    O   O18   0.509790  0.432098  0.026069  -0.672167
    O   O19   0.009909  0.069222  0.028028  -0.657145
    O   O20   0.009790  0.932098  0.026069  -0.672160
    O   O21   0.513343  0.568883  0.946206  -0.693813
    O   O22   0.513166  0.431699  0.944303  -0.677008
    O   O23   0.013343  0.068883  0.946206  -0.693821
    O   O24   0.013166  0.931699  0.944303  -0.676976
    C   C69   0.512450  0.590400  0.986248  0.777516
    C   C70   0.512225  0.410548  0.984557  0.773753
    C   C71   0.012450  0.090400  0.986248  0.777498
    C   C72   0.012225  0.910548  0.984557  0.773780
    O   O25   0.445731  0.501759  0.088394  -0.665365
    O   O26   0.945731  0.001759  0.088394  -0.665357
    O   O27   0.449048  0.499436  0.006584  -0.696533
    O   O28   0.949048  0.999436  0.006584  -0.696541
    C   C73   0.427420  0.500646  0.066678  0.713073
    C   C74   0.927420  0.000646  0.066678  0.713055
    Zn  Zn5   0.511507  0.500479  0.037586  1.302081
    Zn  Zn6   0.011507  0.000479  0.037586  1.302069
    Zn  Zn7   0.516006  0.500464  0.930492  1.323164
    Zn  Zn8   0.016006  0.000464  0.930492  1.323141
    O   O29   0.578401  0.501536  0.961363  -0.666640
    O   O30   0.078401  0.001536  0.961363  -0.666599
    O   O31   0.581749  0.499154  0.879905  -0.645876
    O   O32   0.081749  0.999154  0.879905  -0.645854
    C   C75   0.600182  0.500294  0.901340  0.643907
    C   C76   0.100182  0.000294  0.901340  0.643868
    O   O33   0.036014  0.431744  0.962505  -0.632060
    O   O34   0.034011  0.569022  0.964448  -0.647732
    O   O35   0.536014  0.931744  0.962505  -0.632024
    O   O36   0.534011  0.069022  0.964448  -0.647736
    O   O37   0.959002  0.431909  0.037086  -0.656539
    O   O38   0.957007  0.569385  0.039017  -0.641131
    O   O39   0.459002  0.931909  0.037086  -0.656524
    O   O40   0.457007  0.069385  0.039017  -0.641128
    C   C77   0.997526  0.410426  0.999573  0.681141
    C   C78   0.995638  0.590603  0.001440  0.681335
    C   C79   0.497526  0.910426  0.999573  0.681162
    C   C80   0.495638  0.090603  0.001440  0.681320
    O   O41   0.033541  0.499387  0.896054  -0.690575
    O   O42   0.533541  0.999387  0.896054  -0.690562
    O   O43   0.956675  0.501516  0.972480  -0.680459
    O   O44   0.456675  0.001516  0.972480  -0.680454
    C   C81   0.995283  0.500459  0.912401  0.751966
    C   C82   0.495283  0.000459  0.912401  0.751937
    Zn  Zn9   0.046052  0.500544  0.951083  1.335194
    Zn  Zn10  0.546052  0.000544  0.951083  1.335172
    Zn  Zn11  0.945086  0.500458  0.051806  1.333507
    Zn  Zn12  0.445086  0.000458  0.051806  1.333491
    O   O45   0.034477  0.499472  0.030416  -0.686031
    O   O46   0.534477  0.999472  0.030416  -0.686016
    O   O47   0.957571  0.501603  0.106818  -0.687587
    O   O48   0.457571  0.001603  0.106818  -0.687583
    C   C83   0.995798  0.500624  0.090525  0.769463
    C   C84   0.495798  0.000624  0.090525  0.769429
    C   C85   0.509774  0.639710  0.988596  -0.106736
    C   C86   0.509345  0.361249  0.987530  -0.103426
    C   C87   0.009774  0.139710  0.988596  -0.106707
    C   C88   0.009345  0.861249  0.987530  -0.103478
    C   C89   0.507128  0.681105  0.990955  0.025035
    C   C90   0.506518  0.319867  0.990403  0.021113
    C   C91   0.007128  0.181105  0.990955  0.025025
    C   C92   0.006518  0.819867  0.990403  0.021156
    C   C93   0.503885  0.729599  0.993916  -0.006788
    C   C94   0.503041  0.271390  0.993951  -0.001386
    C   C95   0.003885  0.229599  0.993916  -0.006802
    C   C96   0.003041  0.771390  0.993951  -0.001416
    C   C97   0.001369  0.271006  0.996222  0.040030
    C   C98   0.000308  0.729997  0.996740  0.034872
    C   C99   0.501369  0.771006  0.996222  0.040001
    C   C100  0.500308  0.229997  0.996740  0.034852
    C   C101  0.999024  0.319561  0.998353  -0.056801
    C   C102  0.997690  0.681457  0.999399  -0.053202
    C   C103  0.499024  0.819561  0.998353  -0.056756
    C   C104  0.497690  0.181457  0.999399  -0.053198
    C   C105  0.997795  0.361030  0.999434  -0.026939
    C   C106  0.996214  0.639996  0.000886  -0.029002
    C   C107  0.497795  0.861030  0.999434  -0.026994
    C   C108  0.496214  0.139996  0.000886  -0.028990
    C   C109  0.299623  0.413865  0.204425  0.238718
    C   C110  0.333743  0.396464  0.196805  -0.216904
    C   C111  0.355160  0.356202  0.163612  0.122107
    Cl  Cl1   0.398603  0.335273  0.153855  -0.093486
    C   C112  0.342491  0.332475  0.138134  -0.117103
    C   C113  0.308185  0.348981  0.146181  -0.149646
    C   C114  0.286718  0.389310  0.179243  -0.220059
    H   H21   0.344614  0.414611  0.215874  0.110130
    H   H22   0.359312  0.300882  0.112101  0.108706
    H   H23   0.297996  0.330230  0.126545  0.138005
    H   H24   0.259801  0.400954  0.184900  0.138695
    C   C115  0.299593  0.587388  0.204898  0.231749
    C   C116  0.333762  0.604626  0.197269  -0.215310
    C   C117  0.355176  0.644943  0.164260  0.121486
    Cl  Cl2   0.398705  0.665647  0.154438  -0.093795
    C   C118  0.342451  0.668892  0.138992  -0.116121
    C   C119  0.308096  0.652548  0.147057  -0.153295
    C   C120  0.286637  0.612160  0.179924  -0.215822
    H   H25   0.344678  0.586302  0.216171  0.111419
    H   H26   0.359272  0.700526  0.113101  0.108806
    H   H27   0.297866  0.671470  0.127580  0.138931
    H   H28   0.259692  0.600639  0.185581  0.137910
    C   C121  0.799623  0.913865  0.204425  0.238729
    C   C122  0.833743  0.896464  0.196805  -0.216895
    C   C123  0.855160  0.856202  0.163612  0.122095
    Cl  Cl3   0.898603  0.835273  0.153855  -0.093482
    C   C124  0.842491  0.832475  0.138134  -0.117086
    C   C125  0.808185  0.848981  0.146181  -0.149654
    C   C126  0.786718  0.889310  0.179243  -0.220060
    H   H29   0.844614  0.914611  0.215874  0.110126
    H   H30   0.859312  0.800882  0.112101  0.108700
    H   H31   0.797996  0.830230  0.126545  0.138006
    H   H32   0.759801  0.900954  0.184900  0.138698
    C   C127  0.799593  0.087388  0.204898  0.231751
    C   C128  0.833762  0.104626  0.197269  -0.215306
    C   C129  0.855176  0.144943  0.164260  0.121469
    Cl  Cl4   0.898705  0.165647  0.154438  -0.093790
    C   C130  0.842451  0.168892  0.138992  -0.116102
    C   C131  0.808096  0.152548  0.147057  -0.153301
    C   C132  0.786637  0.112160  0.179924  -0.215826
    H   H33   0.844678  0.086302  0.216171  0.111418
    H   H34   0.859272  0.200526  0.113101  0.108800
    H   H35   0.797866  0.171470  0.127580  0.138931
    H   H36   0.759692  0.100639  0.185581  0.137915
