# generated using pymatgen
data_Zn3H42C61O12
_symmetry_space_group_name_H-M   'P 1'
_cell_length_a   50.44393700
_cell_length_b   38.85190300
_cell_length_c   32.04096500
_cell_angle_alpha   90.00000000
_cell_angle_beta   129.86648700
_cell_angle_gamma   90.00000000
_symmetry_Int_Tables_number   1
_chemical_formula_structural   Zn3H42C61O12
_chemical_formula_sum   'Zn12 H168 C244 O48'
_cell_volume   48197.88663646
_cell_formula_units_Z   4
loop_
 _symmetry_equiv_pos_site_id
 _symmetry_equiv_pos_as_xyz
  1  'x, y, z'
loop_
 _atom_site_type_symbol
 _atom_site_label
 _atom_site_symmetry_multiplicity
 _atom_site_fract_x
 _atom_site_fract_y
 _atom_site_fract_z
 _atom_site_occupancy
  Zn  Zn1  1  0.99999400  0.04299500  0.50003700  1
  Zn  Zn2  1  0.49999400  0.54299500  0.50003700  1
  Zn  Zn3  1  0.99982900  0.96504300  0.49980300  1
  Zn  Zn4  1  0.49982900  0.46504300  0.49980300  1
  Zn  Zn5  1  0.03917600  0.00307200  0.04100000  1
  Zn  Zn6  1  0.96099400  0.00298500  0.95920600  1
  Zn  Zn7  1  0.53917600  0.50307200  0.04100000  1
  Zn  Zn8  1  0.46099400  0.50298500  0.95920600  1
  Zn  Zn9  1  0.49973200  0.00313000  0.95246300  1
  Zn  Zn10  1  0.50018600  0.00323300  0.04744200  1
  Zn  Zn11  1  0.99973200  0.50313000  0.95246300  1
  Zn  Zn12  1  0.00018600  0.50323300  0.04744200  1
  H  H1  1  0.02244600  0.05035100  0.23286600  1
  H  H2  1  0.97774100  0.04982400  0.76722100  1
  H  H3  1  0.52244600  0.55035100  0.23286600  1
  H  H4  1  0.47774100  0.54982400  0.76722100  1
  H  H5  1  0.03163400  0.04615400  0.31173800  1
  H  H6  1  0.96838700  0.04542600  0.68822500  1
  H  H7  1  0.53163400  0.54615400  0.31173800  1
  H  H8  1  0.46838700  0.54542600  0.68822500  1
  H  H9  1  0.01686600  0.95175200  0.29968700  1
  H  H10  1  0.98294200  0.95098800  0.70042200  1
  H  H11  1  0.51686600  0.45175200  0.29968700  1
  H  H12  1  0.48294200  0.45098800  0.70042200  1
  H  H13  1  0.04960800  0.98457600  0.33729600  1
  H  H14  1  0.95026600  0.98386800  0.66279400  1
  H  H15  1  0.54960800  0.48457600  0.33729600  1
  H  H16  1  0.45026600  0.48386800  0.66279400  1
  H  H17  1  0.05031900  0.99460800  0.26859100  1
  H  H18  1  0.94968600  0.99415000  0.73158200  1
  H  H19  1  0.55031900  0.49460800  0.26859100  1
  H  H20  1  0.44968600  0.49415000  0.73158200  1
  H  H21  1  0.02696300  0.95507900  0.23937900  1
  H  H22  1  0.97291800  0.95456400  0.76081200  1
  H  H23  1  0.52696300  0.45507900  0.23937900  1
  H  H24  1  0.47291800  0.45456400  0.76081200  1
  H  H25  1  0.94233700  0.01187100  0.22588000  1
  H  H26  1  0.05759600  0.01095300  0.77393900  1
  H  H27  1  0.44233700  0.51187100  0.22588000  1
  H  H28  1  0.55759600  0.51095300  0.77393900  1
  H  H29  1  0.95488100  0.96763900  0.24542500  1
  H  H30  1  0.04495500  0.96673300  0.75445900  1
  H  H31  1  0.45488100  0.46763900  0.24542500  1
  H  H32  1  0.54495500  0.46673300  0.75445900  1
  H  H33  1  0.93997500  0.00362500  0.15497800  1
  H  H34  1  0.06006100  0.00282600  0.84496400  1
  H  H35  1  0.43997500  0.50362500  0.15497800  1
  H  H36  1  0.56006100  0.50282600  0.84496400  1
  H  H37  1  0.98682600  0.05794700  0.27317200  1
  H  H38  1  0.01320600  0.05710600  0.72661900  1
  H  H39  1  0.48682600  0.55794700  0.27317200  1
  H  H40  1  0.51320600  0.55710600  0.72661900  1
  H  H41  1  0.97637400  0.05353000  0.19330400  1
  H  H42  1  0.02380700  0.05284100  0.80662600  1
  H  H43  1  0.47637400  0.55353000  0.19330400  1
  H  H44  1  0.52380700  0.55284100  0.80662600  1
  H  H45  1  0.39035000  0.00028500  0.95748700  1
  H  H46  1  0.60957300  0.00099200  0.04234600  1
  H  H47  1  0.89035000  0.50028500  0.95748700  1
  H  H48  1  0.10957300  0.50099200  0.04234600  1
  H  H49  1  0.32789600  0.00078700  0.89454800  1
  H  H50  1  0.67205500  0.00165100  0.10534600  1
  H  H51  1  0.82789600  0.50078700  0.89454800  1
  H  H52  1  0.17205500  0.50165100  0.10534600  1
  H  H53  1  0.32762400  0.00615000  0.76098700  1
  H  H54  1  0.67229900  0.00574400  0.23892000  1
  H  H55  1  0.82762400  0.50615000  0.76098700  1
  H  H56  1  0.17229900  0.50574400  0.23892000  1
  H  H57  1  0.39009900  0.00647000  0.82375900  1
  H  H58  1  0.60979500  0.00575600  0.17613200  1
  H  H59  1  0.89009900  0.50647000  0.82375900  1
  H  H60  1  0.10979500  0.50575600  0.17613200  1
  H  H61  1  0.28106200  0.04265800  0.73399700  1
  H  H62  1  0.71855300  0.04314800  0.26557400  1
  H  H63  1  0.78106200  0.54265800  0.73399700  1
  H  H64  1  0.21855300  0.54314800  0.26557400  1
  H  H65  1  0.21846900  0.04202000  0.67039400  1
  H  H66  1  0.78119500  0.04297700  0.32911400  1
  H  H67  1  0.71846900  0.54202000  0.67039400  1
  H  H68  1  0.28119500  0.54297700  0.32911400  1
  H  H69  1  0.21883700  0.96474900  0.76580700  1
  H  H70  1  0.78128800  0.96556000  0.23436800  1
  H  H71  1  0.71883700  0.46474900  0.76580700  1
  H  H72  1  0.28128800  0.46556000  0.23436800  1
  H  H73  1  0.28139800  0.96419200  0.82792800  1
  H  H74  1  0.71868300  0.96470600  0.17211300  1
  H  H75  1  0.78139800  0.46419200  0.82792800  1
  H  H76  1  0.21868300  0.46470600  0.17211300  1
  H  H77  1  0.17221200  0.94836900  0.67465700  1
  H  H78  1  0.82789600  0.94949700  0.32631100  1
  H  H79  1  0.67221200  0.44836900  0.67465700  1
  H  H80  1  0.32789600  0.44949700  0.32631100  1
  H  H81  1  0.10976800  0.94820900  0.61279800  1
  H  H82  1  0.89036200  0.94964900  0.38831300  1
  H  H83  1  0.60976800  0.44820900  0.61279800  1
  H  H84  1  0.39036200  0.44964900  0.38831300  1
  H  H85  1  0.10955500  0.05829300  0.60522700  1
  H  H86  1  0.88998200  0.05981000  0.39331100  1
  H  H87  1  0.60955500  0.55829300  0.60522700  1
  H  H88  1  0.38998200  0.55981000  0.39331100  1
  H  H89  1  0.17203400  0.05829500  0.66811900  1
  H  H90  1  0.82746900  0.05946200  0.33044900  1
  H  H91  1  0.67203400  0.55829500  0.66811900  1
  H  H92  1  0.32746900  0.55946200  0.33044900  1
  H  H93  1  0.49733100  0.89361900  0.93131600  1
  H  H94  1  0.50267600  0.89327100  0.07015900  1
  H  H95  1  0.99733100  0.39361900  0.93131600  1
  H  H96  1  0.00267600  0.39327100  0.07015900  1
  H  H97  1  0.49760700  0.83131700  0.93143300  1
  H  H98  1  0.50230000  0.83096100  0.06946000  1
  H  H99  1  0.99760700  0.33131700  0.93143300  1
  H  H100  1  0.00230000  0.33096100  0.06946000  1
  H  H101  1  0.53869000  0.78411500  0.08678800  1
  H  H102  1  0.46105200  0.78451700  0.91357000  1
  H  H103  1  0.03869000  0.28411500  0.08678800  1
  H  H104  1  0.96105200  0.28451700  0.91357000  1
  H  H105  1  0.03804800  0.22172300  0.08650700  1
  H  H106  1  0.96144500  0.22212900  0.91311400  1
  H  H107  1  0.53804800  0.72172300  0.08650700  1
  H  H108  1  0.46144500  0.72212900  0.91311400  1
  H  H109  1  0.94455100  0.17525700  0.93950400  1
  H  H110  1  0.05470900  0.17494800  0.05957900  1
  H  H111  1  0.44455100  0.67525700  0.93950400  1
  H  H112  1  0.55470900  0.67494800  0.05957900  1
  H  H113  1  0.94432300  0.11295300  0.93876700  1
  H  H114  1  0.05459500  0.11263800  0.05974700  1
  H  H115  1  0.44432300  0.61295300  0.93876700  1
  H  H116  1  0.55459500  0.61263800  0.05974700  1
  H  H117  1  0.49086200  0.11270800  0.05591500  1
  H  H118  1  0.50899800  0.11302100  0.94243300  1
  H  H119  1  0.99086200  0.61270800  0.05591500  1
  H  H120  1  0.00899800  0.61302100  0.94243300  1
  H  H121  1  0.49116400  0.17507500  0.05638500  1
  H  H122  1  0.50891900  0.17539200  0.94267300  1
  H  H123  1  0.99116400  0.67507500  0.05638500  1
  H  H124  1  0.00891900  0.67539200  0.94267300  1
  H  H125  1  0.54415300  0.22186500  0.00394300  1
  H  H126  1  0.45620100  0.22189800  0.99578300  1
  H  H127  1  0.04415300  0.72186500  0.00394300  1
  H  H128  1  0.95620100  0.72189800  0.99578300  1
  H  H129  1  0.04404200  0.78435200  0.00362500  1
  H  H130  1  0.95669900  0.78438300  0.99703200  1
  H  H131  1  0.54404200  0.28435200  0.00362500  1
  H  H132  1  0.45669900  0.28438300  0.99703200  1
  H  H133  1  0.94563800  0.83116500  0.93827600  1
  H  H134  1  0.05538200  0.83081600  0.06302100  1
  H  H135  1  0.44563800  0.33116400  0.93827700  1
  H  H136  1  0.55538200  0.33081600  0.06302100  1
  H  H137  1  0.94574900  0.89348500  0.93828700  1
  H  H138  1  0.05564800  0.89314000  0.06362700  1
  H  H139  1  0.44574900  0.39348500  0.93828700  1
  H  H140  1  0.55564800  0.39314000  0.06362700  1
  H  H141  1  0.92967500  0.94219000  0.16422600  1
  H  H142  1  0.97434100  0.93264100  0.20335100  1
  H  H143  1  0.99029300  0.91021400  0.15498700  1
  H  H144  1  0.97743200  0.89785200  0.06873900  1
  H  H145  1  0.92610200  0.92320700  0.98363300  1
  H  H146  1  0.88782600  0.96114400  0.98512100  1
  H  H147  1  0.90017200  0.97338700  0.07107500  1
  H  H148  1  0.07008600  0.94129300  0.83552800  1
  H  H149  1  0.02541500  0.93192400  0.79669300  1
  H  H150  1  0.00963900  0.90974300  0.84542800  1
  H  H151  1  0.02291500  0.89731300  0.93196900  1
  H  H152  1  0.07460000  0.92239700  0.01693400  1
  H  H153  1  0.11276900  0.96019000  0.01499900  1
  H  H154  1  0.10000700  0.97249400  0.92874400  1
  H  H155  1  0.42967500  0.44219000  0.16422600  1
  H  H156  1  0.47434100  0.43264100  0.20335100  1
  H  H157  1  0.49029300  0.41021400  0.15498700  1
  H  H158  1  0.47743200  0.39785200  0.06873900  1
  H  H159  1  0.42610200  0.42320700  0.98363300  1
  H  H160  1  0.38782600  0.46114400  0.98512100  1
  H  H161  1  0.40017200  0.47338700  0.07107500  1
  H  H162  1  0.57008600  0.44129300  0.83552800  1
  H  H163  1  0.52541500  0.43192400  0.79669300  1
  H  H164  1  0.50963900  0.40974300  0.84542700  1
  H  H165  1  0.52291500  0.39731300  0.93196900  1
  H  H166  1  0.57460000  0.42239700  0.01693400  1
  H  H167  1  0.61276900  0.46019000  0.01499900  1
  H  H168  1  0.60000700  0.47249400  0.92874400  1
  C  C1  1  0.06745200  0.00318000  0.56702700  1
  C  C2  1  0.93237200  0.00486500  0.43281000  1
  C  C3  1  0.56745200  0.50318000  0.56702700  1
  C  C4  1  0.43237200  0.50486500  0.43281000  1
  C  C5  1  0.99914600  0.00471000  0.41737700  1
  C  C6  1  0.00067700  0.00333700  0.58246500  1
  C  C7  1  0.49914600  0.50471000  0.41737700  1
  C  C8  1  0.50067700  0.50333700  0.58246500  1
  C  C9  1  0.00463700  0.03886400  0.27704300  1
  C  C10  1  0.99538400  0.03810100  0.72287000  1
  C  C11  1  0.50463700  0.53886400  0.27704300  1
  C  C12  1  0.49538400  0.53810100  0.72287000  1
  C  C13  1  0.02405700  0.97833200  0.29784000  1
  C  C14  1  0.97582300  0.97761200  0.70223300  1
  C  C15  1  0.52405700  0.47833200  0.29784000  1
  C  C16  1  0.47582300  0.47761200  0.70223300  1
  C  C17  1  0.02614700  0.98104400  0.25279300  1
  C  C18  1  0.97380200  0.98048000  0.74734200  1
  C  C19  1  0.52614700  0.48104400  0.25279300  1
  C  C20  1  0.47380200  0.48048000  0.74734200  1
  C  C21  1  0.99648800  0.00270100  0.12314900  1
  C  C22  1  0.00365700  0.00234000  0.87702900  1
  C  C23  1  0.49648800  0.50270100  0.12314900  1
  C  C24  1  0.50365700  0.50234000  0.87702900  1
  C  C25  1  0.99713600  0.00339200  0.28677000  1
  C  C26  1  0.00277500  0.00256200  0.71316500  1
  C  C27  1  0.49713600  0.50339200  0.28677000  1
  C  C28  1  0.50277500  0.50256200  0.71316500  1
  C  C29  1  0.99968100  0.03841500  0.22510300  1
  C  C30  1  0.00043700  0.03777300  0.77489800  1
  C  C31  1  0.49968100  0.53841500  0.22510300  1
  C  C32  1  0.50043700  0.53777300  0.77489800  1
  C  C33  1  0.99550900  0.00157700  0.20581900  1
  C  C34  1  0.00452800  0.00096500  0.79424900  1
  C  C35  1  0.49550900  0.50157700  0.20581900  1
  C  C36  1  0.50452800  0.50096500  0.79424900  1
  C  C37  1  0.96129800  0.98760400  0.18888800  1
  C  C38  1  0.03866800  0.98684600  0.81108200  1
  C  C39  1  0.46129800  0.48760400  0.18888800  1
  C  C40  1  0.53866800  0.48684600  0.81108200  1
  C  C41  1  0.96163300  0.99210500  0.23644100  1
  C  C42  1  0.03827500  0.99124300  0.76345700  1
  C  C43  1  0.46163300  0.49210500  0.23644100  1
  C  C44  1  0.53827500  0.49124300  0.76345700  1
  C  C45  1  0.99584800  0.00211600  0.16023700  1
  C  C46  1  0.00426300  0.00163100  0.83990700  1
  C  C47  1  0.49584800  0.50211600  0.16023700  1
  C  C48  1  0.50426300  0.50163100  0.83990700  1
  C  C49  1  0.99803000  0.00417700  0.33352600  1
  C  C50  1  0.00182400  0.00319600  0.66634900  1
  C  C51  1  0.49803000  0.50417700  0.33352600  1
  C  C52  1  0.50182400  0.50319600  0.66634900  1
  C  C53  1  0.99860100  0.00454600  0.37182700  1
  C  C54  1  0.00123000  0.00340200  0.62802300  1
  C  C55  1  0.49860100  0.50454600  0.37182700  1
  C  C56  1  0.50123000  0.50340200  0.62802300  1
  C  C57  1  0.37689500  0.00160700  0.91441500  1
  C  C58  1  0.62302800  0.00206200  0.08543400  1
  C  C59  1  0.87689500  0.50160700  0.91441500  1
  C  C60  1  0.12302800  0.50206200  0.08543400  1
  C  C61  1  0.34137600  0.00157100  0.87864000  1
  C  C62  1  0.65854700  0.00211100  0.12121800  1
  C  C63  1  0.84137600  0.50157100  0.87864000  1
  C  C64  1  0.15854700  0.50211100  0.12121800  1
  C  C65  1  0.32337900  0.00346400  0.82335900  1
  C  C66  1  0.67652100  0.00371700  0.17650500  1
  C  C67  1  0.82337900  0.50346400  0.82335900  1
  C  C68  1  0.17652100  0.50371700  0.17650500  1
  C  C69  1  0.34122700  0.00533800  0.80414400  1
  C  C70  1  0.65867600  0.00513100  0.19574800  1
  C  C71  1  0.84122700  0.50533800  0.80414400  1
  C  C72  1  0.15867600  0.50513100  0.19574800  1
  C  C73  1  0.37675200  0.00519800  0.83985600  1
  C  C74  1  0.62315400  0.00480900  0.16003400  1
  C  C75  1  0.87675200  0.50519800  0.83985600  1
  C  C76  1  0.12315400  0.50480900  0.16003400  1
  C  C77  1  0.39473200  0.00336300  0.89515600  1
  C  C78  1  0.60518500  0.00334700  0.10471200  1
  C  C79  1  0.89473200  0.50336300  0.89515600  1
  C  C80  1  0.10518500  0.50334700  0.10471200  1
  C  C81  1  0.26760400  0.02509900  0.74089300  1
  C  C82  1  0.73213900  0.02568900  0.25880300  1
  C  C83  1  0.76760400  0.52509900  0.74089300  1
  C  C84  1  0.23213900  0.52568900  0.25880300  1
  C  C85  1  0.23208300  0.02516700  0.70532100  1
  C  C86  1  0.76765800  0.02600700  0.29432700  1
  C  C87  1  0.73208300  0.52516700  0.70532100  1
  C  C88  1  0.26765800  0.52600700  0.29432700  1
  C  C89  1  0.21425600  0.00337400  0.71367300  1
  C  C90  1  0.78560100  0.00428500  0.28613000  1
  C  C91  1  0.71425600  0.50337400  0.71367300  1
  C  C92  1  0.28560100  0.50428500  0.28613000  1
  C  C93  1  0.23228200  0.98161400  0.75804600  1
  C  C94  1  0.76771800  0.98237800  0.24194500  1
  C  C95  1  0.73228200  0.48161400  0.75804600  1
  C  C96  1  0.26771800  0.48237800  0.24194500  1
  C  C97  1  0.26779600  0.98173500  0.79384200  1
  C  C98  1  0.73220400  0.98231000  0.20612100  1
  C  C99  1  0.76779600  0.48173500  0.79384200  1
  C  C100  1  0.23220400  0.48231000  0.20612100  1
  C  C101  1  0.28562700  0.00343400  0.78538700  1
  C  C102  1  0.71425800  0.00390400  0.21446300  1
  C  C103  1  0.78562700  0.50343400  0.78538700  1
  C  C104  1  0.21425800  0.50390400  0.21446300  1
  C  C105  1  0.15863600  0.97265800  0.66014600  1
  C  C106  1  0.84136200  0.97385400  0.34034300  1
  C  C107  1  0.65863600  0.47265800  0.66014600  1
  C  C108  1  0.34136200  0.47385400  0.34034300  1
  C  C109  1  0.12311800  0.97258500  0.62457200  1
  C  C110  1  0.87687800  0.97396800  0.37599100  1
  C  C111  1  0.62311800  0.47258500  0.62457200  1
  C  C112  1  0.37687800  0.47396800  0.37599100  1
  C  C113  1  0.10515300  0.00324800  0.60452900  1
  C  C114  1  0.89467400  0.00475100  0.39529100  1
  C  C115  1  0.60515300  0.50324800  0.60452900  1
  C  C116  1  0.39467400  0.50475100  0.39529100  1
  C  C117  1  0.12300400  0.03395700  0.62018300  1
  C  C118  1  0.87665800  0.03539300  0.37888000  1
  C  C119  1  0.62300400  0.53395700  0.62018300  1
  C  C120  1  0.37665800  0.53539300  0.37888000  1
  C  C121  1  0.15852800  0.03397500  0.65555000  1
  C  C122  1  0.84113300  0.03521900  0.34355300  1
  C  C123  1  0.65852800  0.53397500  0.65555000  1
  C  C124  1  0.34113300  0.53521900  0.34355300  1
  C  C125  1  0.17650400  0.00333800  0.67578400  1
  C  C126  1  0.82333800  0.00446200  0.32401500  1
  C  C127  1  0.67650400  0.50333800  0.67578400  1
  C  C128  1  0.32333800  0.50446200  0.32401500  1
  C  C129  1  0.99933500  0.07046700  0.99914700  1
  C  C130  1  0.49933500  0.57046700  0.99914700  1
  C  C131  1  0.99744500  0.00310200  0.07913200  1
  C  C132  1  0.00271800  0.00289800  0.92106600  1
  C  C133  1  0.49744500  0.50310200  0.07913200  1
  C  C134  1  0.50271800  0.50289800  0.92106600  1
  C  C135  1  0.00083300  0.93562700  0.00106200  1
  C  C136  1  0.50083300  0.43562700  0.00106200  1
  C  C137  1  0.49999900  0.93577200  0.00088700  1
  C  C138  1  0.99999900  0.43577200  0.00088700  1
  C  C139  1  0.43243300  0.00326900  0.93311000  1
  C  C140  1  0.56748700  0.00322600  0.06674900  1
  C  C141  1  0.93243300  0.50326900  0.93311000  1
  C  C142  1  0.06748700  0.50322600  0.06674900  1
  C  C143  1  0.49991600  0.07057800  0.99901300  1
  C  C144  1  0.99991600  0.57057800  0.99901300  1
  C  C145  1  0.49846100  0.88018200  0.96194400  1
  C  C146  1  0.50153300  0.87998700  0.03941700  1
  C  C147  1  0.99846100  0.38018200  0.96194400  1
  C  C148  1  0.00153300  0.37998700  0.03941700  1
  C  C149  1  0.49828900  0.84470800  0.96166500  1
  C  C150  1  0.50164700  0.84451000  0.03936300  1
  C  C151  1  0.99828900  0.34470800  0.96166500  1
  C  C152  1  0.00164700  0.34451000  0.03936300  1
  C  C153  1  0.49994600  0.82663000  0.00042200  1
  C  C154  1  0.99994600  0.32663000  0.00042200  1
  C  C155  1  0.50000500  0.89804200  0.00075800  1
  C  C156  1  0.00000500  0.39804200  0.00075800  1
  C  C157  1  0.52128700  0.77074400  0.04843900  1
  C  C158  1  0.47840700  0.77096900  0.95176000  1
  C  C159  1  0.02128700  0.27074400  0.04843900  1
  C  C160  1  0.97840700  0.27096900  0.95176000  1
  C  C161  1  0.02134900  0.23527300  0.04820800  1
  C  C162  1  0.97820400  0.23549800  0.95157300  1
  C  C163  1  0.52134900  0.73527300  0.04820800  1
  C  C164  1  0.47820400  0.73549800  0.95157300  1
  C  C165  1  0.99973900  0.21740100  0.99978400  1
  C  C166  1  0.49973900  0.71740100  0.99978400  1
  C  C167  1  0.49988100  0.78884000  0.00020500  1
  C  C168  1  0.99988100  0.28884000  0.00020500  1
  C  C169  1  0.96889700  0.16171900  0.96556100  1
  C  C170  1  0.03029100  0.16154500  0.03338000  1
  C  C171  1  0.46889700  0.66171900  0.96556100  1
  C  C172  1  0.53029100  0.66154500  0.03338000  1
  C  C173  1  0.96877000  0.12624400  0.96554000  1
  C  C174  1  0.03022400  0.12607000  0.03307500  1
  C  C175  1  0.46877000  0.62624400  0.96554000  1
  C  C176  1  0.53022400  0.62607000  0.03307500  1
  C  C177  1  0.99944700  0.10819900  0.99923600  1
  C  C178  1  0.49944700  0.60819900  0.99923600  1
  C  C179  1  0.99964200  0.17961200  0.99956400  1
  C  C180  1  0.49964200  0.67961200  0.99956400  1
  C  C181  1  0.49489100  0.12615600  0.03087300  1
  C  C182  1  0.50500200  0.12633100  0.96760800  1
  C  C183  1  0.99489100  0.62615600  0.03087300  1
  C  C184  1  0.00500200  0.62633100  0.96760800  1
  C  C185  1  0.49472800  0.16163000  0.03077500  1
  C  C186  1  0.50529400  0.16180400  0.96811300  1
  C  C187  1  0.99472800  0.66163000  0.03077500  1
  C  C188  1  0.00529400  0.66180400  0.96811300  1
  C  C189  1  0.50005200  0.17967100  0.99955700  1
  C  C190  1  0.00005200  0.67967100  0.99955700  1
  C  C191  1  0.49992300  0.10829700  0.99914900  1
  C  C192  1  0.99992300  0.60829700  0.99914900  1
  C  C193  1  0.52459200  0.23537900  0.00181100  1
  C  C194  1  0.47584400  0.23539500  0.99811400  1
  C  C195  1  0.02459200  0.73537900  0.00181100  1
  C  C196  1  0.97584400  0.73539500  0.99811400  1
  C  C197  1  0.02486500  0.77084600  0.00249800  1
  C  C198  1  0.97579500  0.77086500  0.99796500  1
  C  C199  1  0.52486500  0.27084600  0.00249800  1
  C  C200  1  0.47579500  0.27086500  0.99796500  1
  C  C201  1  0.00038700  0.78880800  0.00036800  1
  C  C202  1  0.50038700  0.28880800  0.00036800  1
  C  C203  1  0.50016100  0.21743000  0.99982500  1
  C  C204  1  0.00016100  0.71743000  0.99982500  1
  C  C205  1  0.96989200  0.84460100  0.96633600  1
  C  C206  1  0.03120800  0.84440900  0.03511700  1
  C  C207  1  0.46989200  0.34460100  0.96633600  1
  C  C208  1  0.53120800  0.34440900  0.03511700  1
  C  C209  1  0.97000700  0.88006100  0.96621100  1
  C  C210  1  0.03130800  0.87986800  0.03559800  1
  C  C211  1  0.47000700  0.38006100  0.96621100  1
  C  C212  1  0.53130800  0.37986800  0.03559800  1
  C  C213  1  0.00071300  0.89791500  0.00097900  1
  C  C214  1  0.50071300  0.39791500  0.00097900  1
  C  C215  1  0.00049700  0.82655800  0.00062300  1
  C  C216  1  0.50049700  0.32655800  0.00062300  1
  C  C217  1  0.95341200  0.94968400  0.17107300  1
  C  C218  1  0.94640300  0.94315900  0.11890700  1
  C  C219  1  0.96779300  0.92162600  0.11789900  1
  C  C220  1  0.96061800  0.91463500  0.06938700  1
  C  C221  1  0.93191500  0.92885200  0.02173300  1
  C  C222  1  0.91042300  0.95014000  0.02255700  1
  C  C223  1  0.91753200  0.95715800  0.07099100  1
  C  C224  1  0.04644600  0.94892400  0.82888500  1
  C  C225  1  0.05362800  0.94248400  0.88120000  1
  C  C226  1  0.03227400  0.92106400  0.88244700  1
  C  C227  1  0.03968600  0.91403100  0.93112600  1
  C  C228  1  0.06858800  0.92809500  0.97870200  1
  C  C229  1  0.09002100  0.94930100  0.97762700  1
  C  C230  1  0.08267500  0.95636100  0.92902500  1
  C  C231  1  0.45341200  0.44968400  0.17107300  1
  C  C232  1  0.44640300  0.44315900  0.11890700  1
  C  C233  1  0.46779300  0.42162600  0.11789900  1
  C  C234  1  0.46061800  0.41463500  0.06938700  1
  C  C235  1  0.43191500  0.42885200  0.02173300  1
  C  C236  1  0.41042300  0.45014000  0.02255700  1
  C  C237  1  0.41753200  0.45715800  0.07099100  1
  C  C238  1  0.54644600  0.44892400  0.82888500  1
  C  C239  1  0.55362800  0.44248400  0.88120000  1
  C  C240  1  0.53227400  0.42106400  0.88244700  1
  C  C241  1  0.53968600  0.41403100  0.93112600  1
  C  C242  1  0.56858800  0.42809500  0.97870200  1
  C  C243  1  0.59002100  0.44930100  0.97762700  1
  C  C244  1  0.58267500  0.45636100  0.92902500  1
  O  O1  1  0.05128100  0.03283100  0.55002000  1
  O  O2  1  0.94838500  0.03457200  0.44779100  1
  O  O3  1  0.55128100  0.53283100  0.55002000  1
  O  O4  1  0.44838500  0.53457200  0.44779100  1
  O  O5  1  0.05145800  0.97347200  0.55212800  1
  O  O6  1  0.94852000  0.97520900  0.44974000  1
  O  O7  1  0.55145800  0.47347200  0.55212800  1
  O  O8  1  0.44852000  0.47520900  0.44974000  1
  O  O9  1  0.99849300  0.03445500  0.43614600  1
  O  O10  1  0.99978000  0.03300000  0.56192000  1
  O  O11  1  0.49849300  0.53445500  0.43614600  1
  O  O12  1  0.49978000  0.53300000  0.56192000  1
  O  O13  1  0.00011400  0.97504400  0.43796800  1
  O  O14  1  0.00125600  0.97358700  0.56364500  1
  O  O15  1  0.50011400  0.47504400  0.43796800  1
  O  O16  1  0.50125600  0.47358700  0.56364500  1
  O  O17  1  0.02906900  0.05425400  0.02943200  1
  O  O18  1  0.96951800  0.05444200  0.96888700  1
  O  O19  1  0.52906900  0.55425400  0.02943200  1
  O  O20  1  0.46951800  0.55444200  0.96888700  1
  O  O21  1  0.02768100  0.00237300  0.09111200  1
  O  O22  1  0.97248500  0.00377300  0.90908800  1
  O  O23  1  0.52768100  0.50237300  0.09111200  1
  O  O24  1  0.47248500  0.50377300  0.90908800  1
  O  O25  1  0.96810200  0.00388800  0.02901000  1
  O  O26  1  0.03205900  0.00213600  0.97118900  1
  O  O27  1  0.46810200  0.50388800  0.02901000  1
  O  O28  1  0.53205900  0.50213600  0.97118900  1
  O  O29  1  0.03064400  0.95164500  0.03136500  1
  O  O30  1  0.97110600  0.95183400  0.97073400  1
  O  O31  1  0.53064400  0.45164500  0.03136500  1
  O  O32  1  0.47110600  0.45183400  0.97073400  1
  O  O33  1  0.50054100  0.95196900  0.96549200  1
  O  O34  1  0.49941400  0.95180400  0.03632600  1
  O  O35  1  0.00054100  0.45196900  0.96549200  1
  O  O36  1  0.99941400  0.45180400  0.03632600  1
  O  O37  1  0.44847300  0.00411900  0.91328200  1
  O  O38  1  0.55144500  0.00262800  0.08658300  1
  O  O39  1  0.94847300  0.50411900  0.91328200  1
  O  O40  1  0.05144500  0.50262800  0.08658300  1
  O  O41  1  0.44856200  0.00245600  0.98532100  1
  O  O42  1  0.55136200  0.00395100  0.01453800  1
  O  O43  1  0.94856200  0.50245600  0.98532100  1
  O  O44  1  0.05136200  0.50395100  0.01453800  1
  O  O45  1  0.50073100  0.05455700  0.96379800  1
  O  O46  1  0.49915600  0.05439300  0.03420000  1
  O  O47  1  0.00073100  0.55455700  0.96379800  1
  O  O48  1  0.99915600  0.55439300  0.03420000  1
