# generated using pymatgen
data_Fe2H23C44NO21
_symmetry_space_group_name_H-M   'P 1'
_cell_length_a   15.74342200
_cell_length_b   9.47604700
_cell_length_c   15.74585100
_cell_angle_alpha   87.54966500
_cell_angle_beta   86.67271300
_cell_angle_gamma   104.76643900
_symmetry_Int_Tables_number   1
_chemical_formula_structural   Fe2H23C44NO21
_chemical_formula_sum   'Fe2 H23 C44 N1 O21'
_cell_volume   2263.60690308
_cell_formula_units_Z   1
loop_
 _symmetry_equiv_pos_site_id
 _symmetry_equiv_pos_as_xyz
  1  'x, y, z'
loop_
 _atom_site_type_symbol
 _atom_site_label
 _atom_site_symmetry_multiplicity
 _atom_site_fract_x
 _atom_site_fract_y
 _atom_site_fract_z
 _atom_site_occupancy
  Fe  Fe1  1  0.49145700  0.99601000  0.19374500  1
  Fe  Fe2  1  0.49252000  0.01279700  0.82006600  1
  H  H1  1  0.17410500  0.02216300  0.87542400  1
  H  H2  1  0.21762000  0.99251100  0.17974800  1
  H  H3  1  0.06900900  0.10110800  0.84355600  1
  H  H4  1  0.93280200  0.03454100  0.17353500  1
  H  H5  1  0.77500700  0.08560800  0.83755200  1
  H  H6  1  0.48516000  0.54810100  0.79210500  1
  H  H7  1  0.47033700  0.71115600  0.42497400  1
  H  H8  1  0.49492700  0.14503800  0.46436200  1
  H  H9  1  0.34400900  0.41580600  0.24903800  1
  H  H10  1  0.36264100  0.26400000  0.19214300  1
  H  H11  1  0.36455900  0.43406900  0.13473000  1
  H  H12  1  0.66342000  0.73697300  0.57263300  1
  H  H13  1  0.67588200  0.91525000  0.52091300  1
  H  H14  1  0.65319200  0.75521900  0.45900000  1
  H  H15  1  0.89147400  0.90213200  0.78684400  1
  H  H16  1  0.98235600  0.99673500  0.71246200  1
  H  H17  1  0.87077500  0.00083900  0.69314300  1
  H  H18  1  0.03845800  0.78917800  0.21090000  1
  H  H19  1  0.97017100  0.84978100  0.29073400  1
  H  H20  1  0.07942500  0.83657100  0.31330400  1
  H  H21  1  0.85803300  0.72339500  0.12597400  1
  H  H22  1  0.76963400  0.73044500  0.05886400  1
  H  H23  1  0.74497800  0.67339400  0.17021100  1
  C  C1  1  0.27645800  0.00854800  0.05459700  1
  C  C2  1  0.26430300  0.01937800  0.96814500  1
  C  C3  1  0.18215500  0.02350100  0.94259100  1
  C  C4  1  0.20644500  0.99921600  0.11285600  1
  C  C5  1  0.12550200  0.00841100  0.08706000  1
  C  C6  1  0.11233300  0.02326800  0.00144000  1
  C  C7  1  0.02977100  0.03578000  0.97694600  1
  C  C8  1  0.01675200  0.07240100  0.89318400  1
  C  C9  1  0.93609000  0.08493600  0.87030100  1
  C  C10  1  0.05900400  0.00975000  0.14757600  1
  C  C11  1  0.97815100  0.01837700  0.12340200  1
  C  C12  1  0.95977000  0.01918100  0.03820900  1
  C  C13  1  0.87470000  0.01543700  0.01319100  1
  C  C14  1  0.86485300  0.05517600  0.92950800  1
  C  C15  1  0.78321900  0.05982600  0.90351900  1
  C  C16  1  0.79850100  0.96784600  0.06845000  1
  C  C17  1  0.71746800  0.98297600  0.04392900  1
  C  C18  1  0.70966000  0.02349300  0.95952300  1
  C  C19  1  0.64234500  0.96314600  0.10853300  1
  C  C20  1  0.47714600  0.71842100  0.25883700  1
  C  C21  1  0.36267700  0.01898500  0.08782000  1
  C  C22  1  0.47932300  0.20302100  0.30782200  1
  C  C23  1  0.51285000  0.80420200  0.70950400  1
  C  C24  1  0.62365200  0.00447400  0.92403700  1
  C  C25  1  0.48950000  0.28066700  0.75018200  1
  C  C26  1  0.33534800  0.02355600  0.90188700  1
  C  C27  1  0.49073200  0.53879000  0.72400100  1
  C  C28  1  0.50606300  0.66359400  0.67144200  1
  C  C29  1  0.51776100  0.65639200  0.58424700  1
  C  C30  1  0.49170200  0.40689000  0.69057900  1
  C  C31  1  0.49481600  0.39733900  0.60249900  1
  C  C32  1  0.50121900  0.52016400  0.54832500  1
  C  C33  1  0.49344700  0.50184200  0.46045600  1
  C  C34  1  0.48267400  0.61193800  0.40353900  1
  C  C35  1  0.48043300  0.59390700  0.31702600  1
  C  C36  1  0.49394900  0.25128300  0.48563400  1
  C  C37  1  0.49095800  0.36596600  0.42947300  1
  C  C38  1  0.48516800  0.34554300  0.34278000  1
  C  C39  1  0.48071300  0.45915200  0.28691400  1
  C  C40  1  0.38153200  0.38454500  0.19440500  1
  C  C41  1  0.63985700  0.79820700  0.52139600  1
  C  C42  1  0.91770300  0.00031900  0.74295700  1
  C  C43  1  0.03849400  0.86385600  0.26324400  1
  C  C44  1  0.79301900  0.74809000  0.12360300  1
  N  N1  1  0.49310900  0.26831200  0.56968800  1
  O  O1  1  0.57565700  0.01758900  0.09279700  1
  O  O2  1  0.47431200  0.70486000  0.17639600  1
  O  O3  1  0.64702600  0.91073300  0.18605700  1
  O  O4  1  0.48463300  0.84819800  0.28835100  1
  O  O5  1  0.37006600  0.93194500  0.15267200  1
  O  O6  1  0.42948600  0.12954700  0.06182600  1
  O  O7  1  0.53153800  0.19299500  0.24152300  1
  O  O8  1  0.41337100  0.09100600  0.33372000  1
  O  O9  1  0.46017000  0.81184900  0.77591200  1
  O  O10  1  0.57300100  0.92159800  0.67964100  1
  O  O11  1  0.61292600  0.09210300  0.86092300  1
  O  O12  1  0.56061800  0.88629600  0.94657300  1
  O  O13  1  0.32562400  0.05972100  0.82235000  1
  O  O14  1  0.49391000  0.15329400  0.72289900  1
  O  O15  1  0.40750300  0.98763900  0.92069400  1
  O  O16  1  0.48643500  0.29706300  0.83255100  1
  O  O17  1  0.47214400  0.43420700  0.20246500  1
  O  O18  1  0.54963100  0.78447500  0.53595000  1
  O  O19  1  0.92749400  0.12698500  0.78768100  1
  O  O20  1  0.07358200  0.00866500  0.23239200  1
  O  O21  1  0.80047800  0.89256500  0.14407600  1
