# generated using pymatgen
data_Cu3H31C48NO13
_symmetry_space_group_name_H-M   'P 1'
_cell_length_a   36.44486900
_cell_length_b   29.83634300
_cell_length_c   21.24714100
_cell_angle_alpha   90.00000000
_cell_angle_beta   54.79169800
_cell_angle_gamma   90.00000000
_symmetry_Int_Tables_number   1
_chemical_formula_structural   Cu3H31C48NO13
_chemical_formula_sum   'Cu12 H124 C192 N4 O52'
_cell_volume   18877.18189527
_cell_formula_units_Z   4
loop_
 _symmetry_equiv_pos_site_id
 _symmetry_equiv_pos_as_xyz
  1  'x, y, z'
loop_
 _atom_site_type_symbol
 _atom_site_label
 _atom_site_symmetry_multiplicity
 _atom_site_fract_x
 _atom_site_fract_y
 _atom_site_fract_z
 _atom_site_occupancy
  Cu  Cu1  1  0.00000000  0.54542000  0.50000000  1
  Cu  Cu2  1  0.50000000  0.04542000  0.50000000  1
  Cu  Cu3  1  0.00000000  0.45810800  0.50000000  1
  Cu  Cu4  1  0.50000000  0.95810800  0.50000000  1
  Cu  Cu5  1  0.95523900  0.50208500  0.04486400  1
  Cu  Cu6  1  0.04476100  0.50208500  0.95513600  1
  Cu  Cu7  1  0.45523900  0.00208500  0.04486400  1
  Cu  Cu8  1  0.54476100  0.00208500  0.95513600  1
  Cu  Cu9  1  0.49973600  0.50210100  0.93903600  1
  Cu  Cu10  1  0.50026400  0.50210100  0.06096400  1
  Cu  Cu11  1  0.99973600  0.00210100  0.93903600  1
  Cu  Cu12  1  0.00026400  0.00210100  0.06096400  1
  H  H1  1  0.99744700  0.57431800  0.30290800  1
  H  H2  1  0.00255300  0.57431800  0.69709200  1
  H  H3  1  0.49744700  0.07431800  0.30290800  1
  H  H4  1  0.50255300  0.07431800  0.69709200  1
  H  H5  1  0.94423400  0.54650700  0.36055000  1
  H  H6  1  0.05576600  0.54650700  0.63945000  1
  H  H7  1  0.44423400  0.04650700  0.36055000  1
  H  H8  1  0.55576600  0.04650700  0.63945000  1
  H  H9  1  0.94021500  0.54071400  0.25980700  1
  H  H10  1  0.05978500  0.54071400  0.74019300  1
  H  H11  1  0.44021500  0.04071400  0.25980700  1
  H  H12  1  0.55978500  0.04071400  0.74019300  1
  H  H13  1  0.99119100  0.57329400  0.20377500  1
  H  H14  1  0.00880900  0.57329400  0.79622500  1
  H  H15  1  0.49119100  0.07329400  0.20377500  1
  H  H16  1  0.50880900  0.07329400  0.79622500  1
  H  H17  1  0.06450300  0.53550700  0.13977000  1
  H  H18  1  0.93549700  0.53550700  0.86023000  1
  H  H19  1  0.56450300  0.03550700  0.13977000  1
  H  H20  1  0.43549700  0.03550700  0.86023000  1
  H  H21  1  0.98730500  0.42955100  0.31775600  1
  H  H22  1  0.01269500  0.42955100  0.68224400  1
  H  H23  1  0.48730500  0.92955100  0.31775600  1
  H  H24  1  0.51269500  0.92955100  0.68224400  1
  H  H25  1  0.93829200  0.46510300  0.36066900  1
  H  H26  1  0.06170800  0.46510300  0.63933100  1
  H  H27  1  0.43829200  0.96510300  0.36066900  1
  H  H28  1  0.56170800  0.96510300  0.63933100  1
  H  H29  1  0.94348000  0.45706900  0.25067700  1
  H  H30  1  0.05652000  0.45706900  0.74932300  1
  H  H31  1  0.44348000  0.95706900  0.25067700  1
  H  H32  1  0.55652000  0.95706900  0.74932300  1
  H  H33  1  0.99740900  0.42979700  0.20356700  1
  H  H34  1  0.00259100  0.42979700  0.79643300  1
  H  H35  1  0.49740900  0.92979700  0.20356700  1
  H  H36  1  0.50259100  0.92979700  0.79643300  1
  H  H37  1  0.05934000  0.46165400  0.23865000  1
  H  H38  1  0.94066000  0.46165400  0.76135000  1
  H  H39  1  0.55934000  0.96165400  0.23865000  1
  H  H40  1  0.44066000  0.96165400  0.76135000  1
  H  H41  1  0.06889700  0.47530600  0.12603800  1
  H  H42  1  0.93110300  0.47530600  0.87396200  1
  H  H43  1  0.56889700  0.97530600  0.12603800  1
  H  H44  1  0.43110300  0.97530600  0.87396200  1
  H  H45  1  0.63986000  0.45292000  0.93339200  1
  H  H46  1  0.36014000  0.45292000  0.06660800  1
  H  H47  1  0.13986000  0.95292000  0.93339200  1
  H  H48  1  0.86014000  0.95292000  0.06660800  1
  H  H49  1  0.63899500  0.55181900  0.78906400  1
  H  H50  1  0.36100500  0.55181900  0.21093600  1
  H  H51  1  0.13899500  0.05181900  0.78906400  1
  H  H52  1  0.86100500  0.05181900  0.21093600  1
  H  H53  1  0.70823500  0.58103500  0.68137600  1
  H  H54  1  0.29176500  0.58103500  0.31862400  1
  H  H55  1  0.20823500  0.08103500  0.68137600  1
  H  H56  1  0.79176500  0.08103500  0.31862400  1
  H  H57  1  0.79033500  0.58216000  0.60078500  1
  H  H58  1  0.20966500  0.58216000  0.39921500  1
  H  H59  1  0.29033500  0.08216000  0.60078500  1
  H  H60  1  0.70966500  0.08216000  0.39921500  1
  H  H61  1  0.86007300  0.55425300  0.57121000  1
  H  H62  1  0.13992700  0.55425300  0.42879000  1
  H  H63  1  0.36007300  0.05425300  0.57121000  1
  H  H64  1  0.63992700  0.05425300  0.42879000  1
  H  H65  1  0.86091700  0.44980800  0.70765300  1
  H  H66  1  0.13908300  0.44980800  0.29234700  1
  H  H67  1  0.36091700  0.94980800  0.70765300  1
  H  H68  1  0.63908300  0.94980800  0.29234700  1
  H  H69  1  0.79171700  0.42261800  0.81822200  1
  H  H70  1  0.20828300  0.42261800  0.18177800  1
  H  H71  1  0.29171700  0.92261800  0.81822200  1
  H  H72  1  0.70828300  0.92261800  0.18177800  1
  H  H73  1  0.70962900  0.42397700  0.90235100  1
  H  H74  1  0.29037100  0.42397700  0.09764900  1
  H  H75  1  0.20962900  0.92397700  0.90235100  1
  H  H76  1  0.79037100  0.92397700  0.09764900  1
  H  H77  1  0.55477800  0.36317100  0.88117400  1
  H  H78  1  0.44522200  0.36317100  0.11882600  1
  H  H79  1  0.05477800  0.86317100  0.88117400  1
  H  H80  1  0.94522200  0.86317100  0.11882600  1
  H  H81  1  0.41278000  0.29370900  0.18413800  1
  H  H82  1  0.58722000  0.29370900  0.81586200  1
  H  H83  1  0.91278000  0.79370900  0.18413800  1
  H  H84  1  0.08722000  0.79370900  0.81586200  1
  H  H85  1  0.91142800  0.71177100  0.18306100  1
  H  H86  1  0.08857200  0.71177100  0.81693900  1
  H  H87  1  0.41142800  0.21177100  0.18306100  1
  H  H88  1  0.58857200  0.21177100  0.81693900  1
  H  H89  1  0.94217100  0.64229500  0.11637900  1
  H  H90  1  0.05782900  0.64229500  0.88362100  1
  H  H91  1  0.44217100  0.14229500  0.11637900  1
  H  H92  1  0.55782900  0.14229500  0.88362100  1
  H  H93  1  0.55766700  0.64090900  0.00241700  1
  H  H94  1  0.44233300  0.64090900  0.99758300  1
  H  H95  1  0.05766700  0.14090900  0.00241700  1
  H  H96  1  0.94233300  0.14090900  0.99758300  1
  H  H97  1  0.40819700  0.71041600  0.00151100  1
  H  H98  1  0.59180300  0.71041600  0.99848900  1
  H  H99  1  0.90819700  0.21041600  0.00151100  1
  H  H100  1  0.09180300  0.21041600  0.99848900  1
  H  H101  1  0.90685500  0.29235600  0.00561200  1
  H  H102  1  0.09314500  0.29235600  0.99438700  1
  H  H103  1  0.40685500  0.79235600  0.00561200  1
  H  H104  1  0.59314500  0.79235600  0.99438700  1
  H  H105  1  0.93925500  0.36186200  0.00698800  1
  H  H106  1  0.06074500  0.36186200  0.99301200  1
  H  H107  1  0.43925500  0.86186200  0.00698800  1
  H  H108  1  0.56074500  0.86186200  0.99301200  1
  H  H109  1  0.07052900  0.56132600  0.24529500  1
  H  H110  1  0.14016000  0.58650000  0.20027400  1
  H  H111  1  0.17637000  0.56234500  0.10512700  1
  H  H112  1  0.18024900  0.54384300  0.18206800  1
  H  H113  1  0.92947100  0.56132600  0.75470400  1
  H  H114  1  0.85984000  0.58650100  0.79972600  1
  H  H115  1  0.82363000  0.56234500  0.89487200  1
  H  H116  1  0.81975100  0.54384300  0.81793200  1
  H  H117  1  0.57052900  0.06132600  0.24529500  1
  H  H118  1  0.64016000  0.08650000  0.20027400  1
  H  H119  1  0.67637000  0.06234500  0.10512700  1
  H  H120  1  0.68024900  0.04384300  0.18206800  1
  H  H121  1  0.42947100  0.06132600  0.75470400  1
  H  H122  1  0.35984000  0.08650100  0.79972600  1
  H  H123  1  0.32363000  0.06234500  0.89487200  1
  H  H124  1  0.31975100  0.04384300  0.81793200  1
  C  C1  1  0.91500900  0.50182300  0.58457500  1
  C  C2  1  0.08499100  0.50182300  0.41542400  1
  C  C3  1  0.41500900  0.00182300  0.58457500  1
  C  C4  1  0.58499100  0.00182300  0.41542400  1
  C  C5  1  0.00025100  0.50157200  0.38060200  1
  C  C6  1  0.99974900  0.50157200  0.61939800  1
  C  C7  1  0.50025100  0.00157200  0.38060200  1
  C  C8  1  0.49974900  0.00157200  0.61939800  1
  C  C9  1  0.97871400  0.54397400  0.30705100  1
  C  C10  1  0.02128600  0.54397400  0.69294900  1
  C  C11  1  0.47871400  0.04397400  0.30705100  1
  C  C12  1  0.52128600  0.04397400  0.69294900  1
  C  C13  1  0.97598900  0.54246100  0.23870000  1
  C  C14  1  0.02401100  0.54246100  0.76130000  1
  C  C15  1  0.47598900  0.04246100  0.23870000  1
  C  C16  1  0.52401100  0.04246100  0.76130000  1
  C  C17  1  0.04875600  0.49638600  0.23804000  1
  C  C18  1  0.95124400  0.49638600  0.76196000  1
  C  C19  1  0.54875600  0.99638600  0.23804000  1
  C  C20  1  0.45124400  0.99638600  0.76196000  1
  C  C21  1  0.97408600  0.46152900  0.31171500  1
  C  C22  1  0.02591400  0.46152900  0.68828500  1
  C  C23  1  0.47408600  0.96152900  0.31171500  1
  C  C24  1  0.52591400  0.96152900  0.68828500  1
  C  C25  1  0.00078500  0.50135500  0.30974200  1
  C  C26  1  0.99921500  0.50135500  0.69025700  1
  C  C27  1  0.50078500  0.00135500  0.30974200  1
  C  C28  1  0.49921500  0.00135500  0.69025700  1
  C  C29  1  0.00094100  0.50163300  0.19012300  1
  C  C30  1  0.99905900  0.50163300  0.80987700  1
  C  C31  1  0.50094100  0.00163300  0.19012300  1
  C  C32  1  0.49905900  0.00163300  0.80987700  1
  C  C33  1  0.04895000  0.50280100  0.16705900  1
  C  C34  1  0.95105000  0.50280100  0.83294100  1
  C  C35  1  0.54895000  0.00280100  0.16705900  1
  C  C36  1  0.45105000  0.00280100  0.83294100  1
  C  C37  1  0.97769500  0.45971400  0.23706800  1
  C  C38  1  0.02230500  0.45971400  0.76293200  1
  C  C39  1  0.47769500  0.95971400  0.23706800  1
  C  C40  1  0.52230500  0.95971400  0.76293200  1
  C  C41  1  0.65755300  0.47493900  0.88402700  1
  C  C42  1  0.34244700  0.47493900  0.11597200  1
  C  C43  1  0.15755300  0.97493900  0.88402700  1
  C  C44  1  0.84244700  0.97493900  0.11597200  1
  C  C45  1  0.63400000  0.50232300  0.86659100  1
  C  C46  1  0.36600000  0.50232300  0.13340900  1
  C  C47  1  0.13400000  0.00232300  0.86659100  1
  C  C48  1  0.86600000  0.00232300  0.13340900  1
  C  C49  1  0.65706400  0.52984000  0.80269900  1
  C  C50  1  0.34293600  0.52984000  0.19730100  1
  C  C51  1  0.15706400  0.02984000  0.80269900  1
  C  C52  1  0.84293600  0.02984000  0.19730100  1
  C  C53  1  0.70339000  0.53037800  0.75712000  1
  C  C54  1  0.29661000  0.53037800  0.24288000  1
  C  C55  1  0.20339000  0.03037800  0.75712000  1
  C  C56  1  0.79661000  0.03037800  0.24288000  1
  C  C57  1  0.72680200  0.50241000  0.77384000  1
  C  C58  1  0.27319800  0.50241000  0.22616000  1
  C  C59  1  0.22680200  0.00241000  0.77384000  1
  C  C60  1  0.77319800  0.00241000  0.22616000  1
  C  C61  1  0.70388400  0.47448300  0.83699200  1
  C  C62  1  0.29611600  0.47448300  0.16300700  1
  C  C63  1  0.20388400  0.97448300  0.83699200  1
  C  C64  1  0.79611600  0.97448300  0.16300700  1
  C  C65  1  0.72634600  0.55890400  0.69473300  1
  C  C66  1  0.27365400  0.55890400  0.30526700  1
  C  C67  1  0.22634600  0.05890400  0.69473300  1
  C  C68  1  0.77365400  0.05890400  0.30526700  1
  C  C69  1  0.77260800  0.55954400  0.64932800  1
  C  C70  1  0.22739200  0.55954400  0.35067200  1
  C  C71  1  0.27260800  0.05954400  0.64932800  1
  C  C72  1  0.72739200  0.05954400  0.35067200  1
  C  C73  1  0.79605100  0.53113900  0.66543800  1
  C  C74  1  0.20394900  0.53113900  0.33456200  1
  C  C75  1  0.29605100  0.03113900  0.66543800  1
  C  C76  1  0.70394900  0.03113900  0.33456200  1
  C  C77  1  0.77312800  0.50232000  0.72733500  1
  C  C78  1  0.22687200  0.50232000  0.27266500  1
  C  C79  1  0.27312800  0.00232000  0.72733500  1
  C  C80  1  0.72687200  0.00232000  0.27266500  1
  C  C81  1  0.79653300  0.47336900  0.74265400  1
  C  C82  1  0.20346700  0.47336900  0.25734600  1
  C  C83  1  0.29653300  0.97336900  0.74265400  1
  C  C84  1  0.70346700  0.97336900  0.25734600  1
  C  C85  1  0.77359400  0.44522500  0.80556900  1
  C  C86  1  0.22640600  0.44522500  0.19443100  1
  C  C87  1  0.27359400  0.94522500  0.80556900  1
  C  C88  1  0.72640600  0.94522500  0.19443100  1
  C  C89  1  0.72734300  0.44601700  0.85299800  1
  C  C90  1  0.27265700  0.44601700  0.14700200  1
  C  C91  1  0.22734300  0.94601700  0.85299800  1
  C  C92  1  0.77265700  0.94601700  0.14700200  1
  C  C93  1  0.84237500  0.53151600  0.61956400  1
  C  C94  1  0.15762500  0.53151600  0.38043500  1
  C  C95  1  0.34237500  0.03151600  0.61956400  1
  C  C96  1  0.65762500  0.03151600  0.38043500  1
  C  C97  1  0.86589600  0.50197800  0.63394600  1
  C  C98  1  0.13410400  0.50197800  0.36605400  1
  C  C99  1  0.36589600  0.00197800  0.63394600  1
  C  C100  1  0.63410400  0.00197800  0.36605400  1
  C  C101  1  0.84284000  0.47262900  0.69524400  1
  C  C102  1  0.15716100  0.47262900  0.30475600  1
  C  C103  1  0.34284000  0.97262900  0.69524400  1
  C  C104  1  0.65716100  0.97262900  0.30475600  1
  C  C105  1  0.00000000  0.58808900  0.00000000  1
  C  C106  1  0.50000000  0.08808900  0.00000000  1
  C  C107  1  0.00060300  0.50170800  0.12024500  1
  C  C108  1  0.99939700  0.50170800  0.87975500  1
  C  C109  1  0.50060300  0.00170800  0.12024500  1
  C  C110  1  0.49939700  0.00170800  0.87975500  1
  C  C111  1  0.00000000  0.41599700  0.00000000  1
  C  C112  1  0.50000000  0.91599700  0.00000000  1
  C  C113  1  0.50000000  0.41741000  0.00000000  1
  C  C114  1  0.00000000  0.91741000  0.00000000  1
  C  C115  1  0.58485600  0.50219100  0.91551600  1
  C  C116  1  0.41514400  0.50219100  0.08448400  1
  C  C117  1  0.08485600  0.00219100  0.91551600  1
  C  C118  1  0.91514400  0.00219100  0.08448400  1
  C  C119  1  0.50000000  0.58677600  0.00000000  1
  C  C120  1  0.00000000  0.08677600  0.00000000  1
  C  C121  1  0.53045900  0.34520900  0.93331700  1
  C  C122  1  0.46954100  0.34520900  0.06668300  1
  C  C123  1  0.03045900  0.84520900  0.93331700  1
  C  C124  1  0.96954100  0.84520900  0.06668300  1
  C  C125  1  0.50000000  0.36842000  0.00000000  1
  C  C126  1  0.00000000  0.86842000  0.00000000  1
  C  C127  1  0.46896600  0.29897700  0.06624700  1
  C  C128  1  0.53103400  0.29897700  0.93375200  1
  C  C129  1  0.96896600  0.79897700  0.06624700  1
  C  C130  1  0.03103400  0.79897700  0.93375200  1
  C  C131  1  0.50000000  0.27585800  0.00000000  1
  C  C132  1  0.00000000  0.77585800  0.00000000  1
  C  C133  1  0.43731600  0.27582300  0.13204600  1
  C  C134  1  0.56268400  0.27582300  0.86795300  1
  C  C135  1  0.93731600  0.77582300  0.13204600  1
  C  C136  1  0.06268400  0.77582300  0.86795300  1
  C  C137  1  0.93654500  0.72965800  0.13143400  1
  C  C138  1  0.06345500  0.72965800  0.86856600  1
  C  C139  1  0.43654500  0.22965800  0.13143400  1
  C  C140  1  0.56345500  0.22965800  0.86856600  1
  C  C141  1  0.96797700  0.70650400  0.06546300  1
  C  C142  1  0.03202300  0.70650400  0.93453700  1
  C  C143  1  0.46797700  0.20650400  0.06546300  1
  C  C144  1  0.53202300  0.20650400  0.93453700  1
  C  C145  1  0.00000000  0.72962200  0.00000000  1
  C  C146  1  0.50000000  0.22962200  0.00000000  1
  C  C147  1  0.96741600  0.66027200  0.06499000  1
  C  C148  1  0.03258400  0.66027200  0.93500900  1
  C  C149  1  0.46741600  0.16027200  0.06499000  1
  C  C150  1  0.53258400  0.16027200  0.93500900  1
  C  C151  1  0.00000000  0.63706900  0.00000000  1
  C  C152  1  0.50000000  0.13706900  0.00000000  1
  C  C153  1  0.53210200  0.65892500  0.00193800  1
  C  C154  1  0.46789800  0.65892500  0.99806200  1
  C  C155  1  0.03210200  0.15892500  0.00193800  1
  C  C156  1  0.96789800  0.15892500  0.99806200  1
  C  C157  1  0.50000000  0.63573800  0.00000000  1
  C  C158  1  0.00000000  0.13573800  0.00000000  1
  C  C159  1  0.46731800  0.70515300  0.99978400  1
  C  C160  1  0.53268200  0.70515300  0.00021600  1
  C  C161  1  0.96731800  0.20515300  0.99978400  1
  C  C162  1  0.03268200  0.20515300  0.00021600  1
  C  C163  1  0.50000000  0.72827000  0.00000000  1
  C  C164  1  0.00000000  0.22827000  0.00000000  1
  C  C165  1  0.43402600  0.72830500  0.00138800  1
  C  C166  1  0.56597400  0.72830500  0.99861200  1
  C  C167  1  0.93402600  0.22830500  0.00138800  1
  C  C168  1  0.06597400  0.22830500  0.99861200  1
  C  C169  1  0.93326200  0.27446700  0.00372400  1
  C  C170  1  0.06673800  0.27446700  0.99627600  1
  C  C171  1  0.43326200  0.77446700  0.00372400  1
  C  C172  1  0.56673800  0.77446700  0.99627600  1
  C  C173  1  0.96634000  0.29761900  0.00277200  1
  C  C174  1  0.03366000  0.29761900  0.99722800  1
  C  C175  1  0.46634000  0.79761900  0.00277200  1
  C  C176  1  0.53366000  0.79761900  0.99722800  1
  C  C177  1  0.00000000  0.27450200  0.00000000  1
  C  C178  1  0.50000000  0.77450200  0.00000000  1
  C  C179  1  0.96579300  0.34384700  0.00449400  1
  C  C180  1  0.03420700  0.34384700  0.99550600  1
  C  C181  1  0.46579300  0.84384700  0.00449400  1
  C  C182  1  0.53420700  0.84384700  0.99550600  1
  C  C183  1  0.00000000  0.36703400  0.00000000  1
  C  C184  1  0.50000000  0.86703400  0.00000000  1
  C  C185  1  0.12335800  0.51940600  0.18787900  1
  C  C186  1  0.15694900  0.55533600  0.16775700  1
  C  C187  1  0.87664200  0.51940600  0.81212100  1
  C  C188  1  0.84305100  0.55533600  0.83224300  1
  C  C189  1  0.62335800  0.01940600  0.18787900  1
  C  C190  1  0.65694900  0.05533600  0.16775700  1
  C  C191  1  0.37664200  0.01940600  0.81212100  1
  C  C192  1  0.34305100  0.05533600  0.83224300  1
  N  N1  1  0.07892600  0.52793300  0.23787200  1
  N  N2  1  0.92107400  0.52793300  0.76212800  1
  N  N3  1  0.57892600  0.02793300  0.23787200  1
  N  N4  1  0.42107400  0.02793300  0.76212800  1
  O  O1  1  0.93603800  0.53854800  0.54523700  1
  O  O2  1  0.06396200  0.53854800  0.45476200  1
  O  O3  1  0.43603800  0.03854800  0.54523700  1
  O  O4  1  0.56396200  0.03854800  0.45476200  1
  O  O5  1  0.93608000  0.46499000  0.58173100  1
  O  O6  1  0.06392000  0.46499000  0.41826900  1
  O  O7  1  0.43608000  0.96499000  0.58173100  1
  O  O8  1  0.56392000  0.96499000  0.41826900  1
  O  O9  1  0.01282800  0.53853400  0.39768300  1
  O  O10  1  0.98717200  0.53853400  0.60231700  1
  O  O11  1  0.51282800  0.03853400  0.39768300  1
  O  O12  1  0.48717200  0.03853400  0.60231700  1
  O  O13  1  0.98680100  0.46498000  0.42352200  1
  O  O14  1  0.01319900  0.46498000  0.57647800  1
  O  O15  1  0.48680100  0.96498000  0.42352200  1
  O  O16  1  0.51319900  0.96498000  0.57647800  1
  O  O17  1  0.96137200  0.56718100  0.04321000  1
  O  O18  1  0.03862800  0.56718100  0.95679000  1
  O  O19  1  0.46137200  0.06718100  0.04321000  1
  O  O20  1  0.53862800  0.06718100  0.95679000  1
  O  O21  1  0.96165400  0.50237500  0.12998000  1
  O  O22  1  0.03834600  0.50237500  0.87002000  1
  O  O23  1  0.46165400  0.00237500  0.12998000  1
  O  O24  1  0.53834600  0.00237500  0.87002000  1
  O  O25  1  0.03895700  0.50507300  0.05233500  1
  O  O26  1  0.96104300  0.50507300  0.94766500  1
  O  O27  1  0.53895700  0.00507300  0.05233500  1
  O  O28  1  0.46104300  0.00507300  0.94766500  1
  O  O29  1  0.96129900  0.43691300  0.03939100  1
  O  O30  1  0.03870100  0.43691300  0.96060900  1
  O  O31  1  0.46129900  0.93691300  0.03939100  1
  O  O32  1  0.53870100  0.93691300  0.96060900  1
  O  O33  1  0.51324700  0.43839400  0.93528100  1
  O  O34  1  0.48675300  0.43839400  0.06471900  1
  O  O35  1  0.01324700  0.93839400  0.93528100  1
  O  O36  1  0.98675300  0.93839400  0.06471900  1
  O  O37  1  0.56359700  0.51555800  0.88516900  1
  O  O38  1  0.43640300  0.51555800  0.11483100  1
  O  O39  1  0.06359700  0.01555800  0.88516900  1
  O  O40  1  0.93640300  0.01555800  0.11483100  1
  O  O41  1  0.56399500  0.48868300  0.98775700  1
  O  O42  1  0.43600500  0.48868300  0.01224300  1
  O  O43  1  0.06399500  0.98868300  0.98775700  1
  O  O44  1  0.93600500  0.98868300  0.01224300  1
  O  O45  1  0.48630000  0.56580400  0.96217100  1
  O  O46  1  0.51370000  0.56580400  0.03782900  1
  O  O47  1  0.98630000  0.06580400  0.96217100  1
  O  O48  1  0.01370000  0.06580400  0.03782900  1
  O  O49  1  0.13655100  0.48231900  0.15933200  1
  O  O50  1  0.86344900  0.48231900  0.84066800  1
  O  O51  1  0.63655100  0.98231900  0.15933200  1
  O  O52  1  0.36344900  0.98231900  0.84066800  1
