# generated using pymatgen
data_ZnH12C15N3O4
_symmetry_space_group_name_H-M   'P 1'
_cell_length_a   8.53259200
_cell_length_b   15.03883100
_cell_length_c   9.14874100
_cell_angle_alpha   90.96597800
_cell_angle_beta   90.08121300
_cell_angle_gamma   90.01749100
_symmetry_Int_Tables_number   1
_chemical_formula_structural   ZnH12C15N3O4
_chemical_formula_sum   'Zn2 H24 C30 N6 O8'
_cell_volume   1173.80027320
_cell_formula_units_Z   2
loop_
 _symmetry_equiv_pos_site_id
 _symmetry_equiv_pos_as_xyz
  1  'x, y, z'
loop_
 _atom_site_type_symbol
 _atom_site_label
 _atom_site_symmetry_multiplicity
 _atom_site_fract_x
 _atom_site_fract_y
 _atom_site_fract_z
 _atom_site_occupancy
  Zn  Zn1  1  0.49620100  0.50595400  0.84471600  1
  Zn  Zn2  1  0.49706100  0.49797300  0.17008200  1
  H  H1  1  0.00175500  0.56574400  0.06401500  1
  H  H2  1  0.99230600  0.43846100  0.94723800  1
  H  H3  1  0.24426000  0.80678300  0.99433200  1
  H  H4  1  0.74808200  0.19931800  0.02532400  1
  H  H5  1  0.27053300  0.42713400  0.41637900  1
  H  H6  1  0.72249600  0.57681900  0.59841300  1
  H  H7  1  0.27632900  0.58306200  0.59579900  1
  H  H8  1  0.71669500  0.42089600  0.41900900  1
  H  H9  1  0.50344400  0.64271500  0.39516600  1
  H  H10  1  0.48958400  0.36124400  0.61963400  1
  H  H11  1  0.50726400  0.78627600  0.71515200  1
  H  H12  1  0.46233200  0.88748400  0.81682600  1
  H  H13  1  0.55227900  0.89307600  0.63825200  1
  H  H14  1  0.75280700  0.92214500  0.81954300  1
  H  H15  1  0.78732700  0.81311500  0.73996400  1
  H  H16  1  0.60185500  0.76238500  0.95561000  1
  H  H17  1  0.66104900  0.86023200  0.04500400  1
  H  H18  1  0.54803000  0.09991800  0.05096200  1
  H  H19  1  0.41855500  0.03151000  0.94192500  1
  H  H20  1  0.57792800  0.08922400  0.85507100  1
  H  H21  1  0.30233100  0.15794200  0.82699700  1
  H  H22  1  0.45584200  0.23139900  0.89123500  1
  H  H23  1  0.36260800  0.23827600  0.12833900  1
  H  H24  1  0.27362200  0.13288400  0.12183600  1
  C  C1  1  0.13792800  0.67990500  0.02223300  1
  C  C2  1  0.85542000  0.32494200  0.99287700  1
  C  C3  1  0.13501800  0.77078700  0.00205700  1
  C  C4  1  0.85741400  0.23459000  0.01638400  1
  C  C5  1  0.99240000  0.81589200  0.99931200  1
  C  C6  1  0.99913200  0.18924300  0.02026400  1
  C  C7  1  0.85216700  0.76790500  0.99726200  1
  C  C8  1  0.13904800  0.23687700  0.02060400  1
  C  C9  1  0.85803100  0.67718300  0.02160100  1
  C  C10  1  0.13492600  0.32698900  0.99316500  1
  C  C11  1  0.99944900  0.63578600  0.04252900  1
  C  C12  1  0.99407100  0.36867700  0.97080400  1
  C  C13  1  0.99891800  0.09160600  0.01812500  1
  C  C14  1  0.99268200  0.91364300  0.00158600  1
  C  C15  1  0.71967500  0.62036200  0.01678300  1
  C  C16  1  0.27479600  0.38260000  0.99793300  1
  C  C17  1  0.71172200  0.37816800  0.99749200  1
  C  C18  1  0.28180100  0.62626900  0.01734500  1
  C  C19  1  0.37852900  0.54499900  0.55378000  1
  C  C20  1  0.61449300  0.45895900  0.46102200  1
  C  C21  1  0.37546500  0.46232400  0.45959300  1
  C  C22  1  0.61755800  0.54163300  0.55520600  1
  C  C23  1  0.50017000  0.57712000  0.44867700  1
  C  C24  1  0.49285500  0.42683800  0.56612300  1
  C  C25  1  0.69819500  0.81131700  0.96046100  1
  C  C26  1  0.70789800  0.85321400  0.81068000  1
  C  C27  1  0.54670900  0.85506600  0.74094300  1
  C  C28  1  0.29179700  0.19352800  0.05713900  1
  C  C29  1  0.38351400  0.17278000  0.91893100  1
  C  C30  1  0.48911900  0.09331300  0.94332100  1
  N  N1  1  0.87531300  0.95896200  0.06674200  1
  N  N2  1  0.11651800  0.04638000  0.95299800  1
  N  N3  1  0.87719700  0.04682300  0.07368800  1
  N  N4  1  0.11450100  0.95847600  0.94604000  1
  N  N5  1  0.49708200  0.49468500  0.36186300  1
  N  N6  1  0.49594200  0.50927300  0.65293700  1
  O  O1  1  0.66952200  0.58724900  0.13971500  1
  O  O2  1  0.32411400  0.41644100  0.87522800  1
  O  O3  1  0.66284100  0.59760600  0.88819100  1
  O  O4  1  0.33055500  0.40624200  0.12651300  1
  O  O5  1  0.66284400  0.41307400  0.87502500  1
  O  O6  1  0.33064800  0.59101200  0.13958700  1
  O  O7  1  0.65742900  0.40277400  0.12639300  1
  O  O8  1  0.33579600  0.60116800  0.88854500  1
