# generated using pymatgen
data_Cu3H18C26(NO2)6
_symmetry_space_group_name_H-M   'P 1'
_cell_length_a   39.43518600
_cell_length_b   23.56951100
_cell_length_c   23.62484200
_cell_angle_alpha   90.00000000
_cell_angle_beta   53.75856500
_cell_angle_gamma   90.00000000
_symmetry_Int_Tables_number   1
_chemical_formula_structural   Cu3H18C26(NO2)6
_chemical_formula_sum   'Cu12 H72 C104 N24 O48'
_cell_volume   17710.28352916
_cell_formula_units_Z   4
loop_
 _symmetry_equiv_pos_site_id
 _symmetry_equiv_pos_as_xyz
  1  'x, y, z'
loop_
 _atom_site_type_symbol
 _atom_site_label
 _atom_site_symmetry_multiplicity
 _atom_site_fract_x
 _atom_site_fract_y
 _atom_site_fract_z
 _atom_site_occupancy
  Cu  Cu1  1  0.00011300  0.94319100  0.00025100  1
  Cu  Cu2  1  0.00011000  0.05635500  0.00025400  1
  Cu  Cu3  1  0.50011300  0.44319100  0.00025100  1
  Cu  Cu4  1  0.50011000  0.55635500  0.00025400  1
  Cu  Cu5  1  0.49897200  0.99915400  0.44451400  1
  Cu  Cu6  1  0.50123300  0.99915400  0.55507500  1
  Cu  Cu7  1  0.99897200  0.49915400  0.44451400  1
  Cu  Cu8  1  0.00123300  0.49915400  0.55507500  1
  Cu  Cu9  1  0.04111300  0.99916300  0.45950500  1
  Cu  Cu10  1  0.95830800  0.99916400  0.54179000  1
  Cu  Cu11  1  0.54111300  0.49916300  0.45950500  1
  Cu  Cu12  1  0.45830800  0.49916400  0.54179000  1
  H  H1  1  0.28136700  0.95657800  0.64300100  1
  H  H2  1  0.71593100  0.05162300  0.35448500  1
  H  H3  1  0.71874600  0.95665900  0.35678700  1
  H  H4  1  0.28418400  0.05154900  0.64519000  1
  H  H5  1  0.78136700  0.45657800  0.64300100  1
  H  H6  1  0.21593100  0.55162300  0.35448500  1
  H  H7  1  0.21874600  0.45665900  0.35678700  1
  H  H8  1  0.78418400  0.55154900  0.64519000  1
  H  H9  1  0.21417100  0.95373400  0.71357500  1
  H  H10  1  0.78285500  0.04502500  0.28929700  1
  H  H11  1  0.78594300  0.95379300  0.28638400  1
  H  H12  1  0.21725400  0.04496800  0.71057200  1
  H  H13  1  0.71417100  0.45373400  0.71357500  1
  H  H14  1  0.28285500  0.54502500  0.28929700  1
  H  H15  1  0.28594300  0.45379300  0.28638400  1
  H  H16  1  0.71725400  0.54496800  0.71057200  1
  H  H17  1  0.28686600  0.95706600  0.79758800  1
  H  H18  1  0.70996700  0.03063200  0.19988700  1
  H  H19  1  0.71348500  0.95697600  0.20194300  1
  H  H20  1  0.29039300  0.03072600  0.79955100  1
  H  H21  1  0.78686600  0.45706600  0.79758800  1
  H  H22  1  0.20996700  0.53063200  0.19988700  1
  H  H23  1  0.21348500  0.45697600  0.20194300  1
  H  H24  1  0.79039300  0.53072600  0.79955100  1
  H  H25  1  0.20636000  0.13195800  0.74709700  1
  H  H26  1  0.21779400  0.12500200  0.80500900  1
  H  H27  1  0.79369000  0.86699000  0.24998200  1
  H  H28  1  0.77775600  0.87606500  0.19817700  1
  H  H29  1  0.79378200  0.13199500  0.25269100  1
  H  H30  1  0.78247100  0.12496900  0.19462900  1
  H  H31  1  0.20646100  0.86695600  0.75004900  1
  H  H32  1  0.22248200  0.87610300  0.80172100  1
  H  H33  1  0.70636000  0.63195800  0.74709700  1
  H  H34  1  0.71779400  0.62500200  0.80500900  1
  H  H35  1  0.29369000  0.36699000  0.24998200  1
  H  H36  1  0.27775600  0.37606500  0.19817700  1
  H  H37  1  0.29378200  0.63199500  0.25269100  1
  H  H38  1  0.28247100  0.62496900  0.19462900  1
  H  H39  1  0.70646100  0.36695600  0.75004900  1
  H  H40  1  0.72248200  0.37610300  0.80172100  1
  H  H41  1  0.28409800  0.13927600  0.68957400  1
  H  H42  1  0.28454500  0.11085500  0.75553300  1
  H  H43  1  0.71662900  0.86362500  0.32454600  1
  H  H44  1  0.71060300  0.88520400  0.26196000  1
  H  H45  1  0.71608300  0.13929800  0.30994400  1
  H  H46  1  0.71574700  0.11080900  0.24390400  1
  H  H47  1  0.28352700  0.86358300  0.67529200  1
  H  H48  1  0.28963800  0.88522900  0.73775800  1
  H  H49  1  0.78409800  0.63927600  0.68957400  1
  H  H50  1  0.78454500  0.61085500  0.75553300  1
  H  H51  1  0.21662900  0.36362500  0.32454600  1
  H  H52  1  0.21060300  0.38520400  0.26196000  1
  H  H53  1  0.21608300  0.63929800  0.30994400  1
  H  H54  1  0.21574700  0.61080900  0.24390400  1
  H  H55  1  0.78352700  0.36358300  0.67529200  1
  H  H56  1  0.78963800  0.38522900  0.73775800  1
  H  H57  1  0.18093300  0.95115100  0.92213900  1
  H  H58  1  0.22724500  0.94749200  0.90948800  1
  H  H59  1  0.76571400  0.08067800  0.13415600  1
  H  H60  1  0.81685500  0.05978100  0.09234400  1
  H  H61  1  0.77321700  0.94736500  0.09009300  1
  H  H62  1  0.81946000  0.95101600  0.07769900  1
  H  H63  1  0.18351800  0.05989100  0.90737800  1
  H  H64  1  0.23467500  0.08079200  0.86535500  1
  H  H65  1  0.68093300  0.45115100  0.92213900  1
  H  H66  1  0.72724500  0.44749200  0.90948800  1
  H  H67  1  0.26571400  0.58067800  0.13415600  1
  H  H68  1  0.31685500  0.55978100  0.09234400  1
  H  H69  1  0.27321700  0.44736500  0.09009300  1
  H  H70  1  0.31946000  0.45101600  0.07769900  1
  H  H71  1  0.68351800  0.55989100  0.90737800  1
  H  H72  1  0.73467500  0.58079200  0.86535500  1
  C  C1  1  0.00085000  0.99977600  0.89101600  1
  C  C2  1  0.00009500  0.99977400  0.10879900  1
  C  C3  1  0.50085000  0.49977600  0.89101600  1
  C  C4  1  0.50009500  0.49977400  0.10879900  1
  C  C5  1  0.08075000  0.99977400  0.92172000  1
  C  C6  1  0.91948000  0.99976700  0.07971300  1
  C  C7  1  0.58075000  0.49977400  0.92172000  1
  C  C8  1  0.41948000  0.49976700  0.07971300  1
  C  C9  1  0.22524400  0.94826000  0.74676600  1
  C  C10  1  0.77438700  0.05192500  0.25271700  1
  C  C11  1  0.77493200  0.94828000  0.25310800  1
  C  C12  1  0.22579200  0.05190800  0.74705200  1
  C  C13  1  0.72524400  0.44826000  0.74676600  1
  C  C14  1  0.27438700  0.55192500  0.25271700  1
  C  C15  1  0.27493200  0.44828000  0.25310800  1
  C  C16  1  0.72579200  0.55190800  0.74705200  1
  C  C17  1  0.27406200  0.05327300  0.70003600  1
  C  C18  1  0.72669200  0.94903500  0.30391200  1
  C  C19  1  0.72612000  0.05329400  0.29959900  1
  C  C20  1  0.27348100  0.94900400  0.69584400  1
  C  C21  1  0.77406200  0.55327300  0.70003600  1
  C  C22  1  0.22669200  0.44903500  0.30391200  1
  C  C23  1  0.22612000  0.55329400  0.29959900  1
  C  C24  1  0.77348100  0.44900400  0.69584400  1
  C  C25  1  0.37403500  0.99928500  0.62784100  1
  C  C26  1  0.62617700  0.99928400  0.37171700  1
  C  C27  1  0.87403500  0.49928500  0.62784100  1
  C  C28  1  0.12617700  0.49928400  0.37171700  1
  C  C29  1  0.20986500  0.00001600  0.79589000  1
  C  C30  1  0.79037100  0.00000100  0.20392000  1
  C  C31  1  0.70986500  0.50001600  0.79589000  1
  C  C32  1  0.29037100  0.50000100  0.20392000  1
  C  C33  1  0.29016600  0.99952700  0.71315700  1
  C  C34  1  0.71005500  0.99952100  0.28645900  1
  C  C35  1  0.79016600  0.49952700  0.71315700  1
  C  C36  1  0.21005500  0.49952100  0.28645900  1
  C  C37  1  0.27540800  0.99667800  0.78925400  1
  C  C38  1  0.72491100  0.99660800  0.21030200  1
  C  C39  1  0.77540800  0.49667800  0.78925400  1
  C  C40  1  0.22491100  0.49660800  0.21030200  1
  C  C41  1  0.22744700  0.99848800  0.84002700  1
  C  C42  1  0.77288500  0.99841000  0.15964400  1
  C  C43  1  0.72744700  0.49848800  0.84002700  1
  C  C44  1  0.27288500  0.49841000  0.15964400  1
  C  C45  1  0.33615200  0.99926400  0.66629700  1
  C  C46  1  0.66406200  0.99926000  0.33325500  1
  C  C47  1  0.83615200  0.49926400  0.66629700  1
  C  C48  1  0.16406200  0.49926000  0.33325500  1
  C  C49  1  0.16376100  0.99985300  0.84047100  1
  C  C50  1  0.83647500  0.99984000  0.15955100  1
  C  C51  1  0.66376100  0.49985300  0.84047100  1
  C  C52  1  0.33647500  0.49984000  0.15955100  1
  C  C53  1  0.12586800  0.99978200  0.87735000  1
  C  C54  1  0.87436600  0.99977200  0.12313300  1
  C  C55  1  0.62586800  0.49978200  0.87735000  1
  C  C56  1  0.37436600  0.49977200  0.12313300  1
  C  C57  1  0.00053600  0.99976900  0.83068100  1
  C  C58  1  0.99967300  0.99976600  0.16985400  1
  C  C59  1  0.50053600  0.49976900  0.83068100  1
  C  C60  1  0.49967300  0.49976600  0.16985400  1
  C  C61  1  0.00030000  0.99969600  0.77995900  1
  C  C62  1  0.99950400  0.99969300  0.22097400  1
  C  C63  1  0.50030000  0.49969600  0.77995900  1
  C  C64  1  0.49950400  0.49969300  0.22097400  1
  C  C65  1  0.00004900  0.99950300  0.72051800  1
  C  C66  1  0.99948200  0.99950000  0.28067900  1
  C  C67  1  0.50004900  0.49950300  0.72051800  1
  C  C68  1  0.49948200  0.49950000  0.28067900  1
  C  C69  1  0.99984900  0.99921500  0.66976100  1
  C  C70  1  0.99958000  0.99921200  0.33153400  1
  C  C71  1  0.49984900  0.49921500  0.66976100  1
  C  C72  1  0.49958000  0.49921200  0.33153400  1
  C  C73  1  0.50008100  0.89047500  0.49982100  1
  C  C74  1  0.50008000  0.10785300  0.49982100  1
  C  C75  1  0.00008100  0.39047500  0.49982100  1
  C  C76  1  0.00008000  0.60785300  0.49982100  1
  C  C77  1  0.41914900  0.99960600  0.58213500  1
  C  C78  1  0.58105800  0.99960600  0.41744400  1
  C  C79  1  0.91914900  0.49960600  0.58213500  1
  C  C80  1  0.08105800  0.49960600  0.41744400  1
  C  C81  1  0.99971500  0.10660500  0.50061600  1
  C  C82  1  0.99971300  0.89169900  0.50061900  1
  C  C83  1  0.49971500  0.60660500  0.50061600  1
  C  C84  1  0.49971300  0.39169900  0.50061900  1
  C  C85  1  0.99961800  0.99869100  0.60934600  1
  C  C86  1  0.99980000  0.99869000  0.39195600  1
  C  C87  1  0.49961800  0.49869100  0.60934600  1
  C  C88  1  0.49980000  0.49869000  0.39195600  1
  C  C89  1  0.49999400  0.82961100  0.49993000  1
  C  C90  1  0.49999300  0.16871200  0.49993100  1
  C  C91  1  0.99999400  0.32961100  0.49993000  1
  C  C92  1  0.99999300  0.66871200  0.49993100  1
  C  C93  1  0.49990300  0.77849000  0.50009700  1
  C  C94  1  0.49990100  0.21982900  0.50009900  1
  C  C95  1  0.99990300  0.27849000  0.50009700  1
  C  C96  1  0.99990100  0.71982900  0.50009900  1
  C  C97  1  0.99979800  0.21858900  0.50032500  1
  C  C98  1  0.99979600  0.77972400  0.50032800  1
  C  C99  1  0.49979800  0.71858900  0.50032500  1
  C  C100  1  0.49979600  0.27972400  0.50032800  1
  C  C101  1  0.99973400  0.16746900  0.50049600  1
  C  C102  1  0.99973200  0.83084100  0.50049900  1
  C  C103  1  0.49973400  0.66746900  0.50049600  1
  C  C104  1  0.49973200  0.33084100  0.50049900  1
  N  N1  1  0.20451400  0.10459500  0.78357200  1
  N  N2  1  0.79383200  0.89500100  0.21561900  1
  N  N3  1  0.79569100  0.10459700  0.21618800  1
  N  N4  1  0.20636500  0.89500400  0.78433700  1
  N  N5  1  0.70451400  0.60459500  0.78357200  1
  N  N6  1  0.29383200  0.39500100  0.21561900  1
  N  N7  1  0.29569100  0.60459700  0.21618800  1
  N  N8  1  0.70636500  0.39500400  0.78433700  1
  N  N9  1  0.29301000  0.10436700  0.70517800  1
  N  N10  1  0.70584700  0.89608000  0.30886300  1
  N  N11  1  0.70721200  0.10436400  0.29430900  1
  N  N12  1  0.29434300  0.89606300  0.69088400  1
  N  N13  1  0.79301000  0.60436700  0.70517800  1
  N  N14  1  0.20584700  0.39608000  0.30886300  1
  N  N15  1  0.20721200  0.60436400  0.29430900  1
  N  N16  1  0.79434300  0.39606300  0.69088400  1
  N  N17  1  0.21323800  0.94774900  0.88334200  1
  N  N18  1  0.78651200  0.04671500  0.11191600  1
  N  N19  1  0.78713800  0.94764000  0.11637900  1
  N  N20  1  0.21388000  0.04683100  0.88768900  1
  N  N21  1  0.71323800  0.44774900  0.88334200  1
  N  N22  1  0.28651200  0.54671500  0.11191600  1
  N  N23  1  0.28713800  0.44764000  0.11637900  1
  N  N24  1  0.71388000  0.54683100  0.88768900  1
  O  O1  1  0.99882700  0.95079300  0.91922800  1
  O  O2  1  0.99825900  0.04864800  0.08433900  1
  O  O3  1  0.99826200  0.95090000  0.08433500  1
  O  O4  1  0.99882400  0.04875800  0.91923100  1
  O  O5  1  0.49882700  0.45079300  0.91922800  1
  O  O6  1  0.49825900  0.54864800  0.08433900  1
  O  O7  1  0.49826200  0.45090000  0.08433500  1
  O  O8  1  0.49882400  0.54875800  0.91923100  1
  O  O9  1  0.06120700  0.95090600  0.93828800  1
  O  O10  1  0.93902300  0.04874400  0.05798800  1
  O  O11  1  0.93902500  0.95079400  0.05798500  1
  O  O12  1  0.06120500  0.04864200  0.93829100  1
  O  O13  1  0.56120700  0.45090600  0.93828800  1
  O  O14  1  0.43902300  0.54874400  0.05798800  1
  O  O15  1  0.43902500  0.45079400  0.05798500  1
  O  O16  1  0.56120500  0.54864200  0.93829100  1
  O  O17  1  0.50094300  0.91684500  0.45006100  1
  O  O18  1  0.49920400  0.08144600  0.54947700  1
  O  O19  1  0.49925600  0.91684700  0.54953800  1
  O  O20  1  0.50099300  0.08144800  0.45012300  1
  O  O21  1  0.00094300  0.41684500  0.45006100  1
  O  O22  1  0.99920400  0.58144600  0.54947700  1
  O  O23  1  0.99925600  0.41684700  0.54953800  1
  O  O24  1  0.00099300  0.58144800  0.45012300  1
  O  O25  1  0.43799300  0.99707000  0.51423900  1
  O  O26  1  0.56221200  0.99707200  0.48534400  1
  O  O27  1  0.93799300  0.49707000  0.51423900  1
  O  O28  1  0.06221200  0.49707200  0.48534400  1
  O  O29  1  0.43939700  0.99697800  0.61042100  1
  O  O30  1  0.56080800  0.99697900  0.38916600  1
  O  O31  1  0.93939700  0.49697800  0.61042100  1
  O  O32  1  0.06080800  0.49697900  0.38916600  1
  O  O33  1  0.03630700  0.08034700  0.46216400  1
  O  O34  1  0.96320500  0.91799100  0.53913600  1
  O  O35  1  0.96311900  0.08035100  0.53911800  1
  O  O36  1  0.03621800  0.91799300  0.46215000  1
  O  O37  1  0.53630700  0.58034700  0.46216400  1
  O  O38  1  0.46320500  0.41799100  0.53913600  1
  O  O39  1  0.46311900  0.58035100  0.53911800  1
  O  O40  1  0.53621800  0.41799300  0.46215000  1
  O  O41  1  0.03568100  0.00124400  0.54717600  1
  O  O42  1  0.96373600  0.00124400  0.45412200  1
  O  O43  1  0.53568100  0.50124400  0.54717600  1
  O  O44  1  0.46373600  0.50124400  0.45412200  1
  O  O45  1  0.96337200  0.00135200  0.61904400  1
  O  O46  1  0.03604700  0.00135000  0.38225300  1
  O  O47  1  0.46337200  0.50135200  0.61904400  1
  O  O48  1  0.53604700  0.50135000  0.38225300  1
