# generated using pymatgen
data_ZnH15C14NO4
_symmetry_space_group_name_H-M   'P 1'
_cell_length_a   10.02922900
_cell_length_b   10.99223600
_cell_length_c   11.24488300
_cell_angle_alpha   89.98552700
_cell_angle_beta   92.45317100
_cell_angle_gamma   80.95350200
_symmetry_Int_Tables_number   1
_chemical_formula_structural   ZnH15C14NO4
_chemical_formula_sum   'Zn2 H30 C28 N2 O8'
_cell_volume   1223.10408874
_cell_formula_units_Z   2
loop_
 _symmetry_equiv_pos_site_id
 _symmetry_equiv_pos_as_xyz
  1  'x, y, z'
loop_
 _atom_site_type_symbol
 _atom_site_label
 _atom_site_symmetry_multiplicity
 _atom_site_fract_x
 _atom_site_fract_y
 _atom_site_fract_z
 _atom_site_occupancy
  Zn  Zn1  1  0.66823400  0.45013900  0.50874800  1
  Zn  Zn2  1  0.36749700  0.49294700  0.55065700  1
  H  H1  1  0.31457300  0.10734100  0.57896800  1
  H  H2  1  0.79462700  0.12260700  0.58521200  1
  H  H3  1  0.97765100  0.00561200  0.48658800  1
  H  H4  1  0.72501100  0.75239700  0.36808000  1
  H  H5  1  0.31396200  0.88816000  0.56561700  1
  H  H6  1  0.40435800  0.46022000  0.93488000  1
  H  H7  1  0.63998600  0.46545900  0.12704700  1
  H  H8  1  0.70464600  0.47630500  0.92120600  1
  H  H9  1  0.33401600  0.46911100  0.13692900  1
  H  H10  1  0.88793600  0.58223200  0.55217500  1
  H  H11  1  0.13214000  0.39002800  0.46390900  1
  H  H12  1  0.91832900  0.33461800  0.45356800  1
  H  H13  1  0.04697500  0.69940700  0.58400600  1
  H  H14  1  0.19991000  0.68437000  0.67057000  1
  H  H15  1  0.97708100  0.53786400  0.74099300  1
  H  H16  1  0.21913700  0.62116900  0.87246400  1
  H  H17  1  0.20411900  0.46624300  0.82193900  1
  H  H18  1  0.09630600  0.53795000  0.93434100  1
  H  H19  1  0.02803000  0.79435000  0.81846500  1
  H  H20  1  0.91141300  0.70444900  0.88179000  1
  H  H21  1  0.88315000  0.76011600  0.73084400  1
  H  H22  1  0.97887900  0.70661000  0.36581100  1
  H  H23  1  0.06896600  0.83522900  0.37777300  1
  H  H24  1  0.85358900  0.79990700  0.18271900  1
  H  H25  1  0.03315200  0.99982800  0.22635600  1
  H  H26  1  0.85005500  0.02005400  0.21773900  1
  H  H27  1  0.94324800  0.97837600  0.08730900  1
  H  H28  1  0.16255600  0.78285200  0.18182500  1
  H  H29  1  0.05103800  0.77153100  0.05340700  1
  H  H30  1  0.06817400  0.65568700  0.16901100  1
  C  C1  1  0.46512900  0.46662800  0.29992900  1
  C  C2  1  0.51903900  0.23242300  0.54477200  1
  C  C3  1  0.57128400  0.47572500  0.75965800  1
  C  C4  1  0.51834900  0.71019500  0.51396600  1
  C  C5  1  0.77212100  0.04637300  0.53205200  1
  C  C6  1  0.87953300  0.97654000  0.48017700  1
  C  C7  1  0.85936600  0.87520800  0.41490100  1
  C  C8  1  0.73749500  0.83294200  0.41942900  1
  C  C9  1  0.63268300  0.89616900  0.48349500  1
  C  C10  1  0.64301400  0.01471600  0.52079300  1
  C  C11  1  0.52528800  0.09619200  0.54647200  1
  C  C12  1  0.40692700  0.04824200  0.55763500  1
  C  C13  1  0.40558900  0.92332500  0.54676200  1
  C  C14  1  0.51778000  0.84532000  0.50940800  1
  C  C15  1  0.43730800  0.46621500  0.17078200  1
  C  C16  1  0.53659200  0.46541000  0.09491800  1
  C  C17  1  0.60169600  0.47416600  0.88878200  1
  C  C18  1  0.50583100  0.46703600  0.96610500  1
  C  C19  1  0.08842000  0.46685000  0.51750100  1
  C  C20  1  0.93905200  0.49655000  0.51771500  1
  C  C21  1  0.11543000  0.63517900  0.64332600  1
  C  C22  1  0.04526600  0.60656700  0.75616700  1
  C  C23  1  0.14846700  0.55505900  0.85242100  1
  C  C24  1  0.96192400  0.72407500  0.79971700  1
  C  C25  1  0.97203300  0.80646700  0.34755000  1
  C  C26  1  0.94957000  0.82969000  0.21423300  1
  C  C27  1  0.94379500  0.96559300  0.18515800  1
  C  C28  1  0.06535300  0.75520100  0.15060100  1
  N  N1  1  0.16937800  0.52515600  0.57934100  1
  N  N2  1  0.86624400  0.41752000  0.48040400  1
  O  O1  1  0.59130800  0.45355400  0.33915800  1
  O  O2  1  0.36286200  0.48110600  0.37062900  1
  O  O3  1  0.62958200  0.27591400  0.52372200  1
  O  O4  1  0.40281200  0.30590400  0.55678200  1
  O  O5  1  0.67296300  0.45967100  0.68880500  1
  O  O6  1  0.44468900  0.49068700  0.72031000  1
  O  O7  1  0.63356500  0.63651600  0.50523800  1
  O  O8  1  0.40537300  0.66805900  0.53416500  1
