# generated using pymatgen
data_ZnH12C27NO5
_symmetry_space_group_name_H-M   'P 1'
_cell_length_a   8.52021800
_cell_length_b   13.01943400
_cell_length_c   17.48119100
_cell_angle_alpha   90.95726200
_cell_angle_beta   90.08706900
_cell_angle_gamma   95.31608000
_symmetry_Int_Tables_number   1
_chemical_formula_structural   ZnH12C27NO5
_chemical_formula_sum   'Zn2 H24 C54 N2 O10'
_cell_volume   1930.54134307
_cell_formula_units_Z   2
loop_
 _symmetry_equiv_pos_site_id
 _symmetry_equiv_pos_as_xyz
  1  'x, y, z'
loop_
 _atom_site_type_symbol
 _atom_site_label
 _atom_site_symmetry_multiplicity
 _atom_site_fract_x
 _atom_site_fract_y
 _atom_site_fract_z
 _atom_site_occupancy
  Zn  Zn1  1  0.49847900  0.50675600  0.91498000  1
  Zn  Zn2  1  0.49637300  0.49326200  0.08502600  1
  H  H1  1  0.99107900  0.42753600  0.96982000  1
  H  H2  1  0.00370600  0.57248200  0.03018700  1
  H  H3  1  0.69421300  0.15874400  0.00940000  1
  H  H4  1  0.30063400  0.84125700  0.99060700  1
  H  H5  1  0.67506700  0.00407300  0.98529600  1
  H  H6  1  0.31979500  0.99594900  0.01467100  1
  H  H7  1  0.65371200  0.82379100  0.99442100  1
  H  H8  1  0.34113500  0.17624700  0.00556700  1
  H  H9  1  0.47343000  0.35075700  0.81099900  1
  H  H10  1  0.51082500  0.64920600  0.18899900  1
  H  H11  1  0.53562800  0.76177100  0.68809100  1
  H  H12  1  0.46720500  0.23829000  0.31191900  1
  H  H13  1  0.46322300  0.15104400  0.56769900  1
  H  H14  1  0.55285800  0.84908900  0.43231300  1
  H  H15  1  0.45989200  0.14979400  0.43019700  1
  H  H16  1  0.55057300  0.85030900  0.56981400  1
  H  H17  1  0.52305900  0.67295900  0.80714600  1
  H  H18  1  0.47737100  0.32709000  0.19286300  1
  H  H19  1  0.69894400  0.26070200  0.74747000  1
  H  H20  1  0.64935400  0.12559000  0.72440700  1
  H  H21  1  0.56590500  0.18203800  0.80836200  1
  H  H22  1  0.75996100  0.74191400  0.25279300  1
  H  H23  1  0.74514900  0.87666200  0.27583600  1
  H  H24  1  0.64686100  0.81921800  0.19177400  1
  C  C1  1  0.10902900  0.29466300  0.98954400  1
  C  C2  1  0.88579300  0.70537200  0.01047200  1
  C  C3  1  0.97788800  0.34613000  0.97996700  1
  C  C4  1  0.01691900  0.65388800  0.02003900  1
  C  C5  1  0.83089700  0.29710900  0.99025700  1
  C  C6  1  0.16391800  0.70289000  0.00973600  1
  C  C7  1  0.81257000  0.19198500  0.99997600  1
  C  C8  1  0.18227000  0.80802000  0.00002300  1
  C  C9  1  0.94380300  0.13490600  0.99792500  1
  C  C10  1  0.05104900  0.86511300  0.00207300  1
  C  C11  1  0.09280200  0.18844100  0.99729000  1
  C  C12  1  0.90204300  0.81158900  0.00271400  1
  C  C13  1  0.92994100  0.02649300  0.99827600  1
  C  C14  1  0.06492000  0.97352800  0.00171700  1
  C  C15  1  0.21118100  0.03022300  0.00702700  1
  C  C16  1  0.78367800  0.96980300  0.99295600  1
  C  C17  1  0.22461200  0.13580600  0.00353500  1
  C  C18  1  0.77023900  0.86422500  0.99645700  1
  C  C19  1  0.73457000  0.64232400  0.00657300  1
  C  C20  1  0.26023600  0.35773300  0.99343800  1
  C  C21  1  0.69829700  0.36036500  0.99411400  1
  C  C22  1  0.29649600  0.63961200  0.00588500  1
  C  C23  1  0.48710800  0.41960000  0.77745600  1
  C  C24  1  0.50667200  0.58041300  0.22254900  1
  C  C25  1  0.51309100  0.60009300  0.77615100  1
  C  C26  1  0.48609800  0.39994800  0.22385800  1
  C  C27  1  0.47760500  0.31997900  0.65930500  1
  C  C28  1  0.52323500  0.68007100  0.34070500  1
  C  C29  1  0.48962700  0.41427300  0.69826200  1
  C  C30  1  0.51075100  0.58577500  0.30174700  1
  C  C31  1  0.50091400  0.50464800  0.65795900  1
  C  C32  1  0.49887100  0.49539600  0.34205000  1
  C  C33  1  0.51306800  0.59785300  0.69716700  1
  C  C34  1  0.48683400  0.40219300  0.30284200  1
  C  C35  1  0.52534200  0.68865400  0.65742800  1
  C  C36  1  0.47587900  0.31139900  0.34258200  1
  C  C37  1  0.46753900  0.22431100  0.53954000  1
  C  C38  1  0.53843600  0.77576700  0.46047100  1
  C  C39  1  0.47596900  0.31739400  0.57982100  1
  C  C40  1  0.52264800  0.68264300  0.42018900  1
  C  C41  1  0.48683000  0.40872000  0.53994900  1
  C  C42  1  0.51015600  0.59130800  0.46006000  1
  C  C43  1  0.46677700  0.22288700  0.46084100  1
  C  C44  1  0.53845600  0.77718600  0.53916900  1
  C  C45  1  0.47612900  0.31381100  0.42144100  1
  C  C46  1  0.52458400  0.68623800  0.57856800  1
  C  C47  1  0.49944600  0.50210500  0.57900100  1
  C  C48  1  0.49845800  0.49792800  0.42100800  1
  C  C49  1  0.51110200  0.59318900  0.53915200  1
  C  C50  1  0.48684700  0.40684500  0.46085700  1
  C  C51  1  0.46774100  0.22321800  0.70171900  1
  C  C52  1  0.60408200  0.19638300  0.74855700  1
  C  C53  1  0.53817800  0.77686200  0.29829800  1
  C  C54  1  0.68152600  0.80526700  0.25161800  1
  N  N1  1  0.49959900  0.51131100  0.81479000  1
  N  N2  1  0.49545500  0.48870700  0.18521600  1
  O  O1  1  0.67971400  0.60026000  0.06991800  1
  O  O2  1  0.31502500  0.39983100  0.93007700  1
  O  O3  1  0.67628000  0.61586400  0.93867600  1
  O  O4  1  0.31859900  0.38412400  0.06135200  1
  O  O5  1  0.65443900  0.40170200  0.93061700  1
  O  O6  1  0.34028100  0.59824100  0.06939900  1
  O  O7  1  0.64643500  0.38598100  0.06187200  1
  O  O8  1  0.34845300  0.61406900  0.93811200  1
  O  O9  1  0.35005800  0.16262000  0.69643700  1
  O  O10  1  0.43596300  0.83624400  0.30348200  1
