# Generated by REPEAT Assigner based on pymatgen
data_DB0-m2_o7_o58_f0_pcu
_audit_creation_date              2022-05-24
_audit_creation_method            REPEAT_Assigner
_cell_length_a                    19.362670
_cell_length_b                    16.365746
_cell_length_c                    17.772111
_cell_angle_alpha                 90.000000
_cell_angle_beta                  89.986097
_cell_angle_gamma                 90.000000
_cell_volume                      5631.706752
_symmetry_space_group_name_H-M    P1
_symmetry_Int_Tables_number       1
loop_
    _symmetry_equiv_pos_site_id
    _symmetry_equiv_pos_as_xyz
    1  x,y,z
loop_
    _atom_site_type_symbol
    _atom_site_label
    _atom_site_fract_x
    _atom_site_fract_y
    _atom_site_fract_z
    _atom_type_partial_charge
    O   O1   0.899431  0.069763  0.999914  -0.617292
    O   O2   0.100569  0.930237  0.000086  -0.617260
    O   O3   0.100569  0.069763  0.000086  -0.617259
    O   O4   0.899431  0.930237  0.999914  -0.617294
    C   C1   0.865812  0.000000  0.999927  0.725416
    C   C2   0.134188  0.000000  0.000073  0.725305
    O   O5   0.000006  0.069754  0.109642  -0.608747
    O   O6   0.999994  0.930246  0.890358  -0.608819
    O   O7   0.999994  0.069754  0.890358  -0.608819
    O   O8   0.000006  0.930246  0.109642  -0.608747
    C   C3   0.999970  0.000000  0.146306  0.686753
    C   C4   0.000030  0.000000  0.853694  0.686916
    Cu  Cu1  0.000000  0.081469  0.000000  0.933793
    Cu  Cu2  0.000000  0.918531  0.000000  0.933793
    C   C5   0.999891  0.072825  0.346076  -0.232061
    C   C6   0.000109  0.927175  0.653924  -0.232107
    C   C7   0.000109  0.072825  0.653924  -0.232106
    C   C8   0.999891  0.927175  0.346076  -0.232062
    H   H1   0.999892  0.130035  0.376468  0.139914
    H   H2   0.000108  0.869965  0.623532  0.139921
    H   H3   0.000108  0.130035  0.623532  0.139920
    H   H4   0.999892  0.869965  0.376468  0.139914
    C   C9   0.999880  0.072965  0.268380  -0.048963
    C   C10  0.000120  0.927035  0.731620  -0.048864
    C   C11  0.000120  0.072965  0.731620  -0.048864
    C   C12  0.999880  0.927035  0.268380  -0.048960
    H   H5   0.999859  0.130798  0.239043  0.100576
    H   H6   0.000141  0.869202  0.760957  0.100540
    H   H7   0.000141  0.130798  0.760957  0.100540
    H   H8   0.999859  0.869202  0.239043  0.100574
    C   C13  0.999910  0.000000  0.229003  -0.088344
    C   C14  0.000090  0.000000  0.770997  -0.088485
    C   C15  0.999916  0.000000  0.385051  0.319387
    C   C16  0.000084  0.000000  0.614949  0.319418
    C   C17  0.999973  0.000000  0.466030  -0.175671
    C   C18  0.000027  0.000000  0.533970  -0.175672
    C   C19  0.464572  0.000000  0.932706  -0.021876
    C   C20  0.535428  0.000000  0.067294  -0.021884
    C   C21  0.535825  0.000000  0.932989  -0.228235
    C   C22  0.464175  0.000000  0.067011  -0.228232
    H   H9   0.563846  0.000000  0.880383  0.090575
    H   H10  0.436154  0.000000  0.119617  0.090575
    C   C23  0.571393  0.000000  0.000196  0.010396
    C   C24  0.428607  0.000000  0.999804  0.010399
    C   C25  0.410085  0.927030  0.827510  -0.221269
    C   C26  0.589915  0.072970  0.172490  -0.221259
    C   C27  0.589915  0.927030  0.172490  -0.221259
    C   C28  0.410085  0.072970  0.827510  -0.221269
    H   H11  0.423825  0.869859  0.854025  0.108552
    H   H12  0.576175  0.130141  0.145975  0.108549
    H   H13  0.576175  0.869859  0.145975  0.108549
    H   H14  0.423825  0.130141  0.854025  0.108552
    C   C29  0.374798  0.927030  0.760153  -0.087128
    C   C30  0.625202  0.072970  0.239847  -0.087136
    C   C31  0.625202  0.927030  0.239847  -0.087136
    C   C32  0.374798  0.072970  0.760153  -0.087128
    H   H15  0.360958  0.869830  0.733753  0.107794
    H   H16  0.639042  0.130170  0.266247  0.107795
    H   H17  0.639042  0.869830  0.266247  0.107796
    H   H18  0.360958  0.130170  0.733753  0.107794
    C   C33  0.357125  0.000000  0.726490  -0.143126
    C   C34  0.642875  0.000000  0.273510  -0.143125
    H   H19  0.329438  0.000000  0.673684  0.107213
    H   H20  0.670562  0.000000  0.326316  0.107214
    C   C35  0.427532  0.000000  0.861300  0.302965
    C   C36  0.572468  0.000000  0.138700  0.302963
    C   C37  0.317396  0.927161  0.000170  -0.237616
    C   C38  0.682604  0.072839  0.999830  -0.237660
    C   C39  0.682604  0.927161  0.999830  -0.237661
    C   C40  0.317396  0.072839  0.000170  -0.237616
    H   H21  0.345325  0.869977  0.000058  0.113749
    H   H22  0.654675  0.130023  0.999942  0.113756
    H   H23  0.654675  0.869977  0.999942  0.113756
    H   H24  0.345325  0.130023  0.000058  0.113749
    C   C41  0.246128  0.927022  0.000101  -0.036380
    C   C42  0.753872  0.072978  0.999899  -0.036294
    C   C43  0.753872  0.927022  0.999899  -0.036294
    C   C44  0.246128  0.072978  0.000101  -0.036380
    C   C45  0.210033  0.000000  0.000076  -0.144916
    C   C46  0.789967  0.000000  0.999924  -0.145036
    H   H25  0.219203  0.130810  0.000051  0.097966
    H   H26  0.780797  0.869190  0.999949  0.097935
    H   H27  0.780797  0.130810  0.999949  0.097935
    H   H28  0.219203  0.869190  0.000051  0.097966
    C   C47  0.353123  0.000000  0.999994  0.296980
    C   C48  0.646877  0.000000  0.000006  0.297016
    C   C49  0.043293  0.331386  0.952870  -0.312220
    C   C50  0.956707  0.668614  0.047130  -0.312211
    C   C51  0.956707  0.331386  0.047130  -0.312210
    C   C52  0.043293  0.668614  0.952870  -0.312221
    H   H29  0.077736  0.363705  0.915375  0.154431
    H   H30  0.922264  0.636295  0.084625  0.154426
    H   H31  0.922264  0.363705  0.084625  0.154426
    H   H32  0.077736  0.636295  0.915375  0.154431
    C   C53  0.042689  0.246776  0.953528  0.113430
    C   C54  0.957312  0.753224  0.046472  0.113412
    C   C55  0.957312  0.246776  0.046472  0.113411
    C   C56  0.042689  0.753224  0.953528  0.113431
    H   H33  0.076850  0.213647  0.916339  0.106720
    H   H34  0.923150  0.786353  0.083661  0.106700
    H   H35  0.923150  0.213647  0.083661  0.106700
    H   H36  0.076850  0.786353  0.916339  0.106720
    N   N1   0.000000  0.205506  0.000000  -0.169694
    N   N2   0.000000  0.794494  0.000000  -0.169695
    C   C57  0.000000  0.374467  0.000000  0.388026
    C   C58  0.000000  0.625533  0.000000  0.388026
    C   C59  0.000000  0.462950  0.000000  -0.172450
    C   C60  0.000000  0.537050  0.000000  -0.172449
