# generated using pymatgen
data_Fe2H21C48N7O20
_symmetry_space_group_name_H-M   'P 1'
_cell_length_a   15.86296000
_cell_length_b   27.12046900
_cell_length_c   11.44120300
_cell_angle_alpha   46.17687300
_cell_angle_beta   83.07842600
_cell_angle_gamma   78.48901400
_symmetry_Int_Tables_number   1
_chemical_formula_structural   Fe2H21C48N7O20
_chemical_formula_sum   'Fe2 H21 C48 N7 O20'
_cell_volume   3478.70796011
_cell_formula_units_Z   1
loop_
 _symmetry_equiv_pos_site_id
 _symmetry_equiv_pos_as_xyz
  1  'x, y, z'
loop_
 _atom_site_type_symbol
 _atom_site_label
 _atom_site_symmetry_multiplicity
 _atom_site_fract_x
 _atom_site_fract_y
 _atom_site_fract_z
 _atom_site_occupancy
  Fe  Fe1  1  0.50652100  0.00126600  0.24919300  1
  Fe  Fe2  1  0.49563900  0.00269700  0.73833400  1
  H  H1  1  0.23212500  0.01984200  0.23164600  1
  H  H2  1  0.08467800  0.02160700  0.18226000  1
  H  H3  1  0.82302600  0.01800100  0.10823000  1
  H  H4  1  0.77075000  0.98282700  0.75714300  1
  H  H5  1  0.91833400  0.97958800  0.80961700  1
  H  H6  1  0.63388500  0.46576200  0.27932600  1
  H  H7  1  0.50519600  0.22567200  0.33916500  1
  H  H8  1  0.53702500  0.35432000  0.83093600  1
  H  H9  1  0.49718000  0.77738100  0.64917900  1
  H  H10  1  0.45946700  0.75075700  0.12224100  1
  H  H11  1  0.46900600  0.64990500  0.15912800  1
  H  H12  1  0.48981100  0.25098900  0.80880500  1
  H  H13  1  0.55910100  0.30646000  0.72969300  1
  H  H14  1  0.14403200  0.93550100  0.93281800  1
  H  H15  1  0.13351400  0.02180300  0.77061400  1
  H  H16  1  0.36656500  0.66955800  0.52312100  1
  H  H17  1  0.28336400  0.64660000  0.65015900  1
  H  H18  1  0.39233600  0.53232600  0.61682000  1
  H  H19  1  0.30650800  0.50955200  0.74577300  1
  H  H20  1  0.71680500  0.35845900  0.33827800  1
  H  H21  1  0.63362100  0.33536800  0.46539400  1
  C  C1  1  0.22080400  0.01163600  0.15526800  1
  C  C2  1  0.13818100  0.01212000  0.12865700  1
  C  C3  1  0.12390900  0.99956200  0.03551300  1
  C  C4  1  0.19199700  0.98829300  0.96535600  1
  C  C5  1  0.27520300  0.98822500  0.99096100  1
  C  C6  1  0.28941500  0.99819400  0.08980800  1
  C  C7  1  0.03773900  0.99965900  0.00885300  1
  C  C8  1  0.96531300  0.99983400  0.98652000  1
  C  C9  1  0.81091000  0.01129500  0.02933000  1
  C  C10  1  0.72784900  0.01234600  0.00166700  1
  C  C11  1  0.71342000  0.00350600  0.90079700  1
  C  C12  1  0.78208100  0.99018000  0.83516800  1
  C  C13  1  0.86481000  0.98881700  0.86364300  1
  C  C14  1  0.87915100  0.00026500  0.95901600  1
  C  C15  1  0.47650200  0.89728400  0.56811900  1
  C  C16  1  0.37633000  0.99212000  0.13250700  1
  C  C17  1  0.65733900  0.01660900  0.09063300  1
  C  C18  1  0.53714200  0.12209400  0.14212400  1
  C  C19  1  0.46886500  0.88076700  0.84636200  1
  C  C20  1  0.34639000  0.98409000  0.90238600  1
  C  C21  1  0.62642600  0.01052800  0.85654000  1
  C  C22  1  0.52679500  0.10624500  0.41892100  1
  C  C23  1  0.54095100  0.58754000  0.05079600  1
  C  C24  1  0.44395200  0.65026500  0.83299500  1
  C  C25  1  0.44708800  0.59229500  0.85676200  1
  C  C26  1  0.49793000  0.53115200  0.98057300  1
  C  C27  1  0.54510400  0.52892300  0.07791000  1
  C  C28  1  0.39932600  0.59461600  0.75917300  1
  C  C29  1  0.40259300  0.53655900  0.78471500  1
  C  C30  1  0.45431600  0.47469800  0.90958400  1
  C  C31  1  0.50169700  0.47257200  0.00722600  1
  C  C32  1  0.55313800  0.41160800  0.13183200  1
  C  C33  1  0.60068900  0.40966500  0.22936700  1
  C  C34  1  0.59650300  0.46816600  0.20209400  1
  C  C35  1  0.45999400  0.41498100  0.93905100  1
  C  C36  1  0.55735500  0.35349900  0.15624500  1
  C  C37  1  0.51561400  0.23201800  0.23456800  1
  C  C38  1  0.52527400  0.17460900  0.25509100  1
  C  C39  1  0.53582300  0.18189700  0.12218000  1
  C  C40  1  0.53905400  0.24704100  0.96885200  1
  C  C41  1  0.53177800  0.30394200  0.94973600  1
  C  C42  1  0.51919500  0.29682200  0.08189600  1
  C  C43  1  0.48767400  0.77125300  0.75351700  1
  C  C44  1  0.47862900  0.82892000  0.73191300  1
  C  C45  1  0.46913500  0.82178100  0.86438100  1
  C  C46  1  0.46670500  0.75703500  0.01760200  1
  C  C47  1  0.47393800  0.69973500  0.03882800  1
  C  C48  1  0.48474900  0.70647300  0.90703200  1
  N  N1  1  0.49068500  0.64705500  0.92966400  1
  N  N2  1  0.51138000  0.35622100  0.05987200  1
  N  N3  1  0.54843700  0.25599100  0.82983600  1
  N  N4  1  0.17562000  0.97831600  0.86385700  1
  N  N5  1  0.34611100  0.65698500  0.63010200  1
  N  N6  1  0.35208600  0.54270800  0.67904000  1
  N  N7  1  0.65424400  0.34768400  0.35876000  1
  O  O1  1  0.53777900  0.90867000  0.46782200  1
  O  O2  1  0.43491900  0.93913000  0.18108700  1
  O  O3  1  0.40932400  0.94558100  0.51639100  1
  O  O4  1  0.39126500  0.03293900  0.14868100  1
  O  O5  1  0.58185400  0.00320000  0.09252600  1
  O  O6  1  0.67232900  0.02575400  0.18437500  1
  O  O7  1  0.51890200  0.06327900  0.28174300  1
  O  O8  1  0.54805800  0.12890200  0.01631800  1
  O  O9  1  0.48205300  0.94107200  0.70513600  1
  O  O10  1  0.46457300  0.87140200  0.97572000  1
  O  O11  1  0.41997300  0.00151900  0.89376500  1
  O  O12  1  0.33392100  0.97085500  0.81566800  1
  O  O13  1  0.59330400  0.05743100  0.47085200  1
  O  O14  1  0.61056600  0.96967300  0.84110600  1
  O  O15  1  0.46585200  0.09551500  0.51920400  1
  O  O16  1  0.56883100  0.06432400  0.80579400  1
  O  O17  1  0.58892000  0.58564600  0.14327100  1
  O  O18  1  0.39189600  0.70943200  0.71713800  1
  O  O19  1  0.41300000  0.41422900  0.85049500  1
  O  O20  1  0.60973400  0.29464100  0.27235200  1
