# Generated by REPEAT Assigner based on pymatgen
data_DB0-m3_o19_o1500_f0_fsc.sym.46
_audit_creation_date              2022-05-24
_audit_creation_method            REPEAT_Assigner
_cell_length_a                    10.219080
_cell_length_b                    8.451536
_cell_length_c                    15.049828
_cell_angle_alpha                 90.000000
_cell_angle_beta                  98.722617
_cell_angle_gamma                 90.000000
_cell_volume                      1284.773891
_symmetry_space_group_name_H-M    P1
_symmetry_Int_Tables_number       1
loop_
    _symmetry_equiv_pos_site_id
    _symmetry_equiv_pos_as_xyz
    1  x,y,z
loop_
    _atom_site_type_symbol
    _atom_site_label
    _atom_site_fract_x
    _atom_site_fract_y
    _atom_site_fract_z
    _atom_type_partial_charge
    H   H1   0.931314  0.000000  0.432864  0.106973
    H   H2   0.068686  0.000000  0.567136  0.106947
    C   C1   0.955184  0.141369  0.319785  0.070195
    C   C2   0.044816  0.858632  0.680215  0.070177
    C   C3   0.044816  0.141369  0.680215  0.070186
    C   C4   0.955184  0.858632  0.319785  0.070185
    C   C5   0.972556  0.141863  0.230702  -0.500455
    C   C6   0.027444  0.858137  0.769298  -0.500463
    C   C7   0.027444  0.141863  0.769298  -0.500461
    C   C8   0.972556  0.858137  0.230702  -0.500456
    H   H3   0.983702  0.252497  0.196590  0.142375
    H   H4   0.016298  0.747503  0.803410  0.142380
    H   H5   0.016298  0.252497  0.803410  0.142380
    H   H6   0.983702  0.747503  0.196590  0.142374
    C   C9   0.976337  0.000000  0.185357  0.500232
    C   C10  0.023663  0.000000  0.814643  0.500145
    C   C11  0.941592  0.000000  0.362601  -0.179231
    C   C12  0.058408  0.000000  0.637399  -0.179192
    C   C13  0.876616  0.000000  0.026370  -0.086437
    C   C14  0.123383  0.000000  0.973630  -0.086616
    C   C15  0.887724  0.000000  0.936199  -0.206194
    C   C16  0.112275  0.000000  0.063801  -0.206043
    C   C17  0.011155  0.000000  0.909846  0.249058
    C   C18  0.988845  0.000000  0.090154  0.248891
    Zn  Zn1  0.145523  0.500000  0.498029  1.113680
    Zn  Zn2  0.854477  0.500000  0.501972  1.113658
    N   N1   0.316807  0.500000  0.495686  -0.030109
    N   N2   0.683193  0.500000  0.504314  -0.030070
    C   C19  0.430540  0.500000  0.498178  0.213698
    C   C20  0.569460  0.500000  0.501822  0.213641
    O   O1   0.863693  0.339072  0.404558  -0.742192
    O   O2   0.136307  0.660928  0.595442  -0.742174
    O   O3   0.136307  0.339072  0.595442  -0.742176
    O   O4   0.863693  0.660928  0.404558  -0.742190
    O   O5   0.089530  0.332979  0.404743  -0.742468
    O   O6   0.910470  0.667021  0.595257  -0.742459
    O   O7   0.910470  0.332979  0.595257  -0.742463
    O   O8   0.089530  0.667021  0.404743  -0.742464
    C   C21  0.968978  0.284619  0.374484  0.921659
    C   C22  0.031022  0.715381  0.625516  0.921648
    C   C23  0.031022  0.284619  0.625516  0.921661
    C   C24  0.968978  0.715381  0.374484  0.921648
    I   I1   0.688292  0.000000  0.066718  -0.033374
    I   I2   0.311708  0.000000  0.933282  -0.033331
    I   I3   0.716487  0.000000  0.838966  0.053641
    I   I4   0.283512  0.000000  0.161034  0.053584
