# Generated by REPEAT Assigner based on pymatgen
data_DB0-m3_o17_o27_f0_nbo.sym.124
_audit_creation_date              2022-05-24
_audit_creation_method            REPEAT_Assigner
_cell_length_a                    30.088598
_cell_length_b                    30.088453
_cell_length_c                    38.610151
_cell_angle_alpha                 90.000000
_cell_angle_beta                  90.000000
_cell_angle_gamma                 90.000000
_cell_volume                      34954.517777
_symmetry_space_group_name_H-M    P1
_symmetry_Int_Tables_number       1
loop_
    _symmetry_equiv_pos_site_id
    _symmetry_equiv_pos_as_xyz
    1  x,y,z
loop_
    _atom_site_type_symbol
    _atom_site_label
    _atom_site_fract_x
    _atom_site_fract_y
    _atom_site_fract_z
    _atom_type_partial_charge
    O   O1    0.539257  0.933682  0.001018  -0.695285
    O   O2    0.066326  0.539230  0.000855  -0.695646
    O   O3    0.460582  0.066474  0.999277  -0.694532
    O   O4    0.933509  0.460604  0.999312  -0.695632
    O   O5    0.537355  0.066202  0.999193  -0.709743
    O   O6    0.066038  0.462544  0.997999  -0.710485
    O   O7    0.462572  0.933944  0.998070  -0.710553
    O   O8    0.933805  0.537380  0.999131  -0.710920
    O   O9    0.039344  0.433634  0.500630  -0.696130
    O   O10   0.566458  0.039286  0.499595  -0.694681
    O   O11   0.960717  0.566461  0.499535  -0.694227
    O   O12   0.433657  0.960608  0.500703  -0.695191
    O   O13   0.037490  0.566165  0.499415  -0.708981
    O   O14   0.566186  0.962510  0.499381  -0.709301
    O   O15   0.962656  0.433940  0.497717  -0.711278
    O   O16   0.433938  0.037296  0.497880  -0.710749
    O   O17   0.433541  0.502189  0.029799  -0.694189
    O   O18   0.497755  0.433810  0.028263  -0.708760
    O   O19   0.566181  0.499572  0.028347  -0.708292
    O   O20   0.500401  0.566447  0.029881  -0.693710
    O   O21   0.433725  0.498155  0.970034  -0.703211
    O   O22   0.499738  0.566342  0.970036  -0.702875
    O   O23   0.566374  0.500348  0.968501  -0.691204
    O   O24   0.501901  0.433693  0.968497  -0.691395
    O   O25   0.933622  0.000562  0.529865  -0.694142
    O   O26   0.997865  0.933690  0.529870  -0.695863
    O   O27   0.066259  0.997916  0.528293  -0.708375
    O   O28   0.000479  0.066328  0.528290  -0.707831
    O   O29   0.933786  0.999764  0.470019  -0.703630
    O   O30   0.999795  0.066413  0.468446  -0.690892
    O   O31   0.066436  0.001927  0.468527  -0.690272
    O   O32   0.001989  0.933766  0.470103  -0.704549
    C   C1    0.500858  0.913162  0.999549  0.721407
    C   C2    0.086838  0.500825  0.999417  0.721187
    C   C3    0.499027  0.086993  0.999182  0.721433
    C   C4    0.913007  0.499058  0.999184  0.723446
    C   C5    0.000938  0.413137  0.499084  0.724798
    C   C6    0.586972  0.000839  0.499514  0.719441
    C   C7    0.999169  0.586968  0.499518  0.718386
    C   C8    0.413142  0.999009  0.499217  0.721143
    O   O33   0.539328  0.000118  0.051153  -0.676480
    O   O34   0.999950  0.539395  0.051049  -0.676783
    O   O35   0.462614  0.000445  0.051012  -0.692348
    O   O36   0.999608  0.462679  0.050983  -0.692207
    O   O37   0.537229  0.998022  0.947781  -0.695797
    O   O38   0.998232  0.460521  0.947606  -0.679941
    O   O39   0.460591  0.001685  0.947632  -0.680286
    O   O40   0.001916  0.537159  0.947678  -0.695525
    O   O41   0.039480  0.499690  0.551068  -0.675875
    O   O42   0.500106  0.037145  0.551065  -0.691851
    O   O43   0.962766  0.500039  0.550964  -0.691223
    O   O44   0.499782  0.960429  0.551098  -0.676557
    O   O45   0.037296  0.498378  0.447690  -0.694204
    O   O46   0.498329  0.962745  0.447723  -0.694470
    O   O47   0.960660  0.502063  0.447593  -0.679375
    O   O48   0.501993  0.039384  0.447694  -0.680441
    C   C9    0.500934  0.000353  0.067249  0.603132
    C   C10   0.999730  0.501025  0.067182  0.602185
    C   C11   0.498944  0.999739  0.931544  0.605017
    C   C12   0.000166  0.498849  0.931479  0.604204
    C   C13   0.001099  0.499813  0.567183  0.600352
    C   C14   0.499916  0.998788  0.567248  0.603557
    C   C15   0.999000  0.500229  0.431479  0.603950
    C   C16   0.500148  0.001067  0.431546  0.604481
    Zn  Zn1   0.550294  0.000086  0.999314  1.320888
    Zn  Zn2   0.999925  0.550295  0.999201  1.321788
    Zn  Zn3   0.449587  0.000029  0.999450  1.321119
    Zn  Zn4   0.999951  0.449584  0.999431  1.321405
    Zn  Zn5   0.050405  0.500045  0.499225  1.320277
    Zn  Zn6   0.500012  0.050280  0.499520  1.320969
    Zn  Zn7   0.949698  0.500019  0.499408  1.320538
    Zn  Zn8   0.500070  0.949571  0.499245  1.320220
    C   C17   0.412984  0.500152  0.999889  0.691172
    C   C18   0.499740  0.413109  0.998393  0.694709
    C   C19   0.586920  0.499915  0.998456  0.696095
    C   C20   0.500096  0.587043  0.999945  0.691499
    C   C21   0.913061  0.000187  0.499917  0.693828
    C   C22   0.999946  0.913085  0.499981  0.694596
    C   C23   0.086996  0.999832  0.498435  0.691170
    C   C24   0.000180  0.087019  0.498378  0.694990
    C   C25   0.463750  0.986600  0.123047  -0.243160
    C   C26   0.013558  0.463909  0.122992  -0.245457
    C   C27   0.537798  0.014481  0.123123  -0.244992
    C   C28   0.985677  0.537957  0.123043  -0.248680
    C   C29   0.463868  0.017607  0.875665  -0.269112
    C   C30   0.018506  0.534170  0.875787  -0.261348
    C   C31   0.534326  0.981317  0.875886  -0.263984
    C   C32   0.982219  0.463710  0.875634  -0.268037
    C   C33   0.963954  0.485681  0.622940  -0.246905
    C   C34   0.513736  0.961824  0.623133  -0.250004
    C   C35   0.038000  0.513567  0.623097  -0.251701
    C   C36   0.485856  0.035873  0.623035  -0.246612
    C   C37   0.963884  0.518501  0.375691  -0.267371
    C   C38   0.518341  0.036252  0.375767  -0.269485
    C   C39   0.034341  0.482208  0.375728  -0.264965
    C   C40   0.482050  0.965793  0.375787  -0.266106
    H   H1    0.435124  0.974223  0.109179  0.145388
    H   H2    0.025923  0.435270  0.109134  0.145796
    H   H3    0.566502  0.026775  0.109307  0.145396
    H   H4    0.973372  0.566649  0.109219  0.146104
    H   H5    0.436170  0.031456  0.889776  0.136016
    H   H6    0.032243  0.561800  0.890045  0.135115
    H   H7    0.561941  0.967600  0.890173  0.135666
    H   H8    0.968392  0.436025  0.889773  0.135730
    H   H9    0.935321  0.473389  0.609035  0.145771
    H   H10   0.526099  0.933139  0.609330  0.145933
    H   H11   0.066696  0.525949  0.609319  0.146499
    H   H12   0.473550  0.064520  0.609155  0.146250
    H   H13   0.936197  0.532251  0.389875  0.135449
    H   H14   0.532106  0.063925  0.389957  0.136287
    H   H15   0.061968  0.468391  0.389943  0.135243
    H   H16   0.468250  0.938152  0.389995  0.135352
    C   C41   0.464032  0.984806  0.158728  0.186040
    C   C42   0.015381  0.464220  0.158672  0.183572
    C   C43   0.537321  0.016469  0.158798  0.187594
    C   C44   0.983718  0.537509  0.158720  0.187117
    C   C45   0.463864  0.018061  0.839883  0.242990
    C   C46   0.019212  0.534359  0.840007  0.230261
    C   C47   0.534543  0.980555  0.840105  0.234985
    C   C48   0.981710  0.463678  0.839850  0.241675
    C   C49   0.964253  0.483674  0.658615  0.183892
    C   C50   0.515551  0.962255  0.658815  0.190094
    C   C51   0.037539  0.515343  0.658778  0.188712
    C   C52   0.483890  0.035545  0.658709  0.187183
    C   C53   0.963849  0.519195  0.339910  0.242437
    C   C54   0.519002  0.036316  0.339985  0.243149
    C   C55   0.034527  0.481688  0.339946  0.242519
    C   C56   0.481497  0.965636  0.340005  0.240977
    C   C57   0.500629  0.000682  0.177045  -0.554086
    C   C58   0.999512  0.500828  0.176978  -0.550739
    C   C59   0.499258  0.999238  0.822010  -0.743669
    C   C60   0.000509  0.499059  0.821944  -0.741989
    C   C61   0.000853  0.499452  0.676978  -0.553052
    C   C62   0.499681  0.998927  0.677044  -0.555280
    C   C63   0.999226  0.500487  0.321943  -0.752979
    C   C64   0.500281  0.000950  0.322010  -0.751468
    C   C65   0.500824  0.000488  0.105140  0.220003
    C   C66   0.999649  0.500965  0.105073  0.224157
    C   C67   0.499047  0.999545  0.893655  0.235175
    C   C68   0.000309  0.498904  0.893589  0.234658
    C   C69   0.001017  0.499685  0.605074  0.227514
    C   C70   0.499834  0.998824  0.605139  0.223434
    C   C71   0.999076  0.500312  0.393589  0.234018
    C   C72   0.500174  0.001042  0.393656  0.236383
    N   N1    0.535791  0.984944  0.232671  -0.255919
    N   N2    0.015246  0.536000  0.232604  -0.257449
    N   N3    0.465198  0.016638  0.232533  -0.256170
    N   N4    0.983551  0.465406  0.232466  -0.257063
    N   N5    0.483787  0.963703  0.766837  -0.612577
    N   N6    0.965239  0.514852  0.766727  -0.612174
    N   N7    0.515100  0.034498  0.766801  -0.613933
    N   N8    0.036037  0.483549  0.766778  -0.611710
    N   N9    0.036018  0.483450  0.732560  -0.257672
    N   N10   0.515395  0.034323  0.732584  -0.255387
    N   N11   0.965421  0.515138  0.732511  -0.257110
    N   N12   0.483697  0.963730  0.732619  -0.257658
    N   N13   0.983680  0.465222  0.266683  -0.612382
    N   N14   0.465014  0.016508  0.266750  -0.613069
    N   N15   0.014989  0.536018  0.266822  -0.612592
    N   N16   0.535809  0.985198  0.266888  -0.613750
    C   C73   0.500370  0.000885  0.284224  1.489151
    C   C74   0.999303  0.500577  0.284157  1.490071
    C   C75   0.499595  0.998991  0.715090  0.887741
    C   C76   0.000761  0.499342  0.715025  0.887782
    C   C77   0.000597  0.499154  0.784158  1.481996
    C   C78   0.499388  0.999140  0.784224  1.484039
    C   C79   0.999431  0.500744  0.215024  0.883990
    C   C80   0.500537  0.000759  0.215091  0.885500
    Zn  Zn9   0.500002  0.499931  0.038440  1.312134
    Zn  Zn10  0.499865  0.500173  0.959900  1.304414
    Zn  Zn11  0.000132  0.000166  0.538447  1.312603
    Zn  Zn12  0.999961  0.999890  0.459907  1.304555
    C   C81   0.474341  0.658461  0.976435  -0.391366
    C   C82   0.341573  0.473610  0.976862  -0.383167
    C   C83   0.526928  0.341564  0.976125  -0.391125
    C   C84   0.658462  0.526386  0.975689  -0.399781
    C   C85   0.472167  0.341854  0.020895  -0.385259
    C   C86   0.341562  0.526910  0.022692  -0.387676
    C   C87   0.526128  0.658437  0.023305  -0.393924
    C   C88   0.658156  0.473097  0.021524  -0.394794
    C   C89   0.974463  0.158562  0.475044  -0.395748
    C   C90   0.841667  0.973669  0.476904  -0.385239
    C   C91   0.027220  0.841672  0.477533  -0.387415
    C   C92   0.158567  0.026280  0.475658  -0.399184
    C   C93   0.972464  0.841697  0.522307  -0.392563
    C   C94   0.841675  0.026960  0.522739  -0.391465
    C   C95   0.026252  0.158288  0.521913  -0.389804
    C   C96   0.158257  0.972978  0.521486  -0.391750
    C   C97   0.500187  0.635520  0.999896  0.212038
    C   C98   0.364502  0.500221  0.999810  0.203406
    C   C99   0.499596  0.364636  0.998457  0.202839
    C   C100  0.635388  0.499797  0.998554  0.212881
    C   C101  0.000306  0.135495  0.498434  0.210044
    C   C102  0.864593  0.000276  0.499847  0.208184
    C   C103  0.999885  0.864612  0.499945  0.205943
    C   C104  0.135478  0.999687  0.498520  0.210333
    C   C105  0.527094  0.704259  0.022649  0.251177
    C   C106  0.295742  0.527825  0.022019  0.239018
    C   C107  0.471246  0.296031  0.020371  0.241677
    C   C108  0.703979  0.472121  0.021001  0.251898
    C   C109  0.527667  0.295738  0.976879  0.244030
    C   C110  0.295742  0.472860  0.977411  0.237338
    C   C111  0.473571  0.704290  0.976987  0.246496
    C   C112  0.704287  0.527139  0.976430  0.256737
    C   C113  0.027219  0.204110  0.521408  0.245557
    C   C114  0.795855  0.027903  0.522058  0.243220
    C   C115  0.971538  0.795876  0.521613  0.245500
    C   C116  0.204082  0.972034  0.520985  0.249249
    C   C117  0.027955  0.795844  0.478117  0.235807
    C   C118  0.795839  0.972883  0.477486  0.238621
    C   C119  0.973694  0.204390  0.475749  0.248851
    C   C120  0.204394  0.027002  0.476380  0.255017
    C   C121  0.500382  0.727188  0.999792  -0.050932
    C   C122  0.272828  0.500385  0.999683  -0.035493
    C   C123  0.499415  0.272971  0.998686  -0.038702
    C   C124  0.727046  0.499575  0.998771  -0.052566
    C   C125  0.000503  0.227163  0.498631  -0.044772
    C   C126  0.772934  0.000432  0.499748  -0.036509
    C   C127  0.999696  0.772946  0.499835  -0.031821
    C   C128  0.227152  0.999465  0.498741  -0.052384
    C   C129  0.554796  0.727185  0.044802  -0.226442
    C   C130  0.272804  0.556205  0.043636  -0.220119
    C   C131  0.442149  0.273233  0.041494  -0.224866
    C   C132  0.726769  0.443675  0.042662  -0.225251
    C   C133  0.556682  0.272643  0.955882  -0.223769
    C   C134  0.272787  0.444569  0.955731  -0.225282
    C   C135  0.445972  0.727256  0.954779  -0.225342
    C   C136  0.727389  0.555472  0.954879  -0.229715
    C   C137  0.054918  0.226911  0.543641  -0.225444
    C   C138  0.772922  0.056332  0.543640  -0.221769
    C   C139  0.942430  0.772951  0.542643  -0.226859
    C   C140  0.226871  0.943643  0.542690  -0.225148
    C   C141  0.056955  0.772876  0.457023  -0.218497
    C   C142  0.772880  0.944534  0.455856  -0.224570
    C   C143  0.946090  0.227482  0.453624  -0.226453
    C   C144  0.227498  0.055286  0.454792  -0.228931
    C   C145  0.556036  0.772945  0.043896  -0.228320
    C   C146  0.227045  0.557382  0.042717  -0.231621
    C   C147  0.440988  0.227468  0.040725  -0.226772
    C   C148  0.772533  0.442436  0.041883  -0.231256
    C   C149  0.557681  0.226879  0.956903  -0.232096
    C   C150  0.227016  0.443570  0.956523  -0.226253
    C   C151  0.444940  0.773026  0.955575  -0.226531
    C   C152  0.773153  0.556485  0.955877  -0.228164
    C   C153  0.056147  0.272674  0.542899  -0.228562
    C   C154  0.727163  0.057539  0.542702  -0.233270
    C   C155  0.941241  0.727192  0.541683  -0.228340
    C   C156  0.272636  0.942451  0.541952  -0.228261
    C   C157  0.057925  0.727106  0.457853  -0.236885
    C   C158  0.727111  0.943490  0.456695  -0.229665
    C   C159  0.945046  0.273247  0.454583  -0.229474
    C   C160  0.273262  0.056271  0.455766  -0.226458
    C   C161  0.528749  0.795909  0.021455  0.234438
    C   C162  0.204096  0.529390  0.020801  0.239485
    C   C163  0.469711  0.204375  0.019485  0.236444
    C   C164  0.795633  0.470463  0.020090  0.239848
    C   C165  0.528882  0.204079  0.978273  0.242028
    C   C166  0.204072  0.471651  0.978375  0.236837
    C   C167  0.472331  0.795955  0.977961  0.232380
    C   C168  0.795944  0.528348  0.977781  0.235550
    C   C169  0.028851  0.295761  0.520543  0.239181
    C   C170  0.704207  0.029497  0.520829  0.245116
    C   C171  0.969943  0.704227  0.520343  0.242908
    C   C172  0.295739  0.970440  0.520130  0.235281
    C   C173  0.029110  0.704178  0.479127  0.249653
    C   C174  0.704175  0.971612  0.478519  0.244589
    C   C175  0.972431  0.296053  0.477051  0.237361
    C   C176  0.296054  0.028183  0.477708  0.231213
    C   C177  0.500486  0.773018  0.999737  -0.021550
    C   C178  0.226998  0.500474  0.999620  -0.033035
    C   C179  0.499336  0.227141  0.998814  -0.034790
    C   C180  0.772876  0.499463  0.998881  -0.027047
    C   C181  0.000595  0.272993  0.498741  -0.029674
    C   C182  0.727104  0.000512  0.499700  -0.039329
    C   C183  0.999586  0.727116  0.499770  -0.045285
    C   C184  0.272982  0.999363  0.498859  -0.022014
    C   C185  0.529669  0.841729  0.020745  -0.368283
    C   C186  0.158276  0.530264  0.020082  -0.369287
    C   C187  0.468862  0.158551  0.018929  -0.364844
    C   C188  0.841456  0.469545  0.019515  -0.371017
    C   C189  0.529565  0.158253  0.979084  -0.366806
    C   C190  0.158239  0.470973  0.978963  -0.363970
    C   C191  0.471632  0.841785  0.978555  -0.364841
    C   C192  0.841770  0.529028  0.978568  -0.364698
    C   C193  0.029755  0.341583  0.520003  -0.369429
    C   C194  0.658388  0.030385  0.520095  -0.372993
    C   C195  0.969054  0.658406  0.519585  -0.371004
    C   C196  0.341564  0.969560  0.519597  -0.369993
    C   C197  0.029753  0.658348  0.479735  -0.370002
    C   C198  0.658346  0.970903  0.479146  -0.371101
    C   C199  0.971715  0.341881  0.477815  -0.363228
    C   C200  0.341880  0.028856  0.478483  -0.362397
    C   C201  0.500708  0.864686  0.999621  0.162363
    C   C202  0.135321  0.500671  0.999490  0.161525
    C   C203  0.499170  0.135471  0.999071  0.163464
    C   C204  0.864537  0.499225  0.999094  0.165101
    C   C205  0.000786  0.364661  0.498967  0.158624
    C   C206  0.635443  0.000692  0.499593  0.170197
    C   C207  0.999339  0.635446  0.499621  0.169544
    C   C208  0.364658  0.999155  0.499101  0.161359
    H   H17   0.453562  0.640494  0.958398  0.171645
    H   H18   0.359541  0.452247  0.959244  0.171736
    H   H19   0.548860  0.359433  0.958873  0.173915
    H   H20   0.640587  0.547744  0.958010  0.172823
    H   H21   0.450325  0.359950  0.038071  0.172258
    H   H22   0.359522  0.548213  0.040359  0.172515
    H   H23   0.546835  0.640449  0.041380  0.171132
    H   H24   0.640042  0.451827  0.039120  0.171698
    H   H25   0.953675  0.140691  0.456955  0.172588
    H   H26   0.859659  0.952323  0.459288  0.170110
    H   H27   0.049136  0.859645  0.460334  0.172959
    H   H28   0.140725  0.047662  0.457977  0.175131
    H   H29   0.950609  0.859690  0.539539  0.173437
    H   H30   0.859674  0.048241  0.540398  0.171029
    H   H31   0.046953  0.140203  0.539934  0.170873
    H   H32   0.140172  0.951692  0.539087  0.173141
    H   H33   0.575965  0.709425  0.062686  0.141951
    H   H34   0.290554  0.577941  0.061109  0.140294
    H   H35   0.419841  0.291097  0.058451  0.140173
    H   H36   0.708899  0.421924  0.060049  0.140987
    H   H37   0.579056  0.290274  0.938830  0.141996
    H   H38   0.290531  0.422766  0.938305  0.142658
    H   H39   0.424727  0.709522  0.936935  0.142645
    H   H40   0.709763  0.577308  0.937405  0.144235
    H   H41   0.076089  0.209050  0.561464  0.141602
    H   H42   0.790678  0.078095  0.561089  0.141128
    H   H43   0.920130  0.790713  0.559672  0.141669
    H   H44   0.209001  0.921914  0.560093  0.140530
    H   H45   0.079333  0.790610  0.440039  0.141183
    H   H46   0.790620  0.922709  0.438445  0.142945
    H   H47   0.924844  0.209847  0.435719  0.143606
    H   H48   0.209874  0.077098  0.437298  0.143434
    H   H49   0.578140  0.790676  0.061098  0.140366
    H   H50   0.209304  0.580007  0.059496  0.140859
    H   H51   0.417803  0.209835  0.057105  0.140760
    H   H52   0.790159  0.419750  0.058685  0.141677
    H   H53   0.580803  0.209017  0.940620  0.142248
    H   H54   0.209263  0.421017  0.939692  0.139859
    H   H55   0.422921  0.790789  0.938328  0.140066
    H   H56   0.791022  0.579081  0.939156  0.141301
    H   H57   0.078246  0.290309  0.560165  0.140018
    H   H58   0.709426  0.080213  0.559444  0.141517
    H   H59   0.918043  0.709462  0.557988  0.140903
    H   H60   0.290261  0.919820  0.558801  0.140446
    H   H61   0.081031  0.709341  0.441492  0.142935
    H   H62   0.709352  0.920882  0.439913  0.140929
    H   H63   0.923019  0.291107  0.437401  0.140814
    H   H64   0.291132  0.078821  0.439008  0.140618
    H   H65   0.552043  0.859686  0.037591  0.170094
    H   H66   0.140330  0.553140  0.036520  0.170681
    H   H67   0.445427  0.140694  0.034943  0.166520
    H   H68   0.859324  0.446590  0.035939  0.168810
    H   H69   0.552921  0.140160  0.963161  0.167139
    H   H70   0.140264  0.448183  0.962472  0.168170
    H   H71   0.449354  0.859783  0.961658  0.169114
    H   H72   0.859884  0.551876  0.962218  0.166628
    H   H73   0.052125  0.359443  0.536915  0.170479
    H   H74   0.640412  0.053329  0.536457  0.168740
    H   H75   0.945607  0.640453  0.535522  0.167870
    H   H76   0.359399  0.946680  0.536104  0.171229
    H   H77   0.053092  0.640352  0.463731  0.167089
    H   H78   0.640339  0.948044  0.462733  0.167615
    H   H79   0.949431  0.359977  0.460988  0.168300
    H   H80   0.359966  0.051645  0.462065  0.168618
    C   C209  0.425806  0.963821  0.175712  0.031978
    C   C210  0.428432  0.931740  0.201019  -0.002329
    C   C211  0.385832  0.919676  0.207579  -0.221224
    C   C212  0.360198  0.944647  0.185502  -0.040721
    O   O49   0.384371  0.971261  0.165708  -0.090525
    H   H81   0.458064  0.918011  0.212657  0.066254
    H   H82   0.374502  0.895004  0.225915  0.131100
    H   H83   0.324390  0.942634  0.183905  0.122622
    C   C213  0.036380  0.426008  0.175665  0.036304
    C   C214  0.068468  0.428656  0.200966  -0.006074
    C   C215  0.080542  0.386061  0.207539  -0.219669
    C   C216  0.055570  0.360409  0.185476  -0.041999
    O   O50   0.028946  0.384565  0.165678  -0.090985
    H   H84   0.082194  0.458297  0.212592  0.067852
    H   H85   0.105221  0.374747  0.225875  0.130898
    H   H86   0.057590  0.324600  0.183892  0.122998
    C   C217  0.575456  0.037540  0.175842  0.032043
    C   C218  0.572695  0.069727  0.201059  -0.003399
    C   C219  0.615260  0.081827  0.207719  -0.222270
    C   C220  0.641011  0.056769  0.185785  -0.037382
    O   O51   0.616943  0.030067  0.165985  -0.091827
    H   H87   0.543003  0.083498  0.212573  0.067040
    H   H88   0.626492  0.106577  0.226028  0.131273
    H   H89   0.676826  0.058783  0.184294  0.121576
    C   C221  0.962662  0.575659  0.175755  0.033657
    C   C222  0.930481  0.572920  0.200978  -0.003892
    C   C223  0.918392  0.615491  0.207625  -0.221204
    C   C224  0.943451  0.641224  0.185679  -0.039134
    O   O52   0.970143  0.617139  0.165883  -0.091165
    H   H90   0.916705  0.543236  0.212502  0.066912
    H   H91   0.893649  0.626739  0.225933  0.131032
    H   H92   0.941445  0.677039  0.184176  0.122081
    C   C225  0.426035  0.038306  0.821562  0.038593
    C   C226  0.401692  0.073496  0.834131  -0.147788
    C   C227  0.369841  0.081306  0.810030  -0.230796
    C   C228  0.376670  0.050315  0.784515  0.028930
    O   O53   0.410808  0.023979  0.791347  -0.069108
    H   H93   0.406836  0.091884  0.857843  0.142537
    H   H94   0.344437  0.106688  0.810741  0.150728
    H   H95   0.356658  0.047435  0.761378  0.092083
    C   C229  0.039575  0.572290  0.821891  0.046889
    C   C230  0.074658  0.596588  0.834694  -0.150891
    C   C231  0.082638  0.628557  0.810721  -0.227849
    C   C232  0.051846  0.621836  0.785043  0.022034
    O   O54   0.025474  0.587654  0.791654  -0.067276
    H   H96   0.092868  0.591338  0.858475  0.142107
    H   H97   0.108002  0.653969  0.811624  0.150582
    H   H98   0.049134  0.641956  0.761951  0.094401
    C   C233  0.572480  0.960151  0.822023  0.043110
    C   C234  0.596785  0.925107  0.834882  -0.149614
    C   C235  0.628743  0.917056  0.810915  -0.227603
    C   C236  0.622008  0.947769  0.785182  0.022462
    O   O55   0.587830  0.974161  0.791756  -0.066941
    H   H99   0.591545  0.906962  0.858695  0.141737
    H   H100  0.654154  0.891693  0.811856  0.150337
    H   H101  0.642115  0.950410  0.762078  0.094441
    C   C237  0.961430  0.425838  0.821562  0.040004
    C   C238  0.926282  0.401482  0.834188  -0.148354
    C   C239  0.918406  0.369641  0.810091  -0.230862
    C   C240  0.949318  0.376490  0.784521  0.029836
    O   O56   0.975667  0.410630  0.791316  -0.069992
    H   H102  0.907960  0.406612  0.857932  0.142529
    H   H103  0.893030  0.344232  0.810840  0.150688
    H   H104  0.952130  0.356492  0.761371  0.091779
    C   C241  0.926035  0.462590  0.675536  0.036669
    C   C242  0.928672  0.430383  0.700746  -0.005768
    C   C243  0.886075  0.418275  0.707271  -0.219607
    C   C244  0.860432  0.443348  0.685271  -0.040820
    O   O57   0.884596  0.470068  0.665556  -0.091388
    H   H105  0.958307  0.416604  0.712342  0.067091
    H   H106  0.874753  0.393509  0.725533  0.130761
    H   H107  0.824625  0.441334  0.683670  0.122311
    C   C245  0.536540  0.924098  0.675892  0.032582
    C   C246  0.568604  0.926826  0.701207  -0.001832
    C   C247  0.580674  0.884253  0.707867  -0.221148
    C   C248  0.555724  0.858531  0.685838  -0.039820
    O   O58   0.529117  0.882624  0.665979  -0.090518
    H   H108  0.582319  0.956503  0.712787  0.064903
    H   H109  0.605335  0.872997  0.726239  0.131094
    H   H110  0.557747  0.822717  0.684323  0.122015
    C   C249  0.075678  0.536320  0.675886  0.033395
    C   C250  0.072922  0.568383  0.701199  -0.001073
    C   C251  0.115488  0.580446  0.707893  -0.222236
    C   C252  0.141235  0.555493  0.685884  -0.039755
    O   O59   0.117164  0.528891  0.666005  -0.090774
    H   H111  0.043231  0.582101  0.712753  0.065090
    H   H112  0.126724  0.605105  0.726275  0.131416
    H   H113  0.177051  0.557510  0.684398  0.122071
    C   C253  0.462826  0.073750  0.675661  0.032933
    C   C254  0.430621  0.071093  0.700871  -0.004024
    C   C255  0.418530  0.113686  0.707431  -0.219955
    C   C256  0.443611  0.139348  0.685449  -0.039595
    O   O60   0.470318  0.115199  0.665713  -0.091536
    H   H114  0.416835  0.041445  0.712443  0.066732
    H   H115  0.393772  0.124993  0.725704  0.130676
    H   H116  0.441609  0.175158  0.683877  0.122024
    C   C257  0.926004  0.539565  0.321690  0.042450
    C   C258  0.901653  0.574652  0.334425  -0.151062
    C   C259  0.869800  0.582643  0.310361  -0.229705
    C   C260  0.876637  0.551853  0.284700  0.029351
    O   O61   0.910780  0.525472  0.291408  -0.070971
    H   H117  0.906794  0.592859  0.358222  0.143534
    H   H118  0.844390  0.608014  0.311192  0.150555
    H   H119  0.856627  0.549151  0.261548  0.091943
    C   C261  0.539358  0.074173  0.321770  0.042956
    C   C262  0.574454  0.098516  0.334498  -0.152027
    C   C263  0.582428  0.130382  0.310441  -0.229086
    C   C264  0.551621  0.123560  0.284791  0.029088
    O   O62   0.525244  0.089413  0.291499  -0.071173
    H   H120  0.592679  0.093362  0.358285  0.143616
    H   H121  0.607800  0.155791  0.311269  0.150485
    H   H122  0.548902  0.143581  0.261647  0.092085
    C   C265  0.072449  0.461408  0.321762  0.040855
    C   C266  0.096748  0.426261  0.334456  -0.149902
    C   C267  0.128704  0.418390  0.310451  -0.229047
    C   C268  0.121974  0.449305  0.284864  0.027506
    O   O63   0.087800  0.475651  0.291561  -0.069702
    H   H123  0.091507  0.407937  0.358185  0.142168
    H   H124  0.154111  0.393017  0.311273  0.150467
    H   H125  0.142083  0.452123  0.261773  0.092508
    C   C269  0.461204  0.927726  0.321817  0.042121
    C   C270  0.426066  0.903420  0.334516  -0.149842
    C   C271  0.418179  0.871476  0.310505  -0.228407
    C   C272  0.449077  0.878218  0.284908  0.025754
    O   O64   0.475427  0.912389  0.291605  -0.068994
    H   H126  0.407758  0.908649  0.358255  0.142056
    H   H127  0.392807  0.846068  0.311329  0.150307
    H   H128  0.451880  0.858121  0.261810  0.093084
