# generated using pymatgen
data_FeH5C18(NO6)2
_symmetry_space_group_name_H-M   'P 1'
_cell_length_a   15.85582600
_cell_length_b   14.42984300
_cell_length_c   13.42531500
_cell_angle_alpha   93.51154500
_cell_angle_beta   97.69392600
_cell_angle_gamma   102.09693300
_symmetry_Int_Tables_number   1
_chemical_formula_structural   FeH5C18(NO6)2
_chemical_formula_sum   'Fe2 H10 C36 N4 O24'
_cell_volume   2963.75743074
_cell_formula_units_Z   2
loop_
 _symmetry_equiv_pos_site_id
 _symmetry_equiv_pos_as_xyz
  1  'x, y, z'
loop_
 _atom_site_type_symbol
 _atom_site_label
 _atom_site_symmetry_multiplicity
 _atom_site_fract_x
 _atom_site_fract_y
 _atom_site_fract_z
 _atom_site_occupancy
  Fe  Fe1  1  0.50188200  0.00962700  0.77601400  1
  Fe  Fe2  1  0.49620700  0.98878400  0.22474400  1
  H  H1  1  0.22949300  0.99792100  0.77066900  1
  H  H2  1  0.08192800  0.98768300  0.80902100  1
  H  H3  1  0.17617500  0.01299900  0.12245200  1
  H  H4  1  0.82147500  0.98079400  0.87907900  1
  H  H5  1  0.76386700  0.98983400  0.22889900  1
  H  H6  1  0.49330900  0.35131700  0.36162400  1
  H  H7  1  0.48121900  0.88420900  0.47470600  1
  H  H8  1  0.51373100  0.11205700  0.52754700  1
  H  H9  1  0.57924200  0.50906700  0.44912000  1
  H  H10  1  0.41403800  0.48552900  0.54628300  1
  C  C1  1  0.21889700  0.00049600  0.84856300  1
  C  C2  1  0.13578400  0.99558900  0.86975700  1
  C  C3  1  0.12144000  0.00182300  0.96824300  1
  C  C4  1  0.19001500  0.01108000  0.04582100  1
  C  C5  1  0.27430700  0.01524300  0.02580500  1
  C  C6  1  0.28870600  0.01202100  0.92528100  1
  C  C7  1  0.03443900  0.99645300  0.98984200  1
  C  C8  1  0.96147500  0.99160900  0.00857300  1
  C  C9  1  0.80710400  0.98103200  0.95549200  1
  C  C10  1  0.72304800  0.97939600  0.97479600  1
  C  C11  1  0.70810200  0.98171800  0.07490300  1
  C  C12  1  0.77688800  0.98925100  0.15194800  1
  C  C13  1  0.86011500  0.98986900  0.13233400  1
  C  C14  1  0.87508400  0.98566300  0.03297800  1
  C  C15  1  0.47764700  0.17410900  0.69448600  1
  C  C16  1  0.37535100  0.02304000  0.89498300  1
  C  C17  1  0.65475100  0.98210900  0.88899700  1
  C  C18  1  0.49408400  0.83526800  0.66050900  1
  C  C19  1  0.50673200  0.16519000  0.34222900  1
  C  C20  1  0.34349600  0.01551000  0.11148200  1
  C  C21  1  0.62157000  0.97311600  0.10482900  1
  C  C22  1  0.51756700  0.82370800  0.30743600  1
  C  C23  1  0.50523000  0.76650500  0.39253900  1
  C  C24  1  0.52192500  0.67643900  0.39415000  1
  C  C25  1  0.51852600  0.63073300  0.48233900  1
  C  C26  1  0.50666900  0.67935900  0.57109600  1
  C  C27  1  0.49438800  0.77218700  0.56947600  1
  C  C28  1  0.49013400  0.81230200  0.47872200  1
  C  C29  1  0.52591200  0.53035900  0.48018200  1
  C  C30  1  0.46768500  0.46469800  0.51560900  1
  C  C31  1  0.47186500  0.32028500  0.60575500  1
  C  C32  1  0.48921400  0.23045600  0.60883400  1
  C  C33  1  0.50527000  0.18414600  0.52351100  1
  C  C34  1  0.50385000  0.22514500  0.43353500  1
  C  C35  1  0.49347800  0.31780600  0.43145600  1
  C  C36  1  0.47779600  0.36581600  0.51765900  1
  N  N1  1  0.92854600  0.99483400  0.21512800  1
  N  N2  1  0.53784900  0.62933700  0.30408000  1
  N  N3  1  0.51403400  0.63657400  0.66408600  1
  N  N4  1  0.45240200  0.36702700  0.69394800  1
  O  O1  1  0.54301600  0.13736200  0.73156800  1
  O  O2  1  0.43829300  0.09566200  0.93410900  1
  O  O3  1  0.39791000  0.13266900  0.70511700  1
  O  O4  1  0.38514500  0.96945900  0.81658300  1
  O  O5  1  0.57968500  0.00086600  0.90430000  1
  O  O6  1  0.67164100  0.97329700  0.79628300  1
  O  O7  1  0.50307200  0.92669100  0.65090100  1
  O  O8  1  0.48901800  0.80392200  0.74963100  1
  O  O9  1  0.49606200  0.07316800  0.34923100  1
  O  O10  1  0.51349000  0.20057600  0.25517400  1
  O  O11  1  0.41884300  0.99775500  0.09611400  1
  O  O12  1  0.32678000  0.02433100  0.20427300  1
  O  O13  1  0.59763900  0.86325300  0.29620000  1
  O  O14  1  0.61314500  0.02651100  0.18406500  1
  O  O15  1  0.45315100  0.86189000  0.27034400  1
  O  O16  1  0.55742700  0.90186400  0.06525900  1
  O  O17  1  0.91935800  0.02752700  0.30453600  1
  O  O18  1  0.99254900  0.95291200  0.20617600  1
  O  O19  1  0.61031300  0.60081400  0.30309800  1
  O  O20  1  0.48790400  0.63002400  0.21910300  1
  O  O21  1  0.44622000  0.61463400  0.70987600  1
  O  O22  1  0.58383900  0.60606300  0.69463300  1
  O  O23  1  0.37837800  0.39280800  0.69144300  1
  O  O24  1  0.50039900  0.36784900  0.78064700  1
