# generated using pymatgen
data_Fe2H23C56ClO16
_symmetry_space_group_name_H-M   'P 1'
_cell_length_a   13.21890100
_cell_length_b   14.20614100
_cell_length_c   11.50305800
_cell_angle_alpha   95.43540700
_cell_angle_beta   101.60520800
_cell_angle_gamma   101.15857800
_symmetry_Int_Tables_number   1
_chemical_formula_structural   Fe2H23C56ClO16
_chemical_formula_sum   'Fe2 H23 C56 Cl1 O16'
_cell_volume   2055.81786881
_cell_formula_units_Z   1
loop_
 _symmetry_equiv_pos_site_id
 _symmetry_equiv_pos_as_xyz
  1  'x, y, z'
loop_
 _atom_site_type_symbol
 _atom_site_label
 _atom_site_symmetry_multiplicity
 _atom_site_fract_x
 _atom_site_fract_y
 _atom_site_fract_z
 _atom_site_occupancy
  Fe  Fe1  1  0.49532500  0.98605700  0.25287400  1
  Fe  Fe2  1  0.49710400  0.99736900  0.76788000  1
  H  H1  1  0.09023700  0.93609300  0.71506400  1
  H  H2  1  0.90779200  0.92141500  0.69825500  1
  H  H3  1  0.76008100  0.93229700  0.78480200  1
  H  H4  1  0.23660100  0.06987200  0.23154900  1
  H  H5  1  0.89851300  0.04482900  0.30683400  1
  H  H6  1  0.71718500  0.60790300  0.00824200  1
  H  H7  1  0.56847300  0.63465100  0.09551500  1
  H  H8  1  0.38765100  0.59736100  0.96983800  1
  H  H9  1  0.68633600  0.54815800  0.79374700  1
  H  H10  1  0.35626900  0.53569700  0.75566400  1
  H  H11  1  0.50235200  0.35694200  0.74663500  1
  H  H12  1  0.50756500  0.69907200  0.70261900  1
  H  H13  1  0.48565600  0.28416900  0.31829600  1
  H  H14  1  0.49227700  0.62653800  0.27457300  1
  H  H15  1  0.30802900  0.43543800  0.22695600  1
  H  H16  1  0.63811100  0.44752800  0.26594800  1
  H  H17  1  0.27753600  0.37550900  0.01257400  1
  H  H18  1  0.42643400  0.34850700  0.92579000  1
  H  H19  1  0.60709500  0.38574100  0.05185700  1
  H  H20  1  0.18581300  0.01167600  0.42769700  1
  H  H21  1  0.23327800  0.10601200  0.62878000  1
  H  H22  1  0.06733100  0.31590400  0.49601500  1
  H  H23  1  0.02204300  0.22414300  0.29437000  1
  C  C1  1  0.20874500  0.97475900  0.87880400  1
  C  C2  1  0.10630100  0.95635000  0.81093800  1
  C  C3  1  0.02272800  0.96352500  0.86373300  1
  C  C4  1  0.92176100  0.94363100  0.79365700  1
  C  C5  1  0.83737700  0.95098300  0.84422200  1
  C  C6  1  0.22561100  0.99981800  0.00273600  1
  C  C7  1  0.14119400  0.01084400  0.05481100  1
  C  C8  1  0.03956400  0.99148300  0.98520600  1
  C  C9  1  0.95474400  0.99963100  0.03684400  1
  C  C10  1  0.85296300  0.97922600  0.96661600  1
  C  C11  1  0.76762300  0.98591800  0.01862500  1
  C  C12  1  0.15804900  0.04555600  0.17556700  1
  C  C13  1  0.07465300  0.05793800  0.22633800  1
  C  C14  1  0.97173700  0.02964400  0.15821300  1
  C  C15  1  0.88604400  0.02905500  0.21090300  1
  C  C16  1  0.78346900  0.00631700  0.14288000  1
  C  C17  1  0.69580300  0.00546800  0.20622500  1
  C  C18  1  0.50321600  0.81108200  0.33893600  1
  C  C19  1  0.33026100  0.01088300  0.08073200  1
  C  C20  1  0.48129800  0.13335400  0.41731400  1
  C  C21  1  0.51175300  0.84995500  0.60365800  1
  C  C22  1  0.66285200  0.97359700  0.94048800  1
  C  C23  1  0.49110500  0.17225500  0.68199100  1
  C  C24  1  0.29542600  0.96895200  0.81570200  1
  C  C25  1  0.63781800  0.59134000  0.95291000  1
  C  C26  1  0.49299200  0.24861700  0.60273500  1
  C  C27  1  0.55435100  0.60652000  0.00179800  1
  C  C28  1  0.45304200  0.58542200  0.93134000  1
  C  C29  1  0.62036300  0.55702500  0.83287500  1
  C  C30  1  0.51927800  0.53700200  0.76182800  1
  C  C31  1  0.43530600  0.54999000  0.81150700  1
  C  C32  1  0.49915000  0.34307000  0.65218500  1
  C  C33  1  0.49990500  0.41803200  0.58235500  1
  C  C34  1  0.50372400  0.51216800  0.63211600  1
  C  C35  1  0.49960200  0.58527800  0.55990100  1
  C  C36  1  0.50211800  0.67912000  0.60852800  1
  C  C37  1  0.50256800  0.75327600  0.53985600  1
  C  C38  1  0.49087000  0.23006000  0.48110200  1
  C  C39  1  0.49139500  0.30420400  0.41243800  1
  C  C40  1  0.49431200  0.39811200  0.46116200  1
  C  C41  1  0.49039300  0.47125400  0.38899200  1
  C  C42  1  0.49422000  0.56538600  0.43875300  1
  C  C43  1  0.49518700  0.64036700  0.36896000  1
  C  C44  1  0.37409100  0.42647700  0.18804000  1
  C  C45  1  0.47507900  0.44645000  0.25931200  1
  C  C46  1  0.55915600  0.43330000  0.20991700  1
  C  C47  1  0.35683400  0.39204700  0.06806700  1
  C  C48  1  0.44040300  0.37672500  0.01945800  1
  C  C49  1  0.50108000  0.73478000  0.41831300  1
  C  C50  1  0.54162300  0.39779000  0.09013500  1
  C  C51  1  0.09893900  0.11060900  0.34818600  1
  C  C52  1  0.15950300  0.07840500  0.44217100  1
  C  C53  1  0.18584000  0.13097400  0.55525300  1
  C  C54  1  0.15222500  0.21585200  0.57482800  1
  C  C55  1  0.09284800  0.24880800  0.48106300  1
  C  C56  1  0.06685700  0.19671000  0.36790700  1
  Cl  Cl1  1  0.18594800  0.28229400  0.71848800  1
  O  O1  1  0.59665300  0.98795800  0.14728100  1
  O  O2  1  0.51878500  0.79298400  0.23069500  1
  O  O3  1  0.71687300  0.01947700  0.32380000  1
  O  O4  1  0.48733300  0.89652300  0.37417800  1
  O  O5  1  0.34974000  0.94321900  0.14689300  1
  O  O6  1  0.40055600  0.09254200  0.09444000  1
  O  O7  1  0.54230200  0.12092000  0.34238100  1
  O  O8  1  0.40115000  0.06326700  0.41949600  1
  O  O9  1  0.45117100  0.86206900  0.67930700  1
  O  O10  1  0.59130200  0.92040300  0.60064900  1
  O  O11  1  0.64238400  0.04116400  0.87456800  1
  O  O12  1  0.59347800  0.89134700  0.92673500  1
  O  O13  1  0.27266500  0.94299300  0.69929000  1
  O  O14  1  0.50516400  0.08626500  0.64589200  1
  O  O15  1  0.39517900  0.99563000  0.87286200  1
  O  O16  1  0.47720300  0.19070100  0.79092400  1
