# Generated by REPEAT Assigner based on pymatgen
data_DB0-m2_o11_o22_f0_pcu.sym.9
_audit_creation_date              2022-05-24
_audit_creation_method            REPEAT_Assigner
_cell_length_a                    10.719987
_cell_length_b                    11.044979
_cell_length_c                    9.581820
_cell_angle_alpha                 90.020527
_cell_angle_beta                  90.011494
_cell_angle_gamma                 90.006265
_cell_volume                      1134.506818
_symmetry_space_group_name_H-M    P1
_symmetry_Int_Tables_number       1
loop_
    _symmetry_equiv_pos_site_id
    _symmetry_equiv_pos_as_xyz
    1  x,y,z
loop_
    _atom_site_type_symbol
    _atom_site_label
    _atom_site_fract_x
    _atom_site_fract_y
    _atom_site_fract_z
    _atom_type_partial_charge
    O   O1   0.502998  0.326870  0.622485  -0.611933
    O   O2   0.506769  0.323828  0.382883  -0.531557
    C   C1   0.504440  0.269079  0.503504  0.654877
    O   O3   0.317647  0.499898  0.620711  -0.433830
    O   O4   0.317304  0.491612  0.381959  -0.532351
    C   C2   0.258231  0.497860  0.501381  0.336104
    Cu  Cu1  0.498206  0.503200  0.641601  0.981584
    Cu  Cu2  0.499995  0.499359  0.362424  0.931204
    O   O5   0.502170  0.678956  0.621488  -0.678675
    O   O6   0.497638  0.675962  0.381420  -0.635194
    O   O7   0.679904  0.500124  0.623066  -0.548187
    O   O8   0.679847  0.500194  0.383034  -0.548608
    C   C3   0.498354  0.734458  0.501257  0.763042
    C   C4   0.738461  0.504230  0.502857  0.513187
    C   C5   0.064135  0.381311  0.570351  -0.286294
    C   C6   0.925974  0.398395  0.593552  -0.047108
    H   H1   0.909200  0.419022  0.705928  0.093698
    C   C7   0.069926  0.610123  0.578149  -0.134626
    C   C8   0.067109  0.503431  0.351480  -0.075621
    C   C9   0.117266  0.497102  0.501925  0.621662
    H   H2   0.106086  0.430325  0.285551  0.111298
    C   C10  0.877941  0.502498  0.502370  0.399245
    C   C11  0.929563  0.621379  0.559518  -0.057889
    C   C12  0.925890  0.492699  0.351505  -0.185995
    H   H3   0.889953  0.569729  0.287651  0.104536
    H   H4   0.116333  0.691346  0.535373  0.080138
    H   H5   0.910537  0.692638  0.480669  0.063570
    C   C13  0.502521  0.936228  0.389105  -0.023510
    C   C14  0.501289  0.867669  0.505030  -0.326448
    H   H6   0.501720  0.894062  0.287278  0.106900
    H   H7   0.502080  0.907150  0.609105  0.169225
    C   C15  0.502361  0.070571  0.390306  0.066234
    C   C16  0.508002  0.136789  0.507569  -0.253438
    H   H8   0.495984  0.115824  0.289241  0.068823
    H   H9   0.515223  0.096540  0.610264  0.140395
    C   C17  0.438959  0.422901  0.921344  0.108230
    N   N1   0.498156  0.503526  0.850352  -0.415071
    H   H10  0.391396  0.351464  0.865330  0.115015
    H   H11  0.532487  0.577481  0.902519  0.313520
    C   C18  0.431596  0.425109  0.076871  0.205389
    N   N2   0.497776  0.496659  0.153564  -0.376096
    H   H12  0.572326  0.539609  0.105218  0.266983
    Cl  Cl1  0.133698  0.343136  0.732543  -0.078696
    Cl  Cl2  0.326480  0.320195  0.151274  -0.025394
    Cl  Cl3  0.089205  0.252123  0.461252  0.003922
    Cl  Cl4  0.844800  0.260213  0.561897  -0.065529
    Cl  Cl5  0.105232  0.612851  0.760522  -0.096773
    Cl  Cl6  0.863669  0.662477  0.723134  -0.087767
    Cl  Cl7  0.107591  0.641900  0.267385  -0.074887
    Cl  Cl8  0.880995  0.356445  0.266637  -0.087302
