# Generated by REPEAT Assigner based on pymatgen
data_DB0-m29_o99_o51_f0_pts.sym.29
_audit_creation_date              2022-05-24
_audit_creation_method            REPEAT_Assigner
_cell_length_a                    15.814765
_cell_length_b                    9.304299
_cell_length_c                    18.393059
_cell_angle_alpha                 90.075541
_cell_angle_beta                  100.137384
_cell_angle_gamma                 97.475802
_cell_volume                      2640.741319
_symmetry_space_group_name_H-M    P1
_symmetry_Int_Tables_number       1
loop_
    _symmetry_equiv_pos_site_id
    _symmetry_equiv_pos_as_xyz
    1  x,y,z
loop_
    _atom_site_type_symbol
    _atom_site_label
    _atom_site_fract_x
    _atom_site_fract_y
    _atom_site_fract_z
    _atom_type_partial_charge
    C   C1   0.209473  0.993905  0.881184  -0.215307
    H   H1   0.218655  0.981515  0.824799  0.181017
    C   C2   0.126947  0.991863  0.896852  0.049579
    C   C3   0.117461  0.013361  0.969587  0.175587
    C   C4   0.189530  0.034664  0.024641  -0.152344
    H   H2   0.179567  0.046116  0.080858  0.162873
    C   C5   0.272137  0.036673  0.009118  -0.035673
    C   C6   0.281886  0.019202  0.936024  0.095154
    C   C7   0.033930  0.006748  0.990927  -0.096670
    C   C8   0.963679  0.000851  0.008486  -0.156699
    C   C9   0.807175  0.977261  0.973854  -0.259197
    H   H3   0.816617  0.974284  0.917158  0.227754
    C   C10  0.724983  0.969396  0.991124  0.071295
    C   C11  0.716032  0.973367  0.065392  -0.069957
    C   C12  0.789834  0.987860  0.120372  0.048974
    C   C13  0.871041  0.000191  0.101189  -0.274246
    H   H4   0.928778  0.010158  0.143160  0.186245
    C   C14  0.879436  0.993015  0.028304  0.374346
    O   O1   0.531976  0.194429  0.802477  -0.585505
    C   C15  0.492380  0.215103  0.735130  0.585721
    O   O2   0.424710  0.145408  0.936181  -0.462887
    O   O3   0.440993  0.108872  0.696860  -0.518273
    O   O4   0.381746  0.941560  0.864264  -0.567375
    C   C16  0.366806  0.032894  0.913503  0.564052
    Fe  Fe1  0.498135  0.999971  0.839848  1.396222
    O   O5   0.573696  0.985865  0.938662  -0.416466
    O   O6   0.665998  0.956551  0.861064  -0.498970
    C   C17  0.651562  0.965974  0.928895  0.520466
    O   O7   0.508930  0.871686  0.755061  -0.457446
    O   O8   0.510621  0.713964  0.848608  -0.448754
    C   C18  0.512199  0.739030  0.778635  0.508277
    O   O9   0.490586  0.130121  0.245167  -0.516568
    O   O10  0.490894  0.288527  0.152018  -0.466240
    C   C19  0.489013  0.263259  0.221931  0.566227
    O   O11  0.421294  0.012905  0.062324  -0.460961
    O   O12  0.331495  0.063291  0.139033  -0.515245
    C   C20  0.345228  0.043767  0.071634  0.587593
    O   O13  0.560256  0.893619  0.303104  -0.471326
    O   O14  0.614473  0.059572  0.133073  -0.564857
    C   C21  0.630471  0.963066  0.086796  0.598067
    O   O15  0.467234  0.806724  0.198760  -0.646095
    C   C22  0.508456  0.786852  0.265631  0.652259
    O   O16  0.573037  0.848899  0.066256  -0.448418
    Fe  Fe2  0.499422  0.000788  0.160096  1.448956
    C   C23  0.510667  0.617361  0.727205  0.103862
    C   C24  0.504715  0.638072  0.652100  -0.254509
    H   H5   0.505515  0.746183  0.630605  0.172578
    C   C25  0.497379  0.520852  0.603808  0.269653
    C   C26  0.491752  0.381689  0.630941  -0.256205
    H   H6   0.480372  0.287572  0.594525  0.163401
    C   C27  0.499812  0.361210  0.705893  0.128087
    C   C28  0.510856  0.478804  0.753888  -0.187855
    C   C29  0.491522  0.548150  0.524273  -0.164951
    C   C30  0.511482  0.453961  0.476671  -0.160873
    C   C31  0.497759  0.364074  0.348734  -0.221789
    H   H7   0.497019  0.255927  0.370181  0.158150
    C   C32  0.491302  0.384867  0.273587  0.070825
    C   C33  0.490886  0.523402  0.246986  -0.165201
    C   C34  0.502142  0.640916  0.295031  0.092782
    C   C35  0.510858  0.620468  0.370003  -0.238691
    H   H8   0.522349  0.714619  0.406404  0.146714
    C   C36  0.505439  0.481280  0.397117  0.257341
    H   H9   0.514828  0.460835  0.812319  0.169281
    H   H10  0.486295  0.541401  0.188507  0.181343
    H   H11  0.470719  0.649920  0.505290  0.138936
    H   H12  0.532242  0.352149  0.495643  0.143790
    N   N1   0.053956  0.968095  0.837679  0.580551
    O   O17  0.979145  0.004747  0.844633  -0.358533
    O   O18  0.064394  0.922181  0.773456  -0.367207
    N   N2   0.783561  0.985076  0.197024  0.637104
    O   O19  0.848092  0.047131  0.245343  -0.373061
    O   O20  0.724006  0.895673  0.219873  -0.360705
