# generated using pymatgen
data_Cu2H33C62N4O12F7
_symmetry_space_group_name_H-M   'P 1'
_cell_length_a   27.57672200
_cell_length_b   14.43516300
_cell_length_c   15.85807200
_cell_angle_alpha   90.00000000
_cell_angle_beta   89.99527700
_cell_angle_gamma   90.00000000
_symmetry_Int_Tables_number   1
_chemical_formula_structural   Cu2H33C62N4O12F7
_chemical_formula_sum   'Cu2 H33 C62 N4 O12 F7'
_cell_volume   6312.69369738
_cell_formula_units_Z   1
loop_
 _symmetry_equiv_pos_site_id
 _symmetry_equiv_pos_as_xyz
  1  'x, y, z'
loop_
 _atom_site_type_symbol
 _atom_site_label
 _atom_site_symmetry_multiplicity
 _atom_site_fract_x
 _atom_site_fract_y
 _atom_site_fract_z
 _atom_site_occupancy
  Cu  Cu1  1  0.50082100  0.40618600  0.49830700  1
  Cu  Cu2  1  0.50043500  0.59154300  0.49879900  1
  H  H1  1  0.65271900  0.35576900  0.46485600  1
  H  H2  1  0.74096200  0.35419400  0.46419000  1
  H  H3  1  0.87962500  0.52453200  0.70531100  1
  H  H4  1  0.25854800  0.64022100  0.53032200  1
  H  H5  1  0.12121100  0.55468900  0.69931200  1
  H  H6  1  0.03653000  0.55563100  0.70248000  1
  H  H7  1  0.96433800  0.52328200  0.70834700  1
  H  H8  1  0.74325400  0.63951100  0.53251000  1
  H  H9  1  0.87921800  0.46520100  0.29035600  1
  H  H10  1  0.03629400  0.43527400  0.29214200  1
  H  H11  1  0.12099700  0.43778300  0.29462600  1
  H  H12  1  0.25899700  0.35464200  0.46284700  1
  H  H13  1  0.96393500  0.46656100  0.28679400  1
  H  H14  1  0.43872700  0.40607700  0.07374500  1
  H  H15  1  0.43395000  0.57805300  0.06559900  1
  H  H16  1  0.43368700  0.41990100  0.93217800  1
  H  H17  1  0.43854100  0.59178500  0.92398000  1
  H  H18  1  0.49710200  0.64732600  0.93114200  1
  H  H19  1  0.48809800  0.35071200  0.92445800  1
  H  H20  1  0.48844500  0.64710000  0.07274300  1
  H  H21  1  0.49724600  0.35044000  0.06596100  1
  H  H22  1  0.56849200  0.42862300  0.93155500  1
  H  H23  1  0.57263300  0.55320900  0.92342400  1
  H  H24  1  0.57284100  0.44438700  0.07299400  1
  H  H25  1  0.56875100  0.56899700  0.06490400  1
  H  H26  1  0.55864100  0.92045100  0.58450700  1
  H  H27  1  0.55834300  0.07605700  0.58524900  1
  H  H28  1  0.57638700  0.92044200  0.47514800  1
  H  H29  1  0.57690000  0.07683300  0.47629800  1
  H  H30  1  0.42566700  0.92092800  0.54534400  1
  H  H31  1  0.42572500  0.07736700  0.54347400  1
  H  H32  1  0.47250300  0.92204400  0.62456200  1
  H  H33  1  0.47199500  0.07770300  0.62368800  1
  C  C1  1  0.50030000  0.49840400  0.66038600  1
  C  C2  1  0.59392400  0.49953800  0.49909700  1
  C  C3  1  0.50092600  0.49932600  0.33674700  1
  C  C4  1  0.40724700  0.49818300  0.49776400  1
  C  C5  1  0.82372000  0.50715200  0.57082100  1
  C  C6  1  0.82355800  0.48325200  0.42510700  1
  C  C7  1  0.72324200  0.57722400  0.51761500  1
  C  C8  1  0.67325700  0.57908800  0.51763900  1
  C  C9  1  0.67200900  0.41875900  0.47996200  1
  C  C10  1  0.72199100  0.41764900  0.47905000  1
  C  C11  1  0.74773700  0.49678400  0.49808900  1
  C  C12  1  0.89938100  0.49490700  0.49775800  1
  C  C13  1  0.87388500  0.50676100  0.57157200  1
  C  C14  1  0.89858600  0.51708300  0.64609300  1
  C  C15  1  0.87373400  0.48307500  0.42410100  1
  C  C16  1  0.64721300  0.49951500  0.49881200  1
  C  C17  1  0.35378400  0.49786500  0.49700200  1
  C  C18  1  0.02571800  0.51335800  0.57163500  1
  C  C19  1  0.02561100  0.47748800  0.42303200  1
  C  C20  1  0.05066300  0.49563100  0.49723600  1
  C  C21  1  0.05246100  0.53588600  0.64339300  1
  C  C22  1  0.10217900  0.53695600  0.64200900  1
  C  C23  1  0.12678200  0.51638800  0.56914600  1
  C  C24  1  0.10116800  0.49609800  0.49703200  1
  C  C25  1  0.12670100  0.47630900  0.42471000  1
  C  C26  1  0.17687800  0.47712800  0.42527400  1
  C  C27  1  0.17695400  0.51653900  0.56818300  1
  C  C28  1  0.27805700  0.57730600  0.51563800  1
  C  C29  1  0.32804800  0.57791500  0.51588200  1
  C  C30  1  0.32830600  0.41757500  0.47779500  1
  C  C31  1  0.27831000  0.41778300  0.47750800  1
  C  C32  1  0.25298400  0.49742400  0.49649000  1
  C  C33  1  0.97494500  0.50904700  0.57252900  1
  C  C34  1  0.94988300  0.49500900  0.49759800  1
  C  C35  1  0.97481600  0.48114300  0.42250500  1
  C  C36  1  0.94831000  0.51775100  0.64687200  1
  C  C37  1  0.89830100  0.47262900  0.34945100  1
  C  C38  1  0.05228300  0.45535700  0.35108200  1
  C  C39  1  0.10201300  0.45520900  0.35206300  1
  C  C40  1  0.94803000  0.47210000  0.34836200  1
  C  C41  1  0.47226800  0.41486800  0.95131500  1
  C  C42  1  0.47555700  0.58615000  0.95077800  1
  C  C43  1  0.47247600  0.58297300  0.04606600  1
  C  C44  1  0.47566200  0.41166000  0.04656600  1
  C  C45  1  0.50050000  0.49952500  0.24628300  1
  C  C46  1  0.49974900  0.49857000  0.91903000  1
  C  C47  1  0.50000800  0.49919300  0.07809500  1
  C  C48  1  0.55172300  0.50260100  0.04591300  1
  C  C49  1  0.55156300  0.49504900  0.95070600  1
  C  C50  1  0.50022000  0.49947000  0.17031500  1
  C  C51  1  0.49969100  0.49827200  0.82681900  1
  C  C52  1  0.49984500  0.49820200  0.75085100  1
  C  C53  1  0.48572100  0.94626100  0.40946100  1
  C  C54  1  0.48628400  0.05112600  0.40902700  1
  C  C55  1  0.54904700  0.94613200  0.52075200  1
  C  C56  1  0.54916600  0.05098800  0.52111000  1
  C  C57  1  0.49897100  0.91145900  0.49685200  1
  C  C58  1  0.49933800  0.08626500  0.49639300  1
  C  C59  1  0.46241200  0.05178500  0.56000600  1
  C  C60  1  0.46244900  0.94688200  0.56073800  1
  C  C61  1  0.49966200  0.18758700  0.49630800  1
  C  C62  1  0.49892500  0.81013500  0.49723000  1
  N  N1  1  0.79941400  0.49546700  0.49801400  1
  N  N2  1  0.20122600  0.49707800  0.49663100  1
  N  N3  1  0.50001500  0.26772800  0.49654000  1
  N  N4  1  0.49911800  0.72999300  0.49765400  1
  O  O1  1  0.49909100  0.41893200  0.62087200  1
  O  O2  1  0.49858500  0.57807100  0.62128400  1
  O  O3  1  0.57126300  0.41988900  0.49590300  1
  O  O4  1  0.57092400  0.57883000  0.49671800  1
  O  O5  1  0.49940400  0.41946700  0.37578200  1
  O  O6  1  0.49924300  0.57894200  0.37619700  1
  O  O7  1  0.43033200  0.41881600  0.49540000  1
  O  O8  1  0.43000100  0.57791700  0.49557000  1
  O  O9  1  0.79891500  0.51769800  0.64313300  1
  O  O10  1  0.20173300  0.53410600  0.63938100  1
  O  O11  1  0.79859900  0.47311000  0.35291800  1
  O  O12  1  0.20157600  0.45997900  0.35390000  1
  F  F1  1  0.35157500  0.33790600  0.45756500  1
  F  F2  1  0.52006400  0.08198600  0.35108000  1
  F  F3  1  0.51878100  0.91352200  0.35111000  1
  F  F4  1  0.43996000  0.91523900  0.38784200  1
  F  F5  1  0.44100800  0.08370000  0.38624000  1
  F  F6  1  0.35111000  0.65760500  0.53674300  1
  F  F7  1  0.65051600  0.65921900  0.53815400  1
