# Generated by REPEAT Assigner based on pymatgen
data_DB0-m3_o14_o18_f0_pcu.sym.2_sqe
_audit_creation_date              2022-05-24
_audit_creation_method            REPEAT_Assigner
_cell_length_a                    9.825546
_cell_length_b                    10.985661
_cell_length_c                    16.002726
_cell_angle_alpha                 89.997892
_cell_angle_beta                  72.298592
_cell_angle_gamma                 90.000209
_cell_volume                      1645.553737
_symmetry_space_group_name_H-M    P1
_symmetry_Int_Tables_number       1
loop_
    _symmetry_equiv_pos_site_id
    _symmetry_equiv_pos_as_xyz
    1  x,y,z
loop_
    _atom_site_type_symbol
    _atom_site_label
    _atom_site_fract_x
    _atom_site_fract_y
    _atom_site_fract_z
    _atom_type_partial_charge
    O   O1   0.389134  0.684537  0.491273  -0.558741
    O   O2   0.622315  0.685409  0.487541  -0.689978
    C   C1   0.506517  0.743227  0.485280  0.710723
    O   O3   0.321041  0.512756  0.630429  -0.693970
    O   O4   0.554150  0.514678  0.628545  -0.683579
    C   C2   0.417948  0.516996  0.670894  0.770123
    Zn  Zn1  0.346488  0.504090  0.500039  0.984048
    Zn  Zn2  0.656766  0.504560  0.498136  1.069250
    O   O5   0.381035  0.323307  0.506526  -0.543014
    O   O6   0.616682  0.322885  0.506448  -0.649333
    O   O7   0.447192  0.492653  0.369459  -0.647456
    O   O8   0.684292  0.490383  0.367733  -0.651085
    C   C3   0.496027  0.265501  0.510615  0.687797
    C   C4   0.585129  0.488117  0.327696  0.707744
    C   C5   0.372367  0.523198  0.767154  -0.129170
    C   C6   0.630268  0.478310  0.231579  -0.081603
    C   C7   0.189647  0.552279  0.902296  -0.291360
    C   C8   0.231257  0.544712  0.812511  -0.009511
    C   C9   0.470781  0.507438  0.812584  -0.132342
    C   C10  0.429322  0.511556  0.904284  0.013993
    C   C11  0.287265  0.535948  0.947685  0.262773
    C   C12  0.524771  0.492778  0.953662  0.058911
    C   C13  0.476221  0.502605  0.045380  0.057275
    C   C14  0.332407  0.528626  0.085608  -0.175323
    C   C15  0.240324  0.544343  0.037260  -0.257775
    C   C16  0.667484  0.462784  0.913626  -0.181227
    C   C17  0.759242  0.445534  0.962033  -0.254430
    C   C18  0.713264  0.457414  0.051429  0.246629
    C   C19  0.572164  0.485543  0.094652  0.019165
    C   C20  0.810706  0.440223  0.096861  -0.260300
    C   C21  0.770041  0.451140  0.186476  -0.068230
    C   C22  0.532241  0.495590  0.186064  -0.131782
    H   H1   0.129347  0.563920  0.070879  0.139434
    H   H2   0.425820  0.518611  0.224653  0.098314
    H   H3   0.848426  0.436608  0.220399  0.098884
    H   H4   0.869223  0.422203  0.928612  0.142496
    H   H5   0.079017  0.571184  0.937245  0.135155
    H   H6   0.152582  0.557879  0.778625  0.070502
    H   H7   0.579143  0.492129  0.773613  0.106171
    H   H8   0.284345  0.536750  0.155162  0.139406
    H   H9   0.714011  0.449848  0.844328  0.136931
    H   H10  0.920375  0.417625  0.062091  0.133178
    H   H11  0.721213  0.894755  0.483809  0.104029
    C   C23  0.265730  0.895783  0.464367  -0.139228
    H   H12  0.276252  0.815133  0.424659  0.109040
    C   C24  0.136060  0.954214  0.485784  -0.322316
    H   H13  0.048219  0.914504  0.467818  0.147083
    C   C25  0.116694  0.059513  0.533747  0.419390
    C   C26  0.232212  0.114276  0.549526  -0.488042
    H   H14  0.212772  0.194648  0.589972  0.176047
    C   C27  0.368221  0.064322  0.516890  0.260050
    C   C28  0.379589  0.944531  0.488135  0.084720
    C   C29  0.503967  0.878477  0.483208  -0.160887
    C   C30  0.622449  0.941793  0.488896  -0.092101
    H   H15  0.716082  0.114152  0.494671  0.101246
    C   C31  0.618683  0.066820  0.497806  -0.097088
    C   C32  0.492057  0.130160  0.512793  -0.177162
    H   H16  0.922424  0.364772  0.409077  0.160078
    C   C33  0.810921  0.672111  0.603788  -0.213196
    H   H17  0.702126  0.678904  0.606521  0.195687
    C   C34  0.853461  0.752980  0.656092  -0.076049
    H   H18  0.777958  0.817143  0.696122  0.100597
    C   C35  0.991347  0.752087  0.657312  0.000113
    H   H19  0.026045  0.815511  0.698327  0.074035
    C   C36  0.085910  0.670326  0.606207  -0.135337
    H   H20  0.191033  0.675456  0.610869  0.152331
    C   C37  0.045566  0.587126  0.552528  0.174763
    C   C38  0.904659  0.587990  0.551259  0.201534
    N   N1   0.860234  0.508355  0.499830  -0.135213
    C   C39  0.955675  0.428930  0.450236  -0.064679
    H   H21  0.170896  0.363911  0.410798  0.091896
    C   C40  0.096390  0.428239  0.451396  0.106035
    N   N2   0.141158  0.506735  0.502313  -0.166473
    C   C41  0.973376  0.117781  0.563134  -0.396840
    H   H22  0.893810  0.051835  0.602202  0.108655
    H   H23  0.974622  0.199263  0.603726  0.091703
    H   H24  0.943826  0.145950  0.504492  0.106885
