# generated using pymatgen
data_VH9C16O11
_symmetry_space_group_name_H-M   'P 1'
_cell_length_a   20.48395000
_cell_length_b   6.75802500
_cell_length_c   19.96768300
_cell_angle_alpha   90.00000000
_cell_angle_beta   101.98864600
_cell_angle_gamma   90.00000000
_symmetry_Int_Tables_number   1
_chemical_formula_structural   VH9C16O11
_chemical_formula_sum   'V4 H36 C64 O44'
_cell_volume   2703.85783043
_cell_formula_units_Z   4
loop_
 _symmetry_equiv_pos_site_id
 _symmetry_equiv_pos_as_xyz
  1  'x, y, z'
loop_
 _atom_site_type_symbol
 _atom_site_label
 _atom_site_symmetry_multiplicity
 _atom_site_fract_x
 _atom_site_fract_y
 _atom_site_fract_z
 _atom_site_occupancy
  V  V1  1  0.49781600  0.89592400  0.48852800  1
  V  V2  1  0.50218400  0.39592400  0.51147200  1
  V  V3  1  0.00153500  0.36053800  0.00856400  1
  V  V4  1  0.99846500  0.86053800  0.99143600  1
  H  H1  1  0.84410400  0.87098300  0.82173500  1
  H  H2  1  0.15589600  0.37098300  0.17826500  1
  H  H3  1  0.81817700  0.45721300  0.88547500  1
  H  H4  1  0.18182300  0.95721300  0.11452400  1
  H  H5  1  0.72141900  0.49873100  0.79282800  1
  H  H6  1  0.27858100  0.99873100  0.20717200  1
  H  H7  1  0.67509000  0.79350500  0.62076500  1
  H  H8  1  0.32491000  0.29350500  0.37923400  1
  H  H9  1  0.20534300  0.81885600  0.78381000  1
  H  H10  1  0.79465700  0.31885600  0.21619000  1
  H  H11  1  0.34097400  0.89788400  0.77222900  1
  H  H12  1  0.65902600  0.39788400  0.22777100  1
  H  H13  1  0.27289000  0.79844900  0.70958300  1
  H  H14  1  0.72711000  0.29844900  0.29041700  1
  H  H15  1  0.13232800  0.01910000  0.70553700  1
  H  H16  1  0.86767200  0.51909900  0.29446200  1
  H  H17  1  0.20893600  0.28100900  0.63519200  1
  H  H18  1  0.79106400  0.78100900  0.36480800  1
  H  H19  1  0.22892900  0.44637700  0.79095900  1
  H  H20  1  0.77107100  0.94637800  0.20904100  1
  H  H21  1  0.29756700  0.42677600  0.71827400  1
  H  H22  1  0.70243300  0.92677600  0.28172600  1
  H  H23  1  0.19877900  0.01509900  0.62866400  1
  H  H24  1  0.80122000  0.51509900  0.37133600  1
  H  H25  1  0.35745700  0.98880600  0.94085300  1
  H  H26  1  0.64254200  0.48880600  0.05914600  1
  H  H27  1  0.12407300  0.62586700  0.69802300  1
  H  H28  1  0.87592700  0.12586700  0.30197700  1
  H  H29  1  0.86442100  0.53861200  0.74021600  1
  H  H30  1  0.13557900  0.03861200  0.25978300  1
  H  H31  1  0.54890800  0.55493900  0.67375200  1
  H  H32  1  0.45109200  0.05493900  0.32624800  1
  H  H33  1  0.44647900  0.12674400  0.84757400  1
  H  H34  1  0.55352100  0.62674400  0.15242600  1
  H  H35  1  0.38167600  0.32115500  0.93767300  1
  H  H36  1  0.61832400  0.82115500  0.06232700  1
  C  C1  1  0.58548000  0.61428400  0.42844300  1
  C  C2  1  0.41451900  0.11428400  0.57155700  1
  C  C3  1  0.40040300  0.61085800  0.40614900  1
  C  C4  1  0.59959600  0.11085800  0.59385100  1
  C  C5  1  0.83657100  0.16120400  0.85769600  1
  C  C6  1  0.16342800  0.66120400  0.14230300  1
  C  C7  1  0.65599800  0.08632000  0.65088600  1
  C  C8  1  0.34400200  0.58632000  0.34911400  1
  C  C9  1  0.74551400  0.88350000  0.70956900  1
  C  C10  1  0.25448500  0.38350000  0.29043100  1
  C  C11  1  0.69039300  0.91022600  0.65770700  1
  C  C12  1  0.30960600  0.41022600  0.34229300  1
  C  C13  1  0.67566500  0.23786200  0.69675900  1
  C  C14  1  0.32433400  0.73786200  0.30324100  1
  C  C15  1  0.73018600  0.21160100  0.74973600  1
  C  C16  1  0.26981300  0.71160100  0.25026400  1
  C  C17  1  0.76488200  0.03380600  0.75701800  1
  C  C18  1  0.23511700  0.53380600  0.24298200  1
  C  C19  1  0.81728600  0.00822300  0.81251100  1
  C  C20  1  0.18271400  0.50822300  0.18748800  1
  C  C21  1  0.80276600  0.33785300  0.84963800  1
  C  C22  1  0.19723400  0.83785300  0.15036200  1
  C  C23  1  0.74874600  0.36155900  0.79674600  1
  C  C24  1  0.25125400  0.86155900  0.20325400  1
  C  C25  1  0.25687200  0.30528400  0.79988400  1
  C  C26  1  0.74312800  0.80528400  0.20011600  1
  C  C27  1  0.24323800  0.93802900  0.79534500  1
  C  C28  1  0.75676200  0.43802900  0.20465500  1
  C  C29  1  0.28898500  0.92435800  0.74475800  1
  C  C30  1  0.71101500  0.42435800  0.25524100  1
  C  C31  1  0.36755100  0.10223200  0.61604500  1
  C  C32  1  0.63244800  0.60223200  0.38395500  1
  C  C33  1  0.20731000  0.13572100  0.78750900  1
  C  C34  1  0.79269000  0.63572100  0.21249100  1
  C  C35  1  0.30344900  0.29080300  0.75005400  1
  C  C36  1  0.69655100  0.79080300  0.24994600  1
  C  C37  1  0.28441000  0.11371700  0.70323400  1
  C  C38  1  0.71558900  0.61371700  0.29676600  1
  C  C39  1  0.21305400  0.14057800  0.66450500  1
  C  C40  1  0.78694600  0.64057800  0.33549500  1
  C  C41  1  0.16671300  0.14756900  0.71478800  1
  C  C42  1  0.83328700  0.64756900  0.28521200  1
  C  C43  1  0.32943100  0.10311100  0.65483200  1
  C  C44  1  0.67056900  0.60311100  0.34516800  1
  C  C45  1  0.16264200  0.14697500  0.83624400  1
  C  C46  1  0.83735700  0.64697500  0.16375600  1
  C  C47  1  0.12562600  0.15018000  0.87613800  1
  C  C48  1  0.87437400  0.65018000  0.12386200  1
  C  C49  1  0.10484500  0.64296500  0.08761400  1
  C  C50  1  0.89515400  0.14296500  0.91238600  1
  C  C51  1  0.91912100  0.64307900  0.07695000  1
  C  C52  1  0.08087900  0.14307900  0.92305000  1
  C  C53  1  0.28194700  0.91013400  0.86665300  1
  C  C54  1  0.71805300  0.41013400  0.13334600  1
  C  C55  1  0.12672600  0.33348200  0.70458500  1
  C  C56  1  0.87327400  0.83348200  0.29541500  1
  C  C57  1  0.78202400  0.69609900  0.71050000  1
  C  C58  1  0.21797600  0.19609900  0.28950000  1
  C  C59  1  0.63701800  0.42216900  0.69111600  1
  C  C60  1  0.36298100  0.92216900  0.30888400  1
  C  C61  1  0.37455400  0.27660100  0.78694700  1
  C  C62  1  0.62544500  0.77660100  0.21305300  1
  C  C63  1  0.29489000  0.30451700  0.87208800  1
  C  C64  1  0.70510900  0.80451700  0.12791200  1
  O  O1  1  0.42408300  0.44333500  0.43700500  1
  O  O2  1  0.57591700  0.94333500  0.56299500  1
  O  O3  1  0.55966500  0.79385100  0.43249100  1
  O  O4  1  0.44033500  0.29385100  0.56750900  1
  O  O5  1  0.42461600  0.79364900  0.41636800  1
  O  O6  1  0.57538400  0.29364900  0.58363100  1
  O  O7  1  0.43169400  0.94352700  0.54598900  1
  O  O8  1  0.56830600  0.44352700  0.45401000  1
  O  O9  1  0.50514800  0.62956500  0.54009200  1
  O  O10  1  0.49485200  0.12956500  0.45990700  1
  O  O11  1  0.93665700  0.81077000  0.05302300  1
  O  O12  1  0.06334300  0.31077000  0.94697600  1
  O  O13  1  0.07832000  0.46750600  0.07530500  1
  O  O14  1  0.92167900  0.96750600  0.92469400  1
  O  O15  1  0.94312400  0.46899500  0.06714900  1
  O  O16  1  0.05687600  0.96899500  0.93285100  1
  O  O17  1  0.92015600  0.30906400  0.93890500  1
  O  O18  1  0.07984300  0.80906400  0.06109500  1
  O  O19  1  0.99361000  0.63409700  0.95783700  1
  O  O20  1  0.00639000  0.13409700  0.04216300  1
  O  O21  1  0.26619300  0.77930800  0.90223800  1
  O  O22  1  0.33684000  0.02898600  0.89223500  1
  O  O23  1  0.73380700  0.27930800  0.09776200  1
  O  O24  1  0.66316000  0.52898600  0.10776500  1
  O  O25  1  0.06596400  0.32513200  0.69279200  1
  O  O26  1  0.15840000  0.51608600  0.70660200  1
  O  O27  1  0.93403500  0.82513200  0.30720700  1
  O  O28  1  0.84160000  0.01608600  0.29339700  1
  O  O29  1  0.75638600  0.56041000  0.67411900  1
  O  O30  1  0.84702400  0.67533400  0.74758900  1
  O  O31  1  0.24361400  0.06041000  0.32588000  1
  O  O32  1  0.15297600  0.17533400  0.25241000  1
  O  O33  1  0.66534900  0.58106000  0.70212900  1
  O  O34  1  0.56763100  0.41611400  0.67489000  1
  O  O35  1  0.33465100  0.08106000  0.29787100  1
  O  O36  1  0.43236900  0.91611400  0.32511000  1
  O  O37  1  0.41336300  0.40900900  0.78099900  1
  O  O38  1  0.39724000  0.11218700  0.82693800  1
  O  O39  1  0.58663700  0.90900900  0.21900100  1
  O  O40  1  0.60276000  0.61218700  0.17306200  1
  O  O41  1  0.26503600  0.29687800  0.91885600  1
  O  O42  1  0.36407000  0.32086800  0.88641600  1
  O  O43  1  0.73496400  0.79687800  0.08114400  1
  O  O44  1  0.63593000  0.82086800  0.11358400  1
