data_DB0-m3_o11_o29_f0_pcu.sym.5_repeat
_audit_creation_date              2024-02-23
_audit_creation_method            'Materials Studio'
_symmetry_space_group_name_H-M    'P1'
_symmetry_Int_Tables_number       1
_symmetry_cell_setting            triclinic
loop_
_symmetry_equiv_pos_as_xyz
  x,y,z
_cell_length_a                    27.6343
_cell_length_b                    11.1406
_cell_length_c                    9.9321
_cell_angle_alpha                 89.9974
_cell_angle_beta                  89.9930
_cell_angle_gamma                 89.9936
loop_
_atom_site_label
_atom_site_type_symbol
_atom_site_fract_x
_atom_site_fract_y
_atom_site_fract_z
_atom_site_U_iso_or_equiv
_atom_site_adp_type
_atom_site_occupancy
O1     O     0.49993   0.32191   0.60605   0.00000  Uiso   1.00
O2     O     0.50181   0.32142   0.37402   0.00000  Uiso   1.00
C1     C     0.50096   0.26564   0.49036   0.00000  Uiso   1.00
O3     O     0.42704   0.49968   0.59819   0.00000  Uiso   1.00
O4     O     0.42882   0.49796   0.36614   0.00000  Uiso   1.00
C2     C     0.40527   0.49809   0.48100   0.00000  Uiso   1.00
Zn1    Zn    0.49858   0.50072   0.64236   0.00000  Uiso   1.00
Zn2    Zn    0.50137   0.50020   0.33612   0.00000  Uiso   1.00
O5     O     0.49863   0.67935   0.60490   0.00000  Uiso   1.00
O6     O     0.49989   0.67928   0.37240   0.00000  Uiso   1.00
O7     O     0.57112   0.50278   0.61234   0.00000  Uiso   1.00
O8     O     0.57296   0.50260   0.38027   0.00000  Uiso   1.00
C3     C     0.49893   0.73528   0.48886   0.00000  Uiso   1.00
C4     C     0.59490   0.50344   0.49766   0.00000  Uiso   1.00
C5     C     0.17565   0.39958   0.46325   0.00000  Uiso   1.00
O9     O     0.19988   0.29715   0.43954   0.00000  Uiso   1.00
N1     N     0.20040   0.50185   0.48229   0.00000  Uiso   1.00
C6     C     0.17737   0.60573   0.50818   0.00000  Uiso   1.00
C7     C     0.27724   0.51967   0.59825   0.00000  Uiso   1.00
C8     C     0.32706   0.51808   0.59813   0.00000  Uiso   1.00
C9     C     0.32681   0.47869   0.36168   0.00000  Uiso   1.00
C10    C     0.27682   0.47851   0.36255   0.00000  Uiso   1.00
C11    C     0.25196   0.49979   0.48076   0.00000  Uiso   1.00
C12    C     0.10094   0.50397   0.49808   0.00000  Uiso   1.00
C13    C     0.12579   0.39912   0.47186   0.00000  Uiso   1.00
C14    C     0.10079   0.29366   0.45409   0.00000  Uiso   1.00
C15    C     0.12689   0.60934   0.51607   0.00000  Uiso   1.00
C16    C     0.35219   0.49821   0.47974   0.00000  Uiso   1.00
H1     H     0.34563   0.46249   0.26804   0.00000  Uiso   1.00
H2     H     0.25720   0.46323   0.26997   0.00000  Uiso   1.00
H3     H     0.11931   0.21084   0.43065   0.00000  Uiso   1.00
C17    C     0.64832   0.50249   0.50281   0.00000  Uiso   1.00
C18    C     0.97522   0.39331   0.51371   0.00000  Uiso   1.00
C19    C     0.97489   0.60910   0.52254   0.00000  Uiso   1.00
C20    C     0.95010   0.50085   0.52153   0.00000  Uiso   1.00
C21    C     0.94921   0.28654   0.52436   0.00000  Uiso   1.00
C22    C     0.89962   0.28705   0.53403   0.00000  Uiso   1.00
C23    C     0.87462   0.39369   0.53284   0.00000  Uiso   1.00
C24    C     0.89982   0.50018   0.52737   0.00000  Uiso   1.00
C25    C     0.87415   0.60602   0.52640   0.00000  Uiso   1.00
C26    C     0.82411   0.60407   0.52750   0.00000  Uiso   1.00
N2     N     0.80016   0.49896   0.53212   0.00000  Uiso   1.00
C27    C     0.82452   0.39438   0.53631   0.00000  Uiso   1.00
C28    C     0.72064   0.46157   0.62980   0.00000  Uiso   1.00
C29    C     0.67081   0.46458   0.62020   0.00000  Uiso   1.00
C30    C     0.67707   0.53849   0.39475   0.00000  Uiso   1.00
C31    C     0.72673   0.53707   0.40644   0.00000  Uiso   1.00
C32    C     0.74869   0.49873   0.52303   0.00000  Uiso   1.00
O10    O     0.79984   0.29048   0.53884   0.00000  Uiso   1.00
C33    C     0.02550   0.39487   0.49611   0.00000  Uiso   1.00
C34    C     0.05057   0.50264   0.50638   0.00000  Uiso   1.00
C35    C     0.02553   0.60902   0.52492   0.00000  Uiso   1.00
C36    C     0.05140   0.29112   0.46638   0.00000  Uiso   1.00
H4     H     0.64970   0.43514   0.70561   0.00000  Uiso   1.00
H5     H     0.73756   0.43163   0.72201   0.00000  Uiso   1.00
H6     H     0.88096   0.20209   0.54147   0.00000  Uiso   1.00
H7     H     0.96600   0.19962   0.52993   0.00000  Uiso   1.00
H8     H     0.03466   0.20581   0.44669   0.00000  Uiso   1.00
O11    O     0.20423   0.70510   0.52379   0.00000  Uiso   1.00
C37    C     0.10153   0.71446   0.54350   0.00000  Uiso   1.00
H9     H     0.34587   0.53400   0.69180   0.00000  Uiso   1.00
H10    H     0.25799   0.53571   0.69129   0.00000  Uiso   1.00
C38    C     0.94820   0.71520   0.51920   0.00000  Uiso   1.00
C39    C     0.89855   0.71334   0.52086   0.00000  Uiso   1.00
O12    O     0.79902   0.70737   0.52455   0.00000  Uiso   1.00
C40    C     0.05190   0.71323   0.54708   0.00000  Uiso   1.00
H11    H     0.96429   0.80261   0.50944   0.00000  Uiso   1.00
H12    H     0.87939   0.79782   0.51699   0.00000  Uiso   1.00
H13    H     0.74863   0.56605   0.32229   0.00000  Uiso   1.00
H14    H     0.03538   0.79728   0.57372   0.00000  Uiso   1.00
C41    C     0.49945   0.93429   0.38172   0.00000  Uiso   1.00
C42    C     0.49875   0.86678   0.49328   0.00000  Uiso   1.00
H15    H     0.49951   0.89069   0.28430   0.00000  Uiso   1.00
H16    H     0.49810   0.90591   0.59257   0.00000  Uiso   1.00
C43    C     0.49984   0.06736   0.38235   0.00000  Uiso   1.00
C44    C     0.50112   0.13416   0.49446   0.00000  Uiso   1.00
H17    H     0.49906   0.11167   0.28527   0.00000  Uiso   1.00
H18    H     0.50201   0.09459   0.59353   0.00000  Uiso   1.00
C45    C     0.52807   0.56209   0.91047   0.00000  Uiso   1.00
N3     N     0.49636   0.50251   0.84365   0.00000  Uiso   1.00
H19    H     0.55654   0.60852   0.85649   0.00000  Uiso   1.00
H20    H     0.46624   0.47374   0.89495   0.00000  Uiso   1.00
C46    C     0.52527   0.57779   0.05817   0.00000  Uiso   1.00
N4     N     0.50438   0.50000   0.13470   0.00000  Uiso   1.00
H21    H     0.49289   0.42271   0.08838   0.00000  Uiso   1.00
Cl1    Cl    0.12847   0.85436   0.57677   0.00000  Uiso   1.00
Cl2    Cl    0.65364   0.59202   0.24225   0.00000  Uiso   1.00
Cl3    Cl    0.55482   0.70277   0.12672   0.00000  Uiso   1.00
