# Generated by REPEAT Assigner based on pymatgen
data_DB0-m3_o6_o47_f0_fsc.sym.23
_audit_creation_date              2022-05-24
_audit_creation_method            REPEAT_Assigner
_cell_length_a                    8.620653
_cell_length_b                    11.123897
_cell_length_c                    14.341311
_cell_angle_alpha                 90.569611
_cell_angle_beta                  92.701058
_cell_angle_gamma                 80.573209
_cell_volume                      1355.180919
_symmetry_space_group_name_H-M    P1
_symmetry_Int_Tables_number       1
loop_
    _symmetry_equiv_pos_site_id
    _symmetry_equiv_pos_as_xyz
    1  x,y,z
loop_
    _atom_site_type_symbol
    _atom_site_label
    _atom_site_fract_x
    _atom_site_fract_y
    _atom_site_fract_z
    _atom_type_partial_charge
    C   C1   0.088080  0.745495  0.974752  -0.281212
    C   C2   0.910928  0.254582  0.013420  -0.182549
    C   C3   0.967971  0.678049  0.963274  -0.066896
    C   C4   0.030978  0.322176  0.024541  -0.163348
    C   C5   0.813572  0.730762  0.972968  -0.081587
    C   C6   0.185346  0.269477  0.014497  -0.073648
    C   C7   0.774442  0.853415  0.984915  -0.217004
    C   C8   0.224397  0.146787  0.002728  -0.160141
    C   C9   0.888396  0.926074  0.987763  0.187638
    C   C10  0.110486  0.074168  0.000843  0.170987
    C   C11  0.045954  0.872800  0.985349  0.211817
    C   C12  0.953214  0.127407  0.002653  0.171260
    C   C13  0.843224  0.051288  0.998123  -0.351593
    C   C14  0.156245  0.948637  0.995108  -0.403373
    H   H1   0.996721  0.581358  0.952420  0.087388
    H   H2   0.002191  0.418879  0.035311  0.130719
    H   H3   0.653057  0.891056  0.991306  0.135693
    H   H4   0.345111  0.109242  0.993388  0.110328
    O   O1   0.354699  0.395902  0.083589  -0.750849
    O   O2   0.644144  0.604341  0.903923  -0.689268
    O   O3   0.353832  0.364145  0.924292  -0.645385
    O   O4   0.645548  0.635659  0.063182  -0.758739
    C   C15  0.306581  0.344764  0.007551  0.862657
    C   C16  0.692411  0.655395  0.979911  0.910644
    O   O5   0.305952  0.615783  0.904840  -0.728171
    O   O6   0.692895  0.384190  0.082680  -0.736098
    O   O7   0.319024  0.646846  0.063696  -0.748235
    O   O8   0.680292  0.353376  0.923852  -0.700412
    C   C17  0.250781  0.673025  0.980457  0.995664
    C   C18  0.747955  0.326710  0.007241  0.932195
    Zn  Zn1  0.494162  0.483574  0.890600  1.036960
    Zn  Zn2  0.504919  0.516488  0.096925  1.091736
    H   H5   0.550292  0.659867  0.604197  0.160697
    H   H6   0.452523  0.338837  0.383571  0.149102
    C   C19  0.536669  0.608706  0.459979  -0.192739
    C   C20  0.466949  0.389813  0.527816  -0.185071
    C   C21  0.508066  0.516619  0.398853  0.216427
    C   C22  0.494396  0.482265  0.588844  0.232416
    C   C23  0.473947  0.408826  0.433050  -0.085989
    C   C24  0.528910  0.589901  0.554689  -0.096716
    C   C25  0.511286  0.528133  0.299419  -0.010812
    C   C26  0.489365  0.471378  0.688175  -0.015305
    N   N1   0.487037  0.466851  0.768668  -0.000153
    N   N2   0.512201  0.533186  0.218871  -0.015653
    C   C27  0.320747  0.895699  0.011130  0.699142
    O   O9   0.398742  0.853723  0.946177  -0.481047
    C   C28  0.389366  0.892240  0.108653  -0.282207
    H   H7   0.319105  0.843116  0.153321  0.054639
    H   H8   0.382212  0.986472  0.135721  0.022993
    H   H9   0.512948  0.845464  0.111807  0.140654
    C   C29  0.680398  0.103221  0.012768  0.573013
    O   O10  0.593280  0.140702  0.946342  -0.401039
    C   C30  0.628092  0.121653  0.110224  -0.350774
    H   H10  0.707488  0.174389  0.150106  0.085394
    H   H11  0.635918  0.031853  0.144393  0.064906
    H   H12  0.506101  0.171835  0.110507  0.144769
    C   C31  0.575399  0.726002  0.428772  0.646249
    O   O11  0.597290  0.802793  0.486994  -0.470417
    C   C32  0.590073  0.755161  0.328612  -0.450552
    H   H13  0.685531  0.689928  0.297902  0.119535
    H   H14  0.622077  0.847490  0.324549  0.142308
    H   H15  0.475695  0.757035  0.289580  0.153511
    C   C33  0.430656  0.271820  0.559265  0.605138
    O   O12  0.408229  0.195122  0.501081  -0.479584
    C   C34  0.420441  0.241374  0.659664  -0.300740
    H   H16  0.535349  0.241769  0.697743  0.109246
    H   H17  0.392246  0.147875  0.663855  0.113745
    H   H18  0.323877  0.304294  0.691492  0.087738
