# generated using pymatgen
data_ZnH21C39N3O4
_symmetry_space_group_name_H-M   'P 1'
_cell_length_a   13.46297100
_cell_length_b   16.15683400
_cell_length_c   17.57938700
_cell_angle_alpha   94.51138100
_cell_angle_beta   90.61179300
_cell_angle_gamma   90.04694100
_symmetry_Int_Tables_number   1
_chemical_formula_structural   ZnH21C39N3O4
_chemical_formula_sum   'Zn2 H42 C78 N6 O8'
_cell_volume   3811.78054749
_cell_formula_units_Z   2
loop_
 _symmetry_equiv_pos_site_id
 _symmetry_equiv_pos_as_xyz
  1  'x, y, z'
loop_
 _atom_site_type_symbol
 _atom_site_label
 _atom_site_symmetry_multiplicity
 _atom_site_fract_x
 _atom_site_fract_y
 _atom_site_fract_z
 _atom_site_occupancy
  Zn  Zn1  1  0.49924900  0.50548300  0.08747900  1
  Zn  Zn2  1  0.50640400  0.48333400  0.91739100  1
  H  H1  1  0.31322700  0.97391100  0.92161500  1
  H  H2  1  0.69275800  0.01511300  0.08389400  1
  H  H3  1  0.00005300  0.27386100  0.97871500  1
  H  H4  1  0.00539200  0.71492900  0.02571700  1
  H  H5  1  0.04093400  0.03915700  0.94395800  1
  H  H6  1  0.96483300  0.94963000  0.06078700  1
  H  H7  1  0.60297200  0.89862800  0.05133600  1
  H  H8  1  0.40282700  0.09035200  0.95452300  1
  H  H9  1  0.82937000  0.66105100  0.98989400  1
  H  H10  1  0.17592900  0.32796500  0.01440000  1
  H  H11  1  0.16712500  0.65733400  0.03447000  1
  H  H12  1  0.83826300  0.33125800  0.96987400  1
  H  H13  1  0.44189300  0.71403600  0.92972800  1
  H  H14  1  0.56437600  0.27529000  0.07632300  1
  H  H15  1  0.38543800  0.85199700  0.90798600  1
  H  H16  1  0.62088500  0.13729500  0.09805500  1
  H  H17  1  0.53786800  0.75852100  0.03143600  1
  H  H18  1  0.46784700  0.23052200  0.97456900  1
  H  H19  1  0.75554900  0.53355000  0.32888000  1
  H  H20  1  0.27016700  0.40092700  0.67051000  1
  H  H21  1  0.73940000  0.52272700  0.70413400  1
  H  H22  1  0.26556100  0.48220500  0.30583200  1
  H  H23  1  0.74720000  0.53621700  0.57200000  1
  H  H24  1  0.26000800  0.46730000  0.43873000  1
  H  H25  1  0.75451100  0.52000200  0.45561100  1
  H  H26  1  0.27281300  0.41007100  0.54018700  1
  H  H27  1  0.35458600  0.49856000  0.19315200  1
  H  H28  1  0.65096100  0.49538100  0.81414000  1
  H  H29  1  0.69642400  0.52639600  0.13076500  1
  H  H30  1  0.74986800  0.49144800  0.20962600  1
  H  H31  1  0.88537200  0.58471000  0.22003000  1
  H  H32  1  0.95125200  0.72526000  0.24788400  1
  H  H33  1  0.83879000  0.84534500  0.25332600  1
  H  H34  1  0.65980100  0.82440100  0.23038300  1
  H  H35  1  0.59273700  0.68502100  0.20229000  1
  H  H36  1  0.31064900  0.46396900  0.87087500  1
  H  H37  1  0.27538200  0.39456800  0.79515800  1
  H  H38  1  0.11825700  0.44465200  0.76261300  1
  H  H39  1  0.00970600  0.55576300  0.72402900  1
  H  H40  1  0.07278400  0.69865500  0.72450700  1
  H  H41  1  0.24527500  0.73023100  0.76406600  1
  H  H42  1  0.35480100  0.62002900  0.80222700  1
  C  C1  1  0.18092600  0.77691000  0.98830300  1
  C  C2  1  0.82476400  0.21193100  0.01654700  1
  C  C3  1  0.24281200  0.83173500  0.95788800  1
  C  C4  1  0.76306400  0.15724000  0.04733400  1
  C  C5  1  0.19315900  0.90556600  0.95572700  1
  C  C6  1  0.81266600  0.08335600  0.04934700  1
  C  C7  1  0.09100000  0.81683500  0.99879800  1
  C  C8  1  0.91459300  0.17194900  0.00579200  1
  C  C9  1  0.23657200  0.97634300  0.93871400  1
  C  C10  1  0.76931900  0.01261200  0.06654200  1
  C  C11  1  0.19580600  0.05989200  0.95596300  1
  C  C12  1  0.80993000  0.92903400  0.04904900  1
  C  C13  1  0.25214200  0.13068700  0.97118000  1
  C  C14  1  0.75348900  0.85830300  0.03380400  1
  C  C15  1  0.18910100  0.19562200  0.98635900  1
  C  C16  1  0.81641300  0.79335000  0.01829700  1
  C  C17  1  0.09346500  0.16229300  0.97896000  1
  C  C18  1  0.91210300  0.82659000  0.02557700  1
  C  C19  1  0.99913400  0.20788900  0.98576500  1
  C  C20  1  0.00637500  0.78090100  0.01866200  1
  C  C21  1  0.65272600  0.84782000  0.03600200  1
  C  C22  1  0.35293600  0.14119800  0.96939000  1
  C  C23  1  0.61573500  0.76854400  0.02262100  1
  C  C24  1  0.38984200  0.22050100  0.98279300  1
  C  C25  1  0.67652200  0.70128000  0.00181900  1
  C  C26  1  0.32886000  0.28778700  0.00304200  1
  C  C27  1  0.77979000  0.71310100  0.00085000  1
  C  C28  1  0.22558900  0.27592600  0.00369700  1
  C  C29  1  0.21405000  0.70006600  0.00699200  1
  C  C30  1  0.79156000  0.28871500  0.99778000  1
  C  C31  1  0.31166400  0.68023200  0.98928000  1
  C  C32  1  0.69414200  0.30872100  0.01594700  1
  C  C33  1  0.36898000  0.73296400  0.94913200  1
  C  C34  1  0.63719300  0.25629700  0.05672500  1
  C  C35  1  0.33708000  0.81087700  0.93595800  1
  C  C36  1  0.66905500  0.17831900  0.06979400  1
  C  C37  1  0.62744900  0.61902300  0.99772700  1
  C  C38  1  0.37789900  0.37003400  0.00711300  1
  C  C39  1  0.35819700  0.60153200  0.00180700  1
  C  C40  1  0.64751000  0.38730800  0.00315700  1
  C  C41  1  0.59639400  0.52463500  0.22924500  1
  C  C42  1  0.41209000  0.45872800  0.77386700  1
  C  C43  1  0.42356600  0.50514300  0.22495800  1
  C  C44  1  0.58340500  0.48466200  0.78124700  1
  C  C45  1  0.50888800  0.50496900  0.34536400  1
  C  C46  1  0.50329800  0.47258700  0.65876600  1
  C  C47  1  0.59620400  0.51914500  0.30855500  1
  C  C48  1  0.41710900  0.45228500  0.69403400  1
  C  C49  1  0.68312000  0.52446600  0.35182900  1
  C  C50  1  0.33658400  0.42676900  0.64835800  1
  C  C51  1  0.42253700  0.49886400  0.30293300  1
  C  C52  1  0.58655500  0.48839400  0.70313700  1
  C  C53  1  0.59343600  0.49957700  0.54591400  1
  C  C54  1  0.41975300  0.47743300  0.45861200  1
  C  C55  1  0.42042800  0.46352700  0.53621900  1
  C  C56  1  0.59508900  0.50448800  0.46667500  1
  C  C57  1  0.50582500  0.47826000  0.58008000  1
  C  C58  1  0.50791000  0.49597600  0.42375300  1
  C  C59  1  0.67712200  0.51577100  0.59236400  1
  C  C60  1  0.33248000  0.47486500  0.41505100  1
  C  C61  1  0.67351500  0.50924800  0.66968300  1
  C  C62  1  0.33431600  0.48532600  0.33825700  1
  C  C63  1  0.68252900  0.51741000  0.42870400  1
  C  C64  1  0.33799000  0.43265200  0.57110400  1
  C  C65  1  0.69565200  0.53814200  0.19228100  1
  C  C66  1  0.73436700  0.62462100  0.21063200  1
  C  C67  1  0.83510200  0.63696400  0.22278700  1
  C  C68  1  0.87243200  0.71603800  0.23833100  1
  C  C69  1  0.80945400  0.78333000  0.24138900  1
  C  C70  1  0.70911600  0.77153700  0.22863200  1
  C  C71  1  0.67150500  0.69253000  0.21304600  1
  C  C72  1  0.31004000  0.45621200  0.80905800  1
  C  C73  1  0.24450200  0.52429500  0.78409200  1
  C  C74  1  0.14709800  0.50710000  0.76257000  1
  C  C75  1  0.08571200  0.56958700  0.74099200  1
  C  C76  1  0.12100200  0.64967400  0.74131000  1
  C  C77  1  0.21769100  0.66732300  0.76342400  1
  C  C78  1  0.27929500  0.60494100  0.78493900  1
  N  N1  1  0.09925100  0.89659700  0.98027100  1
  N  N2  1  0.90642000  0.09222300  0.02443400  1
  N  N3  1  0.09907200  0.07965200  0.95959400  1
  N  N4  1  0.90662900  0.90920300  0.04514800  1
  N  N5  1  0.50916600  0.51606900  0.18785400  1
  N  N6  1  0.49708600  0.47256600  0.81701100  1
  O  O1  1  0.60253800  0.57967800  0.93144000  1
  O  O2  1  0.40309400  0.40915300  0.07355200  1
  O  O3  1  0.59115500  0.59756000  0.06201200  1
  O  O4  1  0.41378000  0.39162300  0.94262400  1
  O  O5  1  0.38795200  0.58596300  0.07100300  1
  O  O6  1  0.61748300  0.40270500  0.93407000  1
  O  O7  1  0.39673000  0.56562700  0.94011000  1
  O  O8  1  0.60911200  0.42341900  0.06466700  1
