# Generated by REPEAT Assigner based on pymatgen
data_DB0-m2_o3_o19_f0_pcu.sym.31_sqe
_audit_creation_date              2022-05-24
_audit_creation_method            REPEAT_Assigner
_cell_length_a                    19.311873
_cell_length_b                    17.908745
_cell_length_c                    11.825244
_cell_angle_alpha                 90.000000
_cell_angle_beta                  90.002982
_cell_angle_gamma                 90.000000
_cell_volume                      4089.777324
_symmetry_space_group_name_H-M    P1
_symmetry_Int_Tables_number       1
loop_
    _symmetry_equiv_pos_site_id
    _symmetry_equiv_pos_as_xyz
    1  x,y,z
loop_
    _atom_site_type_symbol
    _atom_site_label
    _atom_site_fract_x
    _atom_site_fract_y
    _atom_site_fract_z
    _atom_type_partial_charge
    O   O1   0.398928  0.563481  0.505259  -0.604488
    O   O2   0.600715  0.436979  0.494408  -0.620416
    O   O3   0.600186  0.564921  0.505414  -0.610955
    O   O4   0.399524  0.434759  0.494269  -0.611599
    C   C1   0.367115  0.499461  0.500194  0.657867
    C   C2   0.632856  0.500616  0.498964  0.776852
    O   O5   0.501831  0.565227  0.336502  -0.640028
    O   O6   0.502116  0.434513  0.662508  -0.647968
    O   O7   0.501972  0.563267  0.665225  -0.622706
    O   O8   0.502347  0.437008  0.333737  -0.627674
    C   C3   0.499195  0.501301  0.283064  0.940652
    C   C4   0.499668  0.498745  0.717202  0.937538
    Cu  Cu1  0.499440  0.574638  0.501113  0.842571
    Cu  Cu2  0.500158  0.425170  0.498658  0.874767
    C   C5   0.500472  0.501493  0.161596  -0.325807
    C   C6   0.500433  0.498711  0.838592  -0.333803
    C   C7   0.501051  0.500582  0.059380  0.074653
    C   C8   0.500861  0.499425  0.940157  0.089056
    C   C9   0.744023  0.462989  0.416058  -0.138516
    C   C10  0.255496  0.464139  0.414354  -0.183211
    C   C11  0.256009  0.534664  0.585478  -0.170970
    C   C12  0.744346  0.538399  0.582416  -0.151339
    H   H1   0.716494  0.433887  0.349614  0.128634
    H   H2   0.283563  0.436916  0.346852  0.128047
    H   H3   0.283960  0.561511  0.653561  0.126458
    H   H4   0.716539  0.567525  0.648360  0.128699
    C   C13  0.815636  0.464865  0.414185  -0.172437
    C   C14  0.184197  0.465724  0.413551  -0.143822
    C   C15  0.184429  0.532761  0.587796  -0.149853
    C   C16  0.815556  0.536801  0.584048  -0.162082
    H   H5   0.843309  0.438105  0.345794  0.091927
    H   H6   0.156585  0.440415  0.344050  0.101097
    H   H7   0.156961  0.557590  0.658004  0.104388
    H   H8   0.842921  0.563724  0.652429  0.087656
    C   C17  0.851751  0.500368  0.499726  0.343696
    C   C18  0.148130  0.499267  0.500641  0.244741
    C   C19  0.708325  0.500854  0.499322  -0.092519
    C   C20  0.291504  0.498753  0.500242  0.033595
    C   C21  0.964292  0.566927  0.490560  -0.041350
    C   C22  0.035589  0.433099  0.508922  0.003662
    C   C23  0.036129  0.566566  0.491221  0.000378
    C   C24  0.963827  0.433205  0.508564  -0.039785
    C   C25  0.071937  0.499626  0.500488  -0.156601
    C   C26  0.927921  0.500215  0.499387  -0.148313
    C   C27  0.456613  0.723419  0.432782  -0.043327
    C   C28  0.543380  0.276515  0.567998  -0.072247
    C   C29  0.542120  0.724201  0.573077  -0.117875
    C   C30  0.457547  0.275989  0.428578  -0.075998
    H   H9   0.422337  0.692764  0.377577  0.124025
    H   H10  0.578279  0.307272  0.621848  0.147324
    H   H11  0.576563  0.694262  0.629051  0.159844
    H   H12  0.423505  0.305893  0.371631  0.140683
    C   C31  0.455122  0.800283  0.431052  -0.144725
    C   C32  0.542332  0.199770  0.571265  -0.138218
    C   C33  0.541811  0.801473  0.573982  -0.114751
    C   C34  0.455287  0.198957  0.429605  -0.125525
    H   H13  0.419502  0.828351  0.374749  0.112253
    H   H14  0.577970  0.171636  0.627174  0.110177
    H   H15  0.577621  0.830496  0.628817  0.105636
    H   H16  0.419097  0.169993  0.375301  0.106892
    C   C35  0.497819  0.840282  0.502444  0.096500
    C   C36  0.498715  0.159935  0.500929  0.097437
    N   N1   0.499164  0.686352  0.503186  0.057931
    N   N2   0.501743  0.313470  0.495606  0.038448
    C   C37  0.504691  0.961694  0.600898  -0.135851
    C   C38  0.491600  0.038327  0.400332  -0.142238
    C   C39  0.490976  0.961255  0.400569  -0.116841
    C   C40  0.505261  0.038644  0.600550  -0.116343
    H   H17  0.509533  0.932967  0.680852  0.106996
    H   H18  0.488827  0.067300  0.320300  0.108581
    H   H19  0.488104  0.932001  0.320747  0.106218
    H   H20  0.509812  0.067570  0.680374  0.101866
    C   C41  0.498060  0.077730  0.500638  0.059154
    C   C42  0.497129  0.922338  0.501246  0.056760
    C   C43  0.927250  0.637533  0.472659  0.073170
    C   C44  0.918011  0.687025  0.560793  0.075838
    C   C45  0.882968  0.752983  0.543528  -0.471928
    C   C46  0.857061  0.770599  0.438263  0.482331
    O   O9   0.823307  0.836161  0.425682  -0.327518
    C   C47  0.794277  0.860109  0.326052  0.068678
    C   C48  0.866708  0.721046  0.349366  -0.262527
    C   C49  0.901684  0.654923  0.366979  -0.195839
    H   H21  0.937747  0.673590  0.643845  0.070412
    H   H22  0.875924  0.791408  0.613055  0.169780
    H   H23  0.769299  0.915096  0.340020  0.058675
    H   H24  0.754164  0.819969  0.297507  0.019928
    H   H25  0.834911  0.866722  0.260504  0.020421
    H   H26  0.847802  0.732445  0.265197  0.137110
    H   H27  0.909360  0.616537  0.297553  0.128670
    C   C50  0.072742  0.362707  0.527009  0.090302
    C   C51  0.097149  0.344560  0.633116  -0.018809
    C   C52  0.133328  0.279112  0.649562  -0.418095
    C   C53  0.145668  0.231105  0.560514  0.480928
    O   O10  0.181897  0.167971  0.580587  -0.356931
    C   C54  0.198540  0.116350  0.499201  0.101642
    C   C55  0.121202  0.249427  0.453736  -0.272221
    C   C56  0.085024  0.314979  0.437542  -0.143590
    H   H28  0.088075  0.381833  0.703473  0.090727
    H   H29  0.152456  0.265470  0.732942  0.169356
    H   H30  0.228506  0.070439  0.538730  0.044293
    H   H31  0.230959  0.142640  0.432769  0.018809
    H   H32  0.150681  0.092579  0.461826  0.023269
    H   H33  0.129791  0.214021  0.381175  0.120903
    H   H34  0.066876  0.329489  0.353917  0.116550
    C   C57  0.074160  0.636413  0.473445  0.096373
    C   C58  0.098924  0.653982  0.367475  -0.023076
    C   C59  0.135749  0.719083  0.350865  -0.418163
    C   C60  0.148745  0.766989  0.439914  0.486926
    O   O11  0.185780  0.829585  0.419968  -0.368768
    C   C61  0.202040  0.881644  0.500988  0.139028
    C   C62  0.123607  0.749306  0.546478  -0.281833
    C   C63  0.086590  0.684248  0.562680  -0.144762
    H   H35  0.089627  0.616766  0.297113  0.091493
    H   H36  0.155068  0.732483  0.267502  0.169296
    H   H37  0.232538  0.927111  0.461345  0.034998
    H   H38  0.233807  0.855549  0.568443  0.007050
    H   H39  0.153961  0.905876  0.536925  0.013798
    H   H40  0.132449  0.784792  0.618877  0.127824
    H   H41  0.068148  0.670436  0.646400  0.117228
    C   C64  0.926219  0.363013  0.526767  0.071097
    C   C65  0.916486  0.313804  0.438548  0.075342
    C   C66  0.880645  0.248191  0.455609  -0.466660
    C   C67  0.853971  0.231037  0.560651  0.471320
    O   O12  0.819222  0.166067  0.573192  -0.314928
    C   C68  0.790200  0.142800  0.673219  0.022926
    C   C69  0.863397  0.280928  0.649216  -0.253948
    C   C70  0.899306  0.346528  0.631837  -0.197796
    H   H42  0.936307  0.326978  0.355438  0.071462
    H   H43  0.873071  0.209916  0.386014  0.168803
    H   H44  0.765313  0.087669  0.660135  0.070587
    H   H45  0.750071  0.183182  0.700961  0.032344
    H   H46  0.830922  0.136757  0.738777  0.034029
    H   H47  0.843299  0.270390  0.732898  0.132208
    H   H48  0.906355  0.385109  0.701188  0.127985
