# generated using pymatgen
data_Cu3H21C38(NO4)3
_symmetry_space_group_name_H-M   'P 1'
_cell_length_a   21.54800900
_cell_length_b   21.58238600
_cell_length_c   22.00937700
_cell_angle_alpha   60.66904500
_cell_angle_beta   119.28841000
_cell_angle_gamma   89.95925300
_symmetry_Int_Tables_number   1
_chemical_formula_structural   Cu3H21C38(NO4)3
_chemical_formula_sum   'Cu6 H42 C76 N6 O24'
_cell_volume   7383.70764720
_cell_formula_units_Z   2
loop_
 _symmetry_equiv_pos_site_id
 _symmetry_equiv_pos_as_xyz
  1  'x, y, z'
loop_
 _atom_site_type_symbol
 _atom_site_label
 _atom_site_symmetry_multiplicity
 _atom_site_fract_x
 _atom_site_fract_y
 _atom_site_fract_z
 _atom_site_occupancy
  Cu  Cu1  1  0.50841900  0.42845300  0.50116000  1
  Cu  Cu2  1  0.50606700  0.55488500  0.49503800  1
  Cu  Cu3  1  0.06803600  0.99365500  0.49352800  1
  Cu  Cu4  1  0.94927200  0.98971800  0.50305100  1
  Cu  Cu5  1  0.96374900  0.52756100  0.41994400  1
  Cu  Cu6  1  0.05467500  0.45212700  0.58398700  1
  H  H1  1  0.37424300  0.78299700  0.04726600  1
  H  H2  1  0.34961100  0.72831500  0.94520900  1
  H  H3  1  0.19884000  0.73507300  0.05123000  1
  H  H4  1  0.17392900  0.68033700  0.94924400  1
  H  H5  1  0.32875700  0.60236700  0.05309800  1
  H  H6  1  0.65974200  0.47435700  0.41445900  1
  H  H7  1  0.72195100  0.47442800  0.65397600  1
  H  H8  1  0.82864200  0.48552700  0.75489900  1
  H  H9  1  0.93753800  0.49917700  0.74624400  1
  H  H10  1  0.94058000  0.49987600  0.63808100  1
  H  H11  1  0.77197800  0.47723400  0.41286700  1
  H  H12  1  0.62069800  0.32288700  0.94873400  1
  H  H13  1  0.68328300  0.16353200  0.05218200  1
  H  H14  1  0.76073300  0.33091500  0.05145700  1
  H  H15  1  0.80119400  0.34068000  0.94385300  1
  H  H16  1  0.86340000  0.18143600  0.04715500  1
  H  H17  1  0.36028000  0.39498000  0.58797700  1
  H  H18  1  0.16700000  0.73576900  0.22573300  1
  H  H19  1  0.06572300  0.73940700  0.24608100  1
  H  H20  1  0.07281300  0.63386300  0.36379000  1
  H  H21  1  0.25072000  0.39363100  0.59454700  1
  H  H22  1  0.11555100  0.75786200  0.57946400  1
  H  H23  1  0.86632500  0.92337900  0.35625800  1
  H  H24  1  0.75261200  0.91131900  0.26724400  1
  H  H25  1  0.86210000  0.68434700  0.38347200  1
  H  H26  1  0.04666000  0.04719800  0.65698000  1
  H  H27  1  0.05823000  0.04344900  0.77327900  1
  H  H28  1  0.04548300  0.15818300  0.76992600  1
  H  H29  1  0.02319300  0.27614300  0.65147300  1
  H  H30  1  0.99695900  0.35309400  0.39470700  1
  H  H31  1  0.75078800  0.10852600  0.99039500  1
  H  H32  1  0.66460900  0.16987700  0.90752100  1
  H  H33  1  0.26376700  0.63286200  0.26187200  1
  H  H34  1  0.30701200  0.67411700  0.31242600  1
  H  H35  1  0.69101500  0.83938300  0.22801400  1
  H  H36  1  0.74209900  0.77605200  0.23251300  1
  H  H37  1  0.23214500  0.87976300  0.98847100  1
  H  H38  1  0.23462400  0.90874200  0.90346800  1
  H  H39  1  0.15325500  0.61357000  0.65764200  1
  H  H40  1  0.17111000  0.64831200  0.58237800  1
  H  H41  1  0.99071300  0.29507900  0.33186400  1
  H  H42  1  0.94333200  0.23299600  0.34545800  1
  C  C1  1  0.63441500  0.48304300  0.51541300  1
  C  C2  1  0.43903000  0.56711200  0.33747900  1
  C  C3  1  0.37983400  0.50040800  0.48041600  1
  C  C4  1  0.57616400  0.41617800  0.65887100  1
  C  C5  1  0.31612700  0.72948300  0.97029500  1
  C  C6  1  0.32938200  0.75911800  0.02461700  1
  C  C7  1  0.39767100  0.61010400  0.24733200  1
  C  C8  1  0.14460100  0.85659100  0.74945000  1
  C  C9  1  0.30340100  0.66146200  0.02701100  1
  C  C10  1  0.31553500  0.69188500  0.07945900  1
  C  C11  1  0.21967600  0.70312300  0.97252300  1
  C  C12  1  0.23311300  0.77034800  0.91722900  1
  C  C13  1  0.23249200  0.73269100  0.02671300  1
  C  C14  1  0.24636600  0.79842100  0.97099000  1
  C  C15  1  0.36133600  0.64679500  0.17152200  1
  C  C16  1  0.18494200  0.81740300  0.82521200  1
  C  C17  1  0.76818400  0.48096700  0.64706600  1
  C  C18  1  0.82912500  0.48638400  0.70561700  1
  C  C19  1  0.89022400  0.49362500  0.70103500  1
  C  C20  1  0.89166200  0.49312800  0.63948000  1
  C  C21  1  0.83152800  0.48536400  0.58137900  1
  C  C22  1  0.76788100  0.48242500  0.58309700  1
  C  C23  1  0.70544900  0.47941600  0.52192100  1
  C  C24  1  0.70819000  0.47638100  0.46223100  1
  C  C25  1  0.77109800  0.47896600  0.46070400  1
  C  C26  1  0.83300900  0.48299200  0.51991900  1
  C  C27  1  0.70918600  0.20484900  0.02721000  1
  C  C28  1  0.67608200  0.29020000  0.97209100  1
  C  C29  1  0.61789100  0.37345700  0.74906100  1
  C  C30  1  0.87263800  0.12620700  0.24711100  1
  C  C31  1  0.73319800  0.21039600  0.97148200  1
  C  C32  1  0.70035900  0.29358200  0.91694900  1
  C  C33  1  0.80859600  0.21472500  0.02441400  1
  C  C34  1  0.78400000  0.21160100  0.07925500  1
  C  C35  1  0.77519200  0.29992000  0.96947200  1
  C  C36  1  0.75167300  0.29591100  0.02603300  1
  C  C37  1  0.65440300  0.33751300  0.82487200  1
  C  C38  1  0.83222700  0.16525800  0.17132100  1
  C  C39  1  0.23578600  0.62705100  0.33842800  1
  C  C40  1  0.17216500  0.68853900  0.28048500  1
  C  C41  1  0.11498500  0.69044900  0.29128800  1
  C  C42  1  0.11934900  0.62938300  0.35825800  1
  C  C43  1  0.18199700  0.56577500  0.41652200  1
  C  C44  1  0.24321900  0.56575500  0.40991100  1
  C  C45  1  0.30864100  0.50365700  0.47375700  1
  C  C46  1  0.30980400  0.44262600  0.53864600  1
  C  C47  1  0.24857200  0.44228400  0.54319000  1
  C  C48  1  0.18453000  0.50304700  0.48250200  1
  C  C49  1  0.00193900  0.87840500  0.48726700  1
  C  C50  1  0.09591700  0.90371800  0.65930600  1
  C  C51  1  0.01530500  0.10486300  0.50920800  1
  C  C52  1  0.92138000  0.07854500  0.33726700  1
  C  C53  1  0.00278700  0.61164700  0.49299300  1
  C  C54  1  0.89803600  0.48549700  0.51427400  1
  C  C55  1  0.01285000  0.36774900  0.51149000  1
  C  C56  1  0.12019800  0.49822000  0.48938000  1
  C  C57  1  0.86793600  0.86915900  0.36609600  1
  C  C58  1  0.80256400  0.86299200  0.31377800  1
  C  C59  1  0.80127200  0.79590800  0.32138500  1
  C  C60  1  0.86606100  0.73580100  0.37952600  1
  C  C61  1  0.93301200  0.74182900  0.43116100  1
  C  C62  1  0.93319300  0.80816700  0.42703100  1
  C  C63  1  0.99908100  0.81313000  0.48221500  1
  C  C64  1  0.06433100  0.75384500  0.53703900  1
  C  C65  1  0.06452000  0.68862100  0.54027300  1
  C  C66  1  0.99928800  0.68190400  0.48804700  1
  C  C67  1  0.04092600  0.09915300  0.65257600  1
  C  C68  1  0.04814500  0.09618700  0.71964700  1
  C  C69  1  0.04138700  0.16032100  0.71794500  1
  C  C70  1  0.02965600  0.22730300  0.65033300  1
  C  C71  1  0.02492000  0.23086100  0.58333000  1
  C  C72  1  0.02763200  0.16665800  0.58306200  1
  C  C73  1  0.01784600  0.17026500  0.51390500  1
  C  C74  1  0.00682600  0.23724100  0.44634700  1
  C  C75  1  0.00528300  0.30056900  0.44730900  1
  C  C76  1  0.01483800  0.29795400  0.51527500  1
  N  N1  1  0.72169200  0.16413100  0.93882400  1
  N  N2  1  0.29020900  0.62697200  0.31963500  1
  N  N3  1  0.73357100  0.78820000  0.26882300  1
  N  N4  1  0.21336900  0.87561900  0.93737600  1
  N  N5  1  0.13285500  0.62837000  0.59687900  1
  N  N6  1  0.99483500  0.24128100  0.37455100  1
  O  O1  1  0.60214500  0.43323300  0.50843200  1
  O  O2  1  0.60393900  0.53831000  0.51199200  1
  O  O3  1  0.45287000  0.49431400  0.37856100  1
  O  O4  1  0.45781400  0.60312400  0.37425900  1
  O  O5  1  0.41130900  0.44403000  0.48615300  1
  O  O6  1  0.41144600  0.55109300  0.48579400  1
  O  O7  1  0.55828600  0.38004800  0.62221500  1
  O  O8  1  0.56024400  0.48919100  0.61750700  1
  O  O9  1  0.05418100  0.90838700  0.48452900  1
  O  O10  1  0.95075800  0.90588800  0.49120900  1
  O  O11  1  0.12617600  0.92979000  0.61640700  1
  O  O12  1  0.02358300  0.92533600  0.62456100  1
  O  O13  1  0.06239600  0.08181100  0.49749700  1
  O  O14  1  0.96041800  0.07757700  0.50725600  1
  O  O15  1  0.99403600  0.06143800  0.37225600  1
  O  O16  1  0.89125200  0.05904800  0.38061100  1
  O  O17  1  0.98269600  0.61417600  0.42449000  1
  O  O18  1  0.02784400  0.54866800  0.56644200  1
  O  O19  1  0.88619400  0.53460800  0.44028900  1
  O  O20  1  0.96435100  0.43633600  0.58132800  1
  O  O21  1  0.95861200  0.42930600  0.44083900  1
  O  O22  1  0.06714000  0.36720300  0.57613100  1
  O  O23  1  0.05545300  0.50921300  0.42497900  1
  O  O24  1  0.13086400  0.47995200  0.56126900  1
