# generated using pymatgen
data_CuH17C24NO12
_symmetry_space_group_name_H-M   'P 1'
_cell_length_a   8.93181000
_cell_length_b   17.68642200
_cell_length_c   16.26154900
_cell_angle_alpha   89.97506200
_cell_angle_beta   97.94769200
_cell_angle_gamma   90.00445600
_symmetry_Int_Tables_number   1
_chemical_formula_structural   CuH17C24NO12
_chemical_formula_sum   'Cu2 H34 C48 N2 O24'
_cell_volume   2544.19059991
_cell_formula_units_Z   2
loop_
 _symmetry_equiv_pos_site_id
 _symmetry_equiv_pos_as_xyz
  1  'x, y, z'
loop_
 _atom_site_type_symbol
 _atom_site_label
 _atom_site_symmetry_multiplicity
 _atom_site_fract_x
 _atom_site_fract_y
 _atom_site_fract_z
 _atom_site_occupancy
  Cu  Cu1  1  0.50999200  0.50087300  0.58222000  1
  Cu  Cu2  1  0.50255700  0.50215800  0.41735600  1
  H  H1  1  0.45835000  0.73733300  0.62779900  1
  H  H2  1  0.50937800  0.26536700  0.36640100  1
  H  H3  1  0.53813000  0.74000800  0.37515500  1
  H  H4  1  0.51365300  0.26250400  0.62903000  1
  H  H5  1  0.53922600  0.87766700  0.37686900  1
  H  H6  1  0.50892200  0.12476200  0.62691100  1
  H  H7  1  0.60311400  0.60964100  0.71915600  1
  H  H8  1  0.29638400  0.44111900  0.27143400  1
  H  H9  1  0.42246000  0.39078000  0.70584000  1
  H  H10  1  0.69892000  0.56543500  0.30348700  1
  H  H11  1  0.75902400  0.31533900  0.32633300  1
  H  H12  1  0.93124900  0.34109000  0.28677600  1
  H  H13  1  0.76910400  0.40374000  0.27142700  1
  H  H14  1  0.99210000  0.65724200  0.75029900  1
  H  H15  1  0.16498400  0.60627800  0.74206700  1
  H  H16  1  0.00397900  0.55734300  0.77388800  1
  H  H17  1  0.35748800  0.83785500  0.83189200  1
  H  H18  1  0.28739900  0.91970600  0.77202100  1
  H  H19  1  0.48612000  0.91317300  0.81387800  1
  H  H20  1  0.50742500  0.16598100  0.14759500  1
  H  H21  1  0.40195600  0.08790900  0.18277300  1
  H  H22  1  0.60707100  0.08604400  0.19840200  1
  H  H23  1  0.75188000  0.79760400  0.83588000  1
  H  H24  1  0.80307700  0.74549600  0.93124400  1
  H  H25  1  0.61363000  0.78327800  0.90575800  1
  H  H26  1  0.95615200  0.33373600  0.13635900  1
  H  H27  1  0.07134900  0.31713400  0.05522300  1
  H  H28  1  0.96390100  0.40409100  0.05641500  1
  H  H29  1  0.42952500  0.29250300  0.05101700  1
  H  H30  1  0.46416000  0.24257200  0.95845400  1
  H  H31  1  0.27790000  0.28046400  0.96603900  1
  H  H32  1  0.90942100  0.57086500  0.97723900  1
  H  H33  1  0.00834800  0.56673600  0.08194200  1
  H  H34  1  0.90196500  0.65060700  0.04613100  1
  C  C1  1  0.51205600  0.35622300  0.49817000  1
  C  C2  1  0.49991900  0.64686800  0.50124400  1
  C  C3  1  0.21508100  0.49751000  0.48208800  1
  C  C4  1  0.79707800  0.50310100  0.51781100  1
  C  C5  1  0.04856300  0.48867300  0.47070500  1
  C  C6  1  0.96354400  0.50333900  0.53158700  1
  C  C7  1  0.47528400  0.84675200  0.57389100  1
  C  C8  1  0.50743500  0.15595400  0.42207300  1
  C  C9  1  0.47598600  0.76848100  0.57282900  1
  C  C10  1  0.50994600  0.23428300  0.42354500  1
  C  C11  1  0.49831500  0.72964700  0.50180800  1
  C  C12  1  0.51206800  0.27323700  0.49742800  1
  C  C13  1  0.52000000  0.76923100  0.43130700  1
  C  C14  1  0.51200800  0.23342500  0.57047400  1
  C  C15  1  0.52100800  0.84700600  0.43214400  1
  C  C16  1  0.50931200  0.15557500  0.56949800  1
  C  C17  1  0.49910400  0.88607200  0.50282100  1
  C  C18  1  0.50677900  0.11654800  0.49597200  1
  C  C19  1  0.50132700  0.96725100  0.50035200  1
  C  C20  1  0.50366700  0.03535800  0.49843200  1
  C  C21  1  0.56016100  0.56390800  0.83499600  1
  C  C22  1  0.38395800  0.46803900  0.15893600  1
  C  C23  1  0.56287300  0.56140000  0.75020400  1
  C  C24  1  0.38581400  0.46837400  0.24418400  1
  C  C25  1  0.46298100  0.43908100  0.74285900  1
  C  C26  1  0.61085300  0.53773700  0.26210100  1
  C  C27  1  0.46408500  0.43731900  0.82791100  1
  C  C28  1  0.61771000  0.53644400  0.17774700  1
  C  C29  1  0.51158700  0.50072400  0.87473800  1
  C  C30  1  0.50221400  0.50182100  0.12515900  1
  C  C31  1  0.50807700  0.50116900  0.96295400  1
  C  C32  1  0.50520500  0.50149000  0.03690400  1
  C  C33  1  0.97886100  0.45808200  0.39028400  1
  C  C34  1  0.83354700  0.36314800  0.31467400  1
  C  C35  1  0.03078700  0.52236200  0.61670000  1
  C  C36  1  0.03982400  0.60243200  0.73336100  1
  C  C37  1  0.44802700  0.88589100  0.65047500  1
  C  C38  1  0.38491500  0.88083000  0.78660500  1
  C  C39  1  0.50529300  0.11691000  0.34178200  1
  C  C40  1  0.50580400  0.12260900  0.19672200  1
  C  C41  1  0.60896900  0.63414800  0.88011100  1
  C  C42  1  0.71050500  0.75751400  0.88012300  1
  C  C43  1  0.25574500  0.43152000  0.10682300  1
  C  C44  1  0.02988600  0.36085700  0.09540400  1
  C  C45  1  0.41544500  0.36737600  0.86588700  1
  C  C46  1  0.40115000  0.28985100  0.98251900  1
  C  C47  1  0.74909000  0.57143900  0.14677900  1
  C  C48  1  0.90573900  0.58803700  0.04251500  1
  N  N1  1  0.51601900  0.49949900  0.70568000  1
  N  N2  1  0.49675600  0.50411800  0.29396100  1
  O  O1  1  0.50878300  0.39095400  0.56898100  1
  O  O2  1  0.50321900  0.61226700  0.43049800  1
  O  O3  1  0.51329100  0.39260000  0.42800600  1
  O  O4  1  0.49943800  0.61062300  0.57141000  1
  O  O5  1  0.28988500  0.50107500  0.55709400  1
  O  O6  1  0.72279200  0.50223500  0.44244700  1
  O  O7  1  0.28361300  0.49695300  0.41568600  1
  O  O8  1  0.72883000  0.50562000  0.58397800  1
  O  O9  1  0.01867500  0.48102400  0.32598800  1
  O  O10  1  0.88441000  0.39844600  0.38828900  1
  O  O11  1  0.10719300  0.47583000  0.65911000  1
  O  O12  1  0.98797500  0.58630100  0.65195100  1
  O  O13  1  0.45494900  0.95458500  0.65570000  1
  O  O14  1  0.41358300  0.84537900  0.71549100  1
  O  O15  1  0.50213000  0.04810200  0.33753600  1
  O  O16  1  0.50704400  0.15773400  0.27194600  1
  O  O17  1  0.59636600  0.64163400  0.95334100  1
  O  O18  1  0.66541900  0.69168700  0.83950700  1
  O  O19  1  0.24183400  0.43556500  0.03132800  1
  O  O20  1  0.15024600  0.39451100  0.14298800  1
  O  O21  1  0.35650000  0.31699500  0.82152900  1
  O  O22  1  0.44095200  0.35662400  0.94862500  1
  O  O23  1  0.83519900  0.61097000  0.19305200  1
  O  O24  1  0.77938900  0.55798100  0.06922300  1
