# Generated by REPEAT Assigner based on pymatgen
data_DB0-m2_o3_o18_f0_pcu.sym.83_sqe
_audit_creation_date              2022-05-24
_audit_creation_method            REPEAT_Assigner
_cell_length_a                    15.835434
_cell_length_b                    17.892238
_cell_length_c                    19.362705
_cell_angle_alpha                 89.984338
_cell_angle_beta                  90.002026
_cell_angle_gamma                 71.607344
_cell_volume                      5205.813891
_symmetry_space_group_name_H-M    P1
_symmetry_Int_Tables_number       1
loop_
    _symmetry_equiv_pos_site_id
    _symmetry_equiv_pos_as_xyz
    1  x,y,z
loop_
    _atom_site_type_symbol
    _atom_site_label
    _atom_site_fract_x
    _atom_site_fract_y
    _atom_site_fract_z
    _atom_type_partial_charge
    O   O1   0.513309  0.427103  0.601929  -0.620424
    O   O2   0.493368  0.563866  0.402997  -0.580766
    O   O3   0.508041  0.556879  0.603223  -0.663478
    O   O4   0.500280  0.433770  0.401381  -0.531877
    C   C1   0.513269  0.491047  0.635121  0.690065
    C   C2   0.497613  0.499260  0.369667  0.541704
    O   O5   0.632767  0.395115  0.498909  -0.413014
    O   O6   0.374460  0.595943  0.506260  -0.472914
    O   O7   0.632632  0.523220  0.494621  -0.408791
    O   O8   0.374477  0.467889  0.509430  -0.590829
    C   C3   0.674680  0.447301  0.493141  0.425254
    C   C4   0.332288  0.543896  0.510876  0.641325
    Cu  Cu1  0.503420  0.420929  0.501657  0.855558
    Cu  Cu2  0.503782  0.570042  0.503087  0.822587
    C   C5   0.772260  0.420964  0.483750  -0.062543
    C   C6   0.233955  0.570810  0.515966  -0.094733
    C   C7   0.911220  0.324177  0.457938  -0.270518
    C   C8   0.093079  0.669991  0.528846  -0.322683
    C   C9   0.819837  0.345726  0.460909  0.038636
    C   C10  0.184291  0.648312  0.531144  -0.023943
    C   C11  0.817588  0.474031  0.498127  -0.053384
    C   C12  0.189620  0.516632  0.502661  -0.136258
    C   C13  0.909427  0.454437  0.488937  -0.084576
    C   C14  0.096805  0.537632  0.503899  -0.021463
    C   C15  0.955365  0.377689  0.471463  0.277754
    C   C16  0.049835  0.615576  0.516520  0.347972
    C   C17  0.956564  0.508801  0.497388  0.121455
    C   C18  0.049655  0.483525  0.492976  0.064896
    C   C19  0.093075  0.404734  0.477472  -0.186870
    C   C20  0.912443  0.588477  0.507966  -0.220493
    C   C21  0.046184  0.353456  0.465924  -0.267022
    C   C22  0.958718  0.640536  0.517595  -0.318111
    H   H1   0.082014  0.293049  0.452733  0.142932
    H   H2   0.922326  0.701929  0.526320  0.148114
    H   H3   0.230436  0.457897  0.491161  0.111630
    H   H4   0.778937  0.530004  0.518668  0.062695
    H   H5   0.948749  0.265659  0.440805  0.111653
    H   H6   0.054821  0.730281  0.540414  0.145044
    H   H7   0.163870  0.379637  0.472026  0.147340
    H   H8   0.841346  0.614100  0.507585  0.191290
    C   C23  0.540021  0.548861  0.258898  -0.040249
    C   C24  0.541200  0.426685  0.752274  -0.055972
    C   C25  0.538676  0.550529  0.187856  -0.184835
    C   C26  0.524109  0.432511  0.822494  -0.203250
    H   H9   0.575896  0.584363  0.165122  0.115443
    H   H10  0.552945  0.382650  0.855930  0.109422
    C   C27  0.499754  0.504845  0.148849  0.071925
    C   C28  0.477082  0.503430  0.852267  0.222599
    C   C29  0.480980  0.443647  0.185068  -0.174498
    C   C30  0.446382  0.570260  0.811567  -0.105273
    C   C31  0.476720  0.445330  0.256394  -0.095795
    C   C32  0.462308  0.564310  0.741467  -0.233240
    H   H11  0.457701  0.400157  0.283162  0.098176
    H   H12  0.435459  0.615697  0.709588  0.201230
    C   C33  0.502549  0.499676  0.293883  0.012665
    C   C34  0.507934  0.493136  0.710969  -0.003757
    C   C35  0.425939  0.483575  0.039258  -0.093200
    C   C36  0.521117  0.552336  0.958639  -0.115378
    H   H13  0.380994  0.462088  0.069031  0.090033
    H   H14  0.553686  0.584338  0.926472  0.081917
    C   C37  0.422135  0.477264  0.968320  -0.131368
    C   C38  0.520689  0.562443  0.029035  -0.198022
    C   C39  0.473772  0.509252  0.927628  0.042964
    C   C40  0.483393  0.517459  0.071808  0.051544
    C   C41  0.568851  0.253151  0.532385  0.198934
    C   C42  0.441220  0.736468  0.468474  0.233280
    H   H15  0.622452  0.268221  0.556670  0.083954
    H   H16  0.390175  0.720284  0.441108  0.032613
    C   C43  0.569620  0.175970  0.532909  -0.278699
    C   C44  0.440604  0.813586  0.467075  -0.253356
    H   H17  0.623056  0.132349  0.559215  0.112431
    H   H18  0.389116  0.856532  0.438416  0.113423
    C   C45  0.501884  0.155579  0.501296  0.146011
    C   C46  0.506567  0.834712  0.500500  0.072285
    C   C47  0.433609  0.214306  0.470651  -0.218126
    C   C48  0.573264  0.776885  0.533658  -0.176104
    H   H19  0.379783  0.200905  0.444617  0.118721
    H   H20  0.626198  0.790982  0.560371  0.107040
    C   C49  0.435011  0.291049  0.471107  0.005822
    C   C50  0.571071  0.700417  0.534915  -0.038583
    H   H21  0.381835  0.336329  0.446201  0.125369
    H   H22  0.622961  0.655639  0.561598  0.102819
    N   N1   0.503266  0.309152  0.500321  -0.136779
    N   N2   0.504114  0.681752  0.504219  -0.048300
    C   C51  0.424724  0.054867  0.508955  -0.141423
    C   C52  0.583304  0.935339  0.492445  -0.161812
    H   H23  0.362181  0.100643  0.517509  0.109867
    H   H24  0.645861  0.889369  0.484480  0.118045
    C   C53  0.426120  0.977409  0.508952  -0.209569
    C   C54  0.581883  0.012772  0.492161  -0.181927
    H   H25  0.364680  0.964558  0.517502  0.148030
    H   H26  0.643425  0.025423  0.483711  0.140627
    C   C55  0.505413  0.917111  0.500624  0.161740
    C   C56  0.502687  0.073156  0.500589  0.108203
    C   C57  0.364282  0.434814  0.939834  0.273052
    C   C58  0.312879  0.454702  0.881159  -0.292882
    C   C59  0.267890  0.401666  0.877013  -0.112856
    C   C60  0.294070  0.353565  0.933506  -0.189917
    O   O9   0.352163  0.373792  0.972318  -0.026309
    H   H27  0.305983  0.503585  0.846528  0.168234
    H   H28  0.220100  0.398820  0.838075  0.128027
    H   H29  0.269631  0.305158  0.945888  0.146777
    C   C61  0.541656  0.633045  0.050156  0.446113
    C   C62  0.482477  0.695976  0.083223  -0.114611
    C   C63  0.523631  0.751868  0.086598  -0.333941
    C   C64  0.604257  0.719755  0.054317  -0.027230
    O   O10  0.615149  0.647709  0.030988  -0.203250
    H   H30  0.416657  0.700401  0.101727  0.100642
    H   H31  0.497829  0.809930  0.109081  0.181541
    H   H32  0.653064  0.749881  0.047377  0.125443
    C   C65  0.222942  0.708437  0.554205  0.325951
    C   C66  0.278398  0.700245  0.610193  -0.192186
    C   C67  0.292112  0.770956  0.617338  -0.327670
    C   C68  0.242803  0.817840  0.565993  0.006753
    O   O11  0.199444  0.780410  0.527845  -0.178126
    H   H33  0.303713  0.648845  0.642517  0.127932
    H   H34  0.332277  0.787348  0.655984  0.184600
    H   H35  0.238590  0.878666  0.557714  0.096351
    C   C69  0.777251  0.289332  0.435071  0.210338
    C   C70  0.805738  0.210292  0.450254  -0.209582
    C   C71  0.751339  0.179340  0.414069  -0.210657
    C   C72  0.694145  0.241384  0.378699  -0.072419
    O   O12  0.709932  0.308585  0.390861  -0.101978
    H   H36  0.859460  0.179151  0.484296  0.143162
    H   H37  0.752585  0.118593  0.413349  0.134201
    H   H38  0.641980  0.236601  0.344675  0.134257
    C   C73  0.589122  0.594883  0.294290  0.234804
    C   C74  0.582563  0.671310  0.278109  -0.274559
    C   C75  0.640078  0.690491  0.321223  -0.174009
    C   C76  0.678333  0.624340  0.360254  -0.073956
    O   O13  0.647909  0.565655  0.343922  -0.073266
    H   H39  0.540148  0.708739  0.239721  0.167649
    H   H40  0.653240  0.746117  0.324127  0.123995
    H   H41  0.727886  0.619922  0.399757  0.103086
    C   C77  0.603626  0.353180  0.725583  0.241860
    C   C78  0.610663  0.279381  0.750259  -0.230257
    C   C79  0.681105  0.229458  0.716520  -0.217027
    C   C80  0.712840  0.276140  0.674217  0.004000
    O   O14  0.666022  0.351672  0.679503  -0.127869
    H   H42  0.569478  0.263759  0.788579  0.155059
    H   H43  0.707224  0.166219  0.722143  0.146656
    H   H44  0.769456  0.254337  0.640201  0.080087
    C   C81  0.479621  0.369445  0.153283  0.384073
    C   C82  0.538038  0.328982  0.103339  -0.189379
    C   C83  0.516462  0.262460  0.091675  -0.302423
    C   C84  0.447380  0.266316  0.135891  -0.051340
    O   O15  0.425189  0.330958  0.174150  -0.168032
    H   H45  0.590662  0.345871  0.078902  0.139581
    H   H46  0.547644  0.215806  0.055615  0.178615
    H   H47  0.414835  0.221700  0.139887  0.127588
    C   C85  0.394695  0.646893  0.841144  0.231418
    C   C86  0.393719  0.718763  0.815174  -0.149477
    C   C87  0.338724  0.773242  0.857364  -0.220032
    C   C88  0.309596  0.731177  0.905974  -0.107677
    O   O16  0.343242  0.654191  0.896379  -0.103863
    H   H48  0.430146  0.730446  0.771486  0.113582
    H   H49  0.321828  0.836550  0.853713  0.147666
    H   H50  0.264526  0.757305  0.947646  0.142855
