# generated using pymatgen
data_FeH8C21BrO8
_symmetry_space_group_name_H-M   'P 1'
_cell_length_a   15.66942100
_cell_length_b   11.93634200
_cell_length_c   13.52115900
_cell_angle_alpha   91.42523600
_cell_angle_beta   87.14176700
_cell_angle_gamma   107.17924800
_symmetry_Int_Tables_number   1
_chemical_formula_structural   FeH8C21BrO8
_chemical_formula_sum   'Fe2 H16 C42 Br2 O16'
_cell_volume   2412.96803769
_cell_formula_units_Z   2
loop_
 _symmetry_equiv_pos_site_id
 _symmetry_equiv_pos_as_xyz
  1  'x, y, z'
loop_
 _atom_site_type_symbol
 _atom_site_label
 _atom_site_symmetry_multiplicity
 _atom_site_fract_x
 _atom_site_fract_y
 _atom_site_fract_z
 _atom_site_occupancy
  Fe  Fe1  1  0.52542000  0.02898500  0.18112700  1
  Fe  Fe2  1  0.51994100  0.01356600  0.74517800  1
  H  H1  1  0.94388700  0.05135800  0.81481500  1
  H  H2  1  0.18632700  0.98783400  0.81457400  1
  H  H3  1  0.04366200  0.98481200  0.85451300  1
  H  H4  1  0.80243700  0.05195200  0.76530800  1
  H  H5  1  0.24820300  0.98252300  0.16545200  1
  H  H6  1  0.80548300  0.02852100  0.19478200  1
  H  H7  1  0.53281900  0.43246800  0.71032100  1
  H  H8  1  0.42299700  0.53099900  0.66600100  1
  H  H9  1  0.47466600  0.38197800  0.22117600  1
  H  H10  1  0.40189000  0.52164100  0.26790200  1
  H  H11  1  0.45979500  0.11520700  0.47628200  1
  H  H12  1  0.51999000  0.89662200  0.46294800  1
  H  H13  1  0.61228400  0.51706900  0.62061100  1
  H  H14  1  0.52544500  0.63127000  0.70807700  1
  H  H15  1  0.58016200  0.46822800  0.26682500  1
  H  H16  1  0.51175100  0.59931100  0.21639700  1
  C  C1  1  0.89178600  0.03488500  0.87210100  1
  C  C2  1  0.28468300  0.98911400  0.91873200  1
  C  C3  1  0.19996400  0.98537200  0.89187700  1
  C  C4  1  0.13322000  0.98514000  0.96265500  1
  C  C5  1  0.05179600  0.98957500  0.93298000  1
  C  C6  1  0.98507100  0.00016200  0.00130700  1
  C  C7  1  0.81050600  0.03974100  0.84283200  1
  C  C8  1  0.73877200  0.02116000  0.90920400  1
  C  C9  1  0.90415100  0.01344700  0.97032600  1
  C  C10  1  0.83459800  0.00898100  0.03931600  1
  C  C11  1  0.75038700  0.00905500  0.00883600  1
  C  C12  1  0.30071800  0.98808500  0.01916900  1
  C  C13  1  0.23142100  0.97814800  0.08884400  1
  C  C14  1  0.14741700  0.97877900  0.06120400  1
  C  C15  1  0.07809600  0.97389100  0.13084100  1
  C  C16  1  0.99900600  0.99439200  0.10196300  1
  C  C17  1  0.93364900  0.01128500  0.17011800  1
  C  C18  1  0.85224700  0.01353600  0.13854700  1
  C  C19  1  0.67381400  0.99613900  0.08035000  1
  C  C20  1  0.49262800  0.80987100  0.28454000  1
  C  C21  1  0.39085000  0.01462200  0.05657600  1
  C  C22  1  0.46953200  0.18204600  0.29770200  1
  C  C23  1  0.53779500  0.83096300  0.63335100  1
  C  C24  1  0.65102200  0.00751900  0.87010500  1
  C  C25  1  0.49753800  0.21058900  0.64809100  1
  C  C26  1  0.35410000  0.99373700  0.83965600  1
  C  C27  1  0.47025400  0.20873100  0.47422500  1
  C  C28  1  0.48740700  0.27436800  0.55990300  1
  C  C29  1  0.50149000  0.39491800  0.55527300  1
  C  C30  1  0.54001500  0.47602600  0.63817000  1
  C  C31  1  0.49515200  0.57125400  0.64717700  1
  C  C32  1  0.47533400  0.26021500  0.38377100  1
  C  C33  1  0.48721200  0.37968900  0.37879600  1
  C  C34  1  0.49384900  0.44494300  0.46559300  1
  C  C35  1  0.49871800  0.56944200  0.46246600  1
  C  C36  1  0.50514000  0.63299900  0.55076400  1
  C  C37  1  0.51568500  0.75183500  0.54821100  1
  C  C38  1  0.50673400  0.44083100  0.28200900  1
  C  C39  1  0.47461100  0.54854400  0.28041000  1
  C  C40  1  0.49231500  0.62176200  0.37300200  1
  C  C41  1  0.49726000  0.74088400  0.37258300  1
  C  C42  1  0.51281500  0.80386200  0.46013800  1
  Br  Br1  1  0.08658400  0.90861600  0.25740000  1
  Br  Br2  1  0.95193800  0.05778400  0.30603500  1
  O  O1  1  0.62064000  0.06305200  0.07471600  1
  O  O2  1  0.45413200  0.76183900  0.20360500  1
  O  O3  1  0.65607300  0.91374600  0.14722300  1
  O  O4  1  0.52512200  0.92450900  0.29270300  1
  O  O5  1  0.41047000  0.94352600  0.11842800  1
  O  O6  1  0.44635900  0.12018100  0.04359700  1
  O  O7  1  0.54095400  0.18944200  0.23984100  1
  O  O8  1  0.40504900  0.08259200  0.29942600  1
  O  O9  1  0.47332500  0.84982200  0.69098200  1
  O  O10  1  0.61541200  0.91208200  0.62900600  1
  O  O11  1  0.64446400  0.06992100  0.79397800  1
  O  O12  1  0.58176600  0.92115700  0.90033200  1
  O  O13  1  0.33291500  0.98309500  0.74647900  1
  O  O14  1  0.52921100  0.12089800  0.63323700  1
  O  O15  1  0.43716600  0.00817700  0.86161900  1
  O  O16  1  0.46188200  0.22777600  0.73487800  1
