# Generated by REPEAT Assigner based on pymatgen
data_DB0-m3_o14_o25_f0_pcu.sym.32_sqe
_audit_creation_date              2022-05-24
_audit_creation_method            REPEAT_Assigner
_cell_length_a                    16.002244
_cell_length_b                    11.013967
_cell_length_c                    9.840151
_cell_angle_alpha                 90.000176
_cell_angle_beta                  90.009169
_cell_angle_gamma                 90.004379
_cell_volume                      1734.308780
_symmetry_space_group_name_H-M    P1
_symmetry_Int_Tables_number       1
loop_
    _symmetry_equiv_pos_site_id
    _symmetry_equiv_pos_as_xyz
    1  x,y,z
loop_
    _atom_site_type_symbol
    _atom_site_label
    _atom_site_fract_x
    _atom_site_fract_y
    _atom_site_fract_z
    _atom_type_partial_charge
    O   O1   0.498857  0.329470  0.626750  -0.543737
    O   O2   0.503095  0.326175  0.395587  -0.683753
    C   C1   0.503119  0.269414  0.513318  0.678479
    O   O3   0.371241  0.508469  0.621629  -0.697973
    O   O4   0.373395  0.503359  0.388740  -0.681661
    C   C2   0.333311  0.505108  0.504315  0.853346
    Zn  Zn1  0.495075  0.509847  0.664487  0.989169
    Zn  Zn2  0.498347  0.506975  0.355198  1.032882
    O   O5   0.493895  0.690316  0.626303  -0.569936
    O   O6   0.494919  0.688530  0.390791  -0.684889
    O   O7   0.620151  0.514471  0.632703  -0.692485
    O   O8   0.622168  0.512507  0.397405  -0.575436
    C   C3   0.490779  0.746697  0.508545  0.768576
    C   C4   0.659896  0.514645  0.515865  0.755428
    C   C5   0.969338  0.413248  0.574989  -0.131475
    C   C6   0.021933  0.411755  0.445794  -0.229983
    H   H1   0.044343  0.330318  0.390440  0.091479
    H   H2   0.944748  0.332617  0.629369  0.071436
    C   C7   0.243641  0.505595  0.502945  -0.139869
    C   C8   0.749585  0.515316  0.517110  -0.047202
    C   C9   0.026051  0.510210  0.635659  -0.185670
    C   C10  0.076948  0.508986  0.506607  0.753651
    C   C11  0.971611  0.609934  0.575096  -0.182936
    C   C12  0.916327  0.512934  0.514436  0.731849
    C   C13  0.024227  0.608937  0.445874  -0.123629
    C   C14  0.967967  0.511696  0.387459  -0.299893
    C   C15  0.168346  0.506842  0.503849  -0.419120
    C   C16  0.824897  0.514711  0.516404  -0.469425
    H   H3   0.048747  0.689414  0.391111  0.075088
    H   H4   0.948901  0.691689  0.629531  0.083858
    H   H5   0.052684  0.509500  0.739710  0.077761
    H   H6   0.518724  0.118880  0.302630  0.115805
    C   C17  0.500316  0.116359  0.768815  -0.135062
    H   H7   0.534921  0.197944  0.789024  0.080938
    C   C18  0.470097  0.056553  0.881068  -0.037505
    H   H8   0.476087  0.096877  0.980694  0.085231
    C   C19  0.429482  0.948241  0.865650  -0.096765
    H   H9   0.400813  0.904348  0.952138  0.080840
    C   C20  0.429566  0.892393  0.741057  -0.268685
    H   H10  0.395469  0.808300  0.732704  0.150827
    C   C21  0.468920  0.945783  0.629852  0.239636
    C   C22  0.491369  0.067359  0.638793  0.072360
    C   C23  0.504226  0.134155  0.518525  -0.118091
    C   C24  0.508527  0.071120  0.397016  -0.158491
    H   H11  0.513843  0.899559  0.298915  0.079011
    C   C25  0.503878  0.945965  0.394140  0.043962
    C   C26  0.484852  0.881282  0.510244  -0.288757
    C   C27  0.393843  0.347421  0.149907  -0.223439
    H   H12  0.392552  0.337760  0.256656  0.203190
    C   C28  0.339396  0.272547  0.082372  -0.078918
    H   H13  0.299672  0.211148  0.138690  0.108431
    C   C29  0.336140  0.274826  0.944229  -0.002619
    H   H14  0.293948  0.215333  0.890118  0.097089
    C   C30  0.387470  0.352166  0.874388  -0.235410
    H   H15  0.382692  0.348127  0.766848  0.167514
    C   C31  0.442089  0.430560  0.940497  0.209096
    C   C32  0.446088  0.428554  0.082024  0.210883
    N   N1   0.499712  0.503436  0.150780  -0.109031
    C   C33  0.547457  0.580894  0.075675  -0.120986
    H   H16  0.581920  0.643607  0.878547  0.127341
    C   C34  0.541948  0.582969  0.935376  0.026857
    N   N2   0.490626  0.507806  0.868162  -0.090387
    C   C35  0.609370  0.663094  0.135501  0.773770
    O   O9   0.671922  0.621266  0.188048  -0.444049
    O   O10  0.608269  0.781342  0.100117  -0.455273
    C   C36  0.674358  0.855733  0.131326  0.462537
    C   C37  0.658888  0.981033  0.073447  -0.324065
    H   H17  0.732545  0.818982  0.085873  -0.030332
    H   H18  0.681414  0.862136  0.243254  -0.048503
    H   H19  0.652565  0.974845  0.961434  0.085377
    H   H20  0.712227  0.041091  0.099070  0.066173
    H   H21  0.600776  0.018949  0.117312  0.095221
    C   C38  0.933076  0.512046  0.247122  0.828696
    O   O11  0.950015  0.594873  0.169651  -0.584617
    O   O12  0.883623  0.420106  0.205824  -0.428783
    C   C39  0.852436  0.416905  0.076038  0.324739
    C   C40  0.799338  0.304223  0.058548  -0.211961
    H   H22  0.904716  0.414290  0.002065  -0.019298
    H   H23  0.813344  0.498372  0.057379  -0.002272
    H   H24  0.838169  0.222450  0.076870  0.069910
    H   H25  0.774023  0.301436  0.953675  0.041455
    H   H26  0.746959  0.306256  0.132295  0.062481
