# generated using pymatgen
data_ZnH17C24NO5
_symmetry_space_group_name_H-M   'P 1'
_cell_length_a   9.13161400
_cell_length_b   8.57370600
_cell_length_c   19.35613400
_cell_angle_alpha   90.00000000
_cell_angle_beta   91.05681600
_cell_angle_gamma   90.00000000
_symmetry_Int_Tables_number   1
_chemical_formula_structural   ZnH17C24NO5
_chemical_formula_sum   'Zn2 H34 C48 N2 O10'
_cell_volume   1515.16828559
_cell_formula_units_Z   2
loop_
 _symmetry_equiv_pos_site_id
 _symmetry_equiv_pos_as_xyz
  1  'x, y, z'
loop_
 _atom_site_type_symbol
 _atom_site_label
 _atom_site_symmetry_multiplicity
 _atom_site_fract_x
 _atom_site_fract_y
 _atom_site_fract_z
 _atom_site_occupancy
  Zn  Zn1  1  0.83606000  0.51719300  0.50153100  1
  Zn  Zn2  1  0.16394100  0.51719300  0.49846900  1
  H  H1  1  0.05467300  0.01656600  0.54863600  1
  H  H2  1  0.94532700  0.01656600  0.45136400  1
  H  H3  1  0.96288200  0.26757100  0.73049000  1
  H  H4  1  0.03711900  0.26757100  0.26951000  1
  H  H5  1  0.98625000  0.76605200  0.73248000  1
  H  H6  1  0.01375000  0.76605200  0.26752000  1
  H  H7  1  0.09683600  0.79097400  0.04452700  1
  H  H8  1  0.90316500  0.79097400  0.95547300  1
  H  H9  1  0.11797800  0.79278200  0.16944700  1
  H  H10  1  0.88202300  0.79278200  0.83055300  1
  H  H11  1  0.91930400  0.24645100  0.17176200  1
  H  H12  1  0.08069600  0.24645100  0.82823800  1
  H  H13  1  0.91538100  0.24831200  0.04711400  1
  H  H14  1  0.08461900  0.24831200  0.95288600  1
  H  H15  1  0.63596800  0.55909100  0.39526800  1
  H  H16  1  0.36403200  0.55909100  0.60473200  1
  H  H17  1  0.36720800  0.67592100  0.41265500  1
  H  H18  1  0.63279200  0.67592100  0.58734500  1
  H  H19  1  0.40351600  0.47908000  0.39376400  1
  H  H20  1  0.59648400  0.47908000  0.60623600  1
  H  H21  1  0.59683900  0.32074000  0.43874800  1
  H  H22  1  0.40316200  0.32074000  0.56125100  1
  H  H23  1  0.36214900  0.27563000  0.47242200  1
  H  H24  1  0.63785200  0.27563000  0.52757800  1
  H  H25  1  0.68190700  0.07477500  0.42729200  1
  H  H26  1  0.66552200  0.23303000  0.32233500  1
  H  H27  1  0.56858800  0.11978300  0.21435400  1
  H  H28  1  0.48978100  0.84589400  0.21143100  1
  H  H29  1  0.50573100  0.68609000  0.31418600  1
  H  H30  1  0.31809300  0.07477500  0.57270800  1
  H  H31  1  0.33447900  0.23303000  0.67766500  1
  H  H32  1  0.43141300  0.11978300  0.78564600  1
  H  H33  1  0.51021900  0.84589400  0.78856900  1
  H  H34  1  0.49426900  0.68609000  0.68581400  1
  C  C1  1  0.00851900  0.15621400  0.63569500  1
  C  C2  1  0.99148100  0.15621400  0.36430500  1
  C  C3  1  0.98190600  0.15704500  0.70555700  1
  C  C4  1  0.01809400  0.15704500  0.29444300  1
  C  C5  1  0.98180600  0.01768100  0.74246600  1
  C  C6  1  0.01819400  0.01768100  0.25753400  1
  C  C7  1  0.98935500  0.87719400  0.70653300  1
  C  C8  1  0.01064600  0.87719400  0.29346700  1
  C  C9  1  0.00982600  0.87785400  0.63611300  1
  C  C10  1  0.99017400  0.87785400  0.36388700  1
  C  C11  1  0.02972100  0.01690700  0.60252600  1
  C  C12  1  0.97027900  0.01690700  0.39747400  1
  C  C13  1  0.05879800  0.89137700  0.07280300  1
  C  C14  1  0.94120200  0.89137700  0.92719700  1
  C  C15  1  0.06939900  0.89254900  0.14403600  1
  C  C16  1  0.93060100  0.89254900  0.85596400  1
  C  C17  1  0.02047500  0.01999400  0.18122500  1
  C  C18  1  0.97952600  0.01999400  0.81877500  1
  C  C19  1  0.96511800  0.14763100  0.14531200  1
  C  C20  1  0.03488200  0.14763100  0.85468800  1
  C  C21  1  0.96054600  0.14848700  0.07413200  1
  C  C22  1  0.03945400  0.14848700  0.92586800  1
  C  C23  1  0.00495100  0.01955300  0.03770700  1
  C  C24  1  0.99504900  0.01955300  0.96229300  1
  C  C25  1  0.00635100  0.73506900  0.59458700  1
  C  C26  1  0.99364900  0.73506900  0.40541300  1
  C  C27  1  0.99388300  0.29871600  0.40597500  1
  C  C28  1  0.00611800  0.29871600  0.59402500  1
  C  C29  1  0.58179400  0.60334300  0.44213900  1
  C  C30  1  0.41820700  0.60334300  0.55786100  1
  C  C31  1  0.41956600  0.57075700  0.43361500  1
  C  C32  1  0.58043400  0.57075700  0.56638500  1
  C  C33  1  0.58221000  0.35981100  0.49258100  1
  C  C34  1  0.41779000  0.35981100  0.50741900  1
  C  C35  1  0.60615900  0.77702400  0.44384700  1
  C  C36  1  0.59193400  0.86990500  0.37975400  1
  C  C37  1  0.63724900  0.02377700  0.38053600  1
  C  C38  1  0.62889300  0.11316800  0.32135400  1
  C  C39  1  0.57506200  0.04970100  0.26073600  1
  C  C40  1  0.53090800  0.89625600  0.25917100  1
  C  C41  1  0.53987000  0.80611900  0.31811500  1
  C  C42  1  0.39384200  0.77702400  0.55615300  1
  C  C43  1  0.40806600  0.86990500  0.62024600  1
  C  C44  1  0.36275100  0.02377700  0.61946400  1
  C  C45  1  0.37110800  0.11316800  0.67864600  1
  C  C46  1  0.42493800  0.04970100  0.73926400  1
  C  C47  1  0.46909300  0.89625600  0.74082900  1
  C  C48  1  0.46013000  0.80611900  0.68188500  1
  N  N1  1  0.64255400  0.51654600  0.50156900  1
  N  N2  1  0.35744600  0.51654600  0.49843100  1
  O  O1  1  0.12938700  0.68443500  0.56948800  1
  O  O2  1  0.87061300  0.68443600  0.43051200  1
  O  O3  1  0.87867600  0.68091700  0.57401200  1
  O  O4  1  0.12132400  0.68091700  0.42598800  1
  O  O5  1  0.86907200  0.34770500  0.43130700  1
  O  O6  1  0.13092800  0.34770500  0.56869300  1
  O  O7  1  0.12270200  0.35457600  0.42533900  1
  O  O8  1  0.87729900  0.35457600  0.57466100  1
  O  O9  1  0.65687100  0.83962000  0.49540100  1
  O  O10  1  0.34313000  0.83962000  0.50459900  1
