# Generated by REPEAT Assigner based on pymatgen
data_DB0-m3_o11_o13_f0_pcu.sym.59
_audit_creation_date              2022-05-24
_audit_creation_method            REPEAT_Assigner
_cell_length_a                    13.150689
_cell_length_b                    11.141663
_cell_length_c                    9.978261
_cell_angle_alpha                 89.997407
_cell_angle_beta                  95.354946
_cell_angle_gamma                 90.005976
_cell_volume                      1455.639522
_symmetry_space_group_name_H-M    P1
_symmetry_Int_Tables_number       1
loop_
    _symmetry_equiv_pos_site_id
    _symmetry_equiv_pos_as_xyz
    1  x,y,z
loop_
    _atom_site_type_symbol
    _atom_site_label
    _atom_site_fract_x
    _atom_site_fract_y
    _atom_site_fract_z
    _atom_type_partial_charge
    O   O1   0.497189  0.311492  0.609518  -0.580259
    O   O2   0.492176  0.302616  0.378167  -0.651722
    C   C1   0.496888  0.250562  0.496726  0.613908
    O   O3   0.337162  0.479993  0.588197  -0.675531
    O   O4   0.332768  0.474024  0.357799  -0.569866
    C   C2   0.286382  0.474802  0.468592  0.662377
    Zn  Zn1  0.490065  0.491543  0.635758  1.089907
    Zn  Zn2  0.483532  0.479287  0.330360  1.010027
    O   O5   0.479892  0.668010  0.587936  -0.701231
    O   O6   0.478434  0.659560  0.356737  -0.742616
    O   O7   0.640747  0.499329  0.609252  -0.687679
    O   O8   0.636618  0.489489  0.377265  -0.674083
    C   C3   0.476851  0.719815  0.469784  0.953733
    C   C4   0.686312  0.496862  0.497601  0.764009
    C   C5   0.798060  0.504451  0.509570  -0.113356
    C   C6   0.173161  0.472673  0.456021  -0.094065
    C   C7   0.016229  0.424910  0.322941  0.300699
    C   C8   0.121842  0.426824  0.340145  -0.355645
    C   C9   0.117476  0.517543  0.556594  -0.001819
    C   C10  0.010587  0.514722  0.540632  0.190924
    C   C11  0.960339  0.468843  0.423365  -0.119421
    C   C12  0.854090  0.465640  0.407501  -0.009819
    C   C13  0.848105  0.549036  0.626092  -0.078271
    C   C14  0.952736  0.555714  0.640966  -0.229645
    H   H1   0.813681  0.429919  0.317094  0.028260
    H   H2   0.806086  0.581140  0.706953  0.109093
    H   H3   0.986278  0.592648  0.734286  0.106833
    H   H4   0.164974  0.388588  0.263958  0.210544
    C   C15  0.507980  0.922543  0.380864  0.588987
    C   C16  0.464988  0.850831  0.467265  -0.692941
    H   H5   0.421265  0.888999  0.543102  0.233839
    C   C17  0.496536  0.054718  0.387686  -0.429947
    C   C18  0.504975  0.118204  0.502971  0.138063
    H   H6   0.485326  0.101899  0.292662  0.178271
    C   C19  0.546113  0.427519  0.916160  0.162560
    N   N1   0.496742  0.502654  0.836670  -0.370090
    H   H7   0.588935  0.356019  0.873855  0.112818
    H   H8   0.469455  0.577332  0.882082  0.273266
    C   C20  0.555277  0.443968  0.064579  -0.098041
    N   N2   0.478069  0.471500  0.129113  0.025584
    H   H9   0.628638  0.427241  0.120156  0.163654
    N   N3   0.532543  0.059619  0.627482  -0.042676
    C   C21  0.636682  0.081542  0.680014  -0.063873
    C   C22  0.460125  0.074304  0.726389  -0.200641
    H   H10  0.673049  0.146269  0.614896  0.031616
    H   H11  0.679861  0.995975  0.681753  0.021271
    H   H12  0.639755  0.117481  0.783902  0.041507
    H   H13  0.381342  0.069269  0.676271  0.064733
    H   H14  0.470508  0.161213  0.779694  0.056422
    H   H15  0.470951  0.001087  0.801697  0.049410
    N   N4   0.385585  0.456869  0.055130  0.096904
    C   C23  0.343742  0.338658  0.071830  -0.286597
    C   C24  0.315819  0.552824  0.077633  -0.398870
    H   H16  0.397102  0.269999  0.038787  0.093082
    H   H17  0.269720  0.328929  0.010135  0.110213
    H   H18  0.332451  0.321807  0.178493  0.094145
    H   H19  0.350324  0.613281  0.156978  0.182246
    H   H20  0.242681  0.516777  0.106978  0.132851
    H   H21  0.301467  0.606738  0.984549  0.092107
    N   N5   0.964858  0.374703  0.205180  -0.127572
    C   C25  0.991794  0.429751  0.082814  -0.275460
    C   C26  0.972665  0.245896  0.201682  -0.120813
    H   H22  0.992371  0.528745  0.094568  0.092616
    H   H23  0.934422  0.405139  0.998737  0.094262
    H   H24  0.067790  0.398416  0.058189  0.097285
    H   H25  0.947644  0.207970  0.295980  0.064148
    H   H26  0.052614  0.218325  0.191718  0.017581
    H   H27  0.922764  0.210444  0.114929  0.071113
    N   N6   0.171241  0.562614  0.675088  0.133356
    C   C27  0.165427  0.486611  0.791079  0.018290
    C   C28  0.164505  0.690866  0.694096  -0.184789
    H   H28  0.114735  0.409004  0.764532  -0.009659
    H   H29  0.136380  0.535653  0.876078  0.028278
    H   H30  0.242583  0.451032  0.821423  -0.020377
    H   H31  0.115011  0.731156  0.609857  0.050406
    H   H32  0.241893  0.730427  0.694102  0.040946
    H   H33  0.133708  0.713888  0.790446  0.040201
    N   N7   0.561445  0.871367  0.278035  -0.176561
    C   C29  0.501387  0.869839  0.149735  -0.177181
    C   C30  0.659972  0.925624  0.269025  -0.254009
    H   H34  0.425526  0.829856  0.161331  0.059702
    H   H35  0.540733  0.815350  0.077210  0.106860
    H   H36  0.490669  0.962321  0.109998  0.051706
    H   H37  0.702424  0.928038  0.370398  0.096941
    H   H38  0.651632  0.018090  0.228394  0.064251
    H   H39  0.703978  0.871502  0.201184  0.103313
