# generated using pymatgen
data_Zn2H13C32(NO3)3
_symmetry_space_group_name_H-M   'P 1'
_cell_length_a   8.54718600
_cell_length_b   10.69888500
_cell_length_c   13.36976700
_cell_angle_alpha   97.65293600
_cell_angle_beta   90.09300100
_cell_angle_gamma   90.00842300
_symmetry_Int_Tables_number   1
_chemical_formula_structural   Zn2H13C32(NO3)3
_chemical_formula_sum   'Zn2 H13 C32 N3 O9'
_cell_volume   1211.71166143
_cell_formula_units_Z   1
loop_
 _symmetry_equiv_pos_site_id
 _symmetry_equiv_pos_as_xyz
  1  'x, y, z'
loop_
 _atom_site_type_symbol
 _atom_site_label
 _atom_site_symmetry_multiplicity
 _atom_site_fract_x
 _atom_site_fract_y
 _atom_site_fract_z
 _atom_site_occupancy
  Zn  Zn1  1  0.49649200  0.49724800  0.10997300  1
  Zn  Zn2  1  0.50083900  0.50755100  0.88768500  1
  H  H1  1  0.99875400  0.59315300  0.05547300  1
  H  H2  1  0.99146400  0.41006800  0.93965600  1
  H  H3  1  0.25307000  0.90639300  0.98853100  1
  H  H4  1  0.25358400  0.09895000  0.00272800  1
  H  H5  1  0.61029500  0.10695600  0.99102400  1
  H  H6  1  0.74864600  0.48042100  0.74306500  1
  H  H7  1  0.26246100  0.54126900  0.75198700  1
  H  H8  1  0.12157800  0.56447300  0.60137100  1
  H  H9  1  0.11294100  0.55473200  0.41989500  1
  H  H10  1  0.73618700  0.47853800  0.24700200  1
  H  H11  1  0.87832800  0.44999100  0.39841000  1
  H  H12  1  0.88422600  0.45347900  0.58248900  1
  H  H13  1  0.16710300  0.51348800  0.17899900  1
  C  C1  1  0.99959600  0.69133400  0.04489100  1
  C  C2  1  0.13882600  0.74917500  0.02835700  1
  C  C3  1  0.14087700  0.87081300  0.00722900  1
  C  C4  1  0.86024800  0.75232500  0.03474000  1
  C  C5  1  0.86147500  0.87765900  0.01767800  1
  C  C6  1  0.00275400  0.93917800  0.00716700  1
  C  C7  1  0.00217600  0.06550700  0.99150200  1
  C  C8  1  0.13998400  0.13410300  0.98636500  1
  C  C9  1  0.13597500  0.25539300  0.96348300  1
  C  C10  1  0.72218400  0.06124500  0.99608100  1
  C  C11  1  0.85989400  0.12629100  0.98552500  1
  C  C12  1  0.85698000  0.25149600  0.96837000  1
  C  C13  1  0.99451800  0.31232500  0.95165700  1
  C  C14  1  0.28100000  0.67414200  0.01860200  1
  C  C15  1  0.27744500  0.33284200  0.97298400  1
  C  C16  1  0.71518800  0.32864700  0.97865000  1
  C  C17  1  0.71810700  0.67441700  0.02486800  1
  C  C18  1  0.64028000  0.49386600  0.70413800  1
  C  C19  1  0.36987000  0.52870600  0.70941100  1
  C  C20  1  0.36586600  0.52566400  0.60620800  1
  C  C21  1  0.50099400  0.50554700  0.55117900  1
  C  C22  1  0.63945900  0.49005000  0.60026900  1
  C  C23  1  0.22695600  0.54305900  0.55806300  1
  C  C24  1  0.22226200  0.53437300  0.45447600  1
  C  C25  1  0.35752500  0.50895100  0.39840400  1
  C  C26  1  0.49724100  0.49993300  0.44761200  1
  C  C27  1  0.63272600  0.48337300  0.39264700  1
  C  C28  1  0.77211800  0.46686800  0.44142100  1
  C  C29  1  0.77533600  0.46884900  0.54500200  1
  C  C30  1  0.35449700  0.49543800  0.29389900  1
  C  C31  1  0.62832500  0.48501600  0.28940000  1
  C  C32  1  0.20281100  0.46993700  0.24320000  1
  N  N1  1  0.72536800  0.93930100  0.01122400  1
  N  N2  1  0.50585300  0.51230100  0.75688300  1
  N  N3  1  0.49053700  0.49260800  0.24100700  1
  O  O1  1  0.33224600  0.63607900  0.92731800  1
  O  O2  1  0.33587300  0.63264800  0.09947100  1
  O  O3  1  0.32811700  0.37046800  0.06452000  1
  O  O4  1  0.33438200  0.37494500  0.89263600  1
  O  O5  1  0.66476700  0.36818100  0.07033100  1
  O  O6  1  0.66243700  0.37268100  0.89796900  1
  O  O7  1  0.66885800  0.63492200  0.93294200  1
  O  O8  1  0.66315500  0.62985600  0.10505200  1
  O  O9  1  0.11325500  0.39502700  0.27398700  1
