# generated using pymatgen
data_Cu6H56C97O25
_symmetry_space_group_name_H-M   'P 1'
_cell_length_a   18.64933200
_cell_length_b   18.62830500
_cell_length_c   18.64539500
_cell_angle_alpha   109.34414200
_cell_angle_beta   109.83116500
_cell_angle_gamma   109.20589300
_symmetry_Int_Tables_number   1
_chemical_formula_structural   Cu6H56C97O25
_chemical_formula_sum   'Cu6 H56 C97 O25'
_cell_volume   4988.26441068
_cell_formula_units_Z   1
loop_
 _symmetry_equiv_pos_site_id
 _symmetry_equiv_pos_as_xyz
  1  'x, y, z'
loop_
 _atom_site_type_symbol
 _atom_site_label
 _atom_site_symmetry_multiplicity
 _atom_site_fract_x
 _atom_site_fract_y
 _atom_site_fract_z
 _atom_site_occupancy
  Cu  Cu1  1  0.50232000  0.43874800  0.44150000  1
  Cu  Cu2  1  0.50160500  0.56044200  0.56185900  1
  Cu  Cu3  1  0.93687700  0.43977600  0.99757500  1
  Cu  Cu4  1  0.05812500  0.56134900  0.99830000  1
  Cu  Cu5  1  0.93843900  0.00050400  0.43883500  1
  Cu  Cu6  1  0.06016500  0.00051000  0.56080700  1
  H  H1  1  0.66584100  0.37370400  0.60520900  1
  H  H2  1  0.60375000  0.37198400  0.66139600  1
  H  H3  1  0.70742600  0.37431900  0.76960700  1
  H  H4  1  0.76740300  0.37181600  0.71131000  1
  H  H5  1  0.77465200  0.51585100  0.63453500  1
  H  H6  1  0.87673200  0.51181200  0.73607400  1
  H  H7  1  0.71326100  0.61615600  0.79722400  1
  H  H8  1  0.63432000  0.51254800  0.77610300  1
  H  H9  1  0.74068700  0.51696700  0.88192300  1
  H  H10  1  0.82077500  0.61815300  0.90081400  1
  H  H11  1  0.79568800  0.61743300  0.71648100  1
  H  H12  1  0.90137200  0.61581400  0.81823200  1
  H  H13  1  0.15027900  0.16875700  0.20287300  1
  H  H14  1  0.45522900  0.43377500  0.66381800  1
  H  H15  1  0.46726000  0.44385200  0.79934300  1
  H  H16  1  0.34698800  0.33825700  0.79958900  1
  H  H17  1  0.21624300  0.22156400  0.66427300  1
  H  H18  1  0.05645900  0.05489400  0.33611900  1
  H  H19  1  0.04116400  0.04980800  0.20142400  1
  H  H20  1  0.27571400  0.29117300  0.33907900  1
  H  H21  1  0.46410300  0.51769000  0.16603600  1
  H  H22  1  0.27100600  0.47193100  0.42897300  1
  H  H23  1  0.03845900  0.48654900  0.33552900  1
  H  H24  1  0.05586700  0.50171300  0.21961700  1
  H  H25  1  0.21522100  0.49608600  0.05191600  1
  H  H26  1  0.34467900  0.50687600  0.04651700  1
  H  H27  1  0.45251500  0.51509300  0.28945000  1
  H  H28  1  0.85140800  0.55131100  0.51347100  1
  H  H29  1  0.54849100  0.70993000  0.48614000  1
  H  H30  1  0.53666000  0.83452000  0.48731600  1
  H  H31  1  0.65478000  0.95417000  0.49863300  1
  H  H32  1  0.78318900  0.94768100  0.50626100  1
  H  H33  1  0.94131900  0.77824900  0.49222000  1
  H  H34  1  0.95782600  0.65863500  0.50083700  1
  H  H35  1  0.72749000  0.56257300  0.51480100  1
  H  H36  1  0.01582900  0.16808500  0.96424800  1
  H  H37  1  0.98015600  0.43634900  0.77113500  1
  H  H38  1  0.97678300  0.44571200  0.64503400  1
  H  H39  1  0.98817300  0.33808000  0.53725500  1
  H  H40  1  0.00182400  0.22086800  0.55531500  1
  H  H41  1  0.99459500  0.05381000  0.71641700  1
  H  H42  1  0.00457400  0.04837600  0.84581300  1
  H  H43  1  0.01462400  0.29164300  0.95163400  1
  H  H44  1  0.69959200  0.55010200  0.03891400  1
  H  H45  1  0.16094700  0.71167000  0.22263500  1
  H  H46  1  0.29681400  0.83695800  0.34536800  1
  H  H47  1  0.29765100  0.95631200  0.45378900  1
  H  H48  1  0.16263600  0.94880900  0.44035500  1
  H  H49  1  0.83593000  0.77788200  0.28643600  1
  H  H50  1  0.70017900  0.65751200  0.15887800  1
  H  H51  1  0.83472300  0.56210100  0.04821100  1
  H  H52  1  0.14178500  0.39138100  0.55889700  1
  H  H53  1  0.25866300  0.44609200  0.70648500  1
  H  H54  1  0.39715400  0.58329600  0.77792500  1
  H  H55  1  0.41694900  0.66758800  0.70207500  1
  H  H56  1  0.29939300  0.61566500  0.55598200  1
  C  C1  1  0.38439200  0.38215900  0.50178300  1
  C  C2  1  0.62066100  0.50071000  0.62113300  1
  C  C3  1  0.61904100  0.61706600  0.50105800  1
  C  C4  1  0.38342000  0.49859600  0.38216000  1
  C  C5  1  0.66857900  0.40764400  0.66824200  1
  C  C6  1  0.73830800  0.40778800  0.74009100  1
  C  C7  1  0.77834400  0.54857900  0.69836600  1
  C  C8  1  0.69737800  0.54766000  0.77949200  1
  C  C9  1  0.69064400  0.50119600  0.69135000  1
  C  C10  1  0.80961100  0.50142300  0.81006500  1
  C  C11  1  0.84889400  0.54725800  0.76781600  1
  C  C12  1  0.76939600  0.54924100  0.85041000  1
  C  C13  1  0.40047500  0.38532800  0.65976800  1
  C  C14  1  0.40848800  0.39158200  0.73792500  1
  C  C15  1  0.34137400  0.33239800  0.73803000  1
  C  C16  1  0.26706600  0.26533300  0.65986900  1
  C  C17  1  0.25894400  0.25634100  0.57992900  1
  C  C18  1  0.32499200  0.31887000  0.58013500  1
  C  C19  1  0.18526700  0.18641100  0.50046800  1
  C  C20  1  0.17724500  0.18053500  0.42138900  1
  C  C21  1  0.24136500  0.24545200  0.42194400  1
  C  C22  1  0.31578000  0.31421600  0.50125200  1
  C  C23  1  0.10619700  0.10937100  0.34110100  1
  C  C24  1  0.09695700  0.10520500  0.26326500  1
  C  C25  1  0.15808800  0.17154800  0.26405700  1
  C  C26  1  0.22993300  0.24109700  0.34260100  1
  C  C27  1  0.22714400  0.48201800  0.38365800  1
  C  C28  1  0.15555200  0.48046700  0.39098400  1
  C  C29  1  0.09479900  0.48723600  0.33071200  1
  C  C30  1  0.10511400  0.49525800  0.26368200  1
  C  C31  1  0.17621300  0.49543500  0.25472700  1
  C  C32  1  0.23964000  0.49225600  0.31748600  1
  C  C33  1  0.18446300  0.49926300  0.18432500  1
  C  C34  1  0.25767400  0.50168100  0.17836700  1
  C  C35  1  0.32329100  0.50307600  0.24371600  1
  C  C36  1  0.31416700  0.49771800  0.31312100  1
  C  C37  1  0.26563700  0.50133800  0.10669900  1
  C  C38  1  0.33919900  0.50671200  0.10235100  1
  C  C39  1  0.40584200  0.51247500  0.16902600  1
  C  C40  1  0.39811900  0.51045200  0.23914500  1
  C  C41  1  0.60253700  0.76043600  0.49141100  1
  C  C42  1  0.59458700  0.83119200  0.49137500  1
  C  C43  1  0.66047600  0.89792900  0.49740100  1
  C  C44  1  0.73344800  0.89300500  0.50104700  1
  C  C45  1  0.74158800  0.82077500  0.49885200  1
  C  C46  1  0.67691500  0.75533200  0.49721400  1
  C  C47  1  0.81407100  0.81427800  0.49952300  1
  C  C48  1  0.82247800  0.74298100  0.50055300  1
  C  C49  1  0.75979200  0.67964400  0.50297900  1
  C  C50  1  0.68639400  0.68516800  0.50037100  1
  C  C51  1  0.89272500  0.73351800  0.49808000  1
  C  C52  1  0.90263400  0.66483900  0.50226300  1
  C  C53  1  0.84300000  0.60468300  0.50901200  1
  C  C54  1  0.77194400  0.61164300  0.50914400  1
  C  C55  1  0.99776300  0.38322000  0.88034800  1
  C  C56  1  0.87937600  0.50124100  0.87983900  1
  C  C57  1  0.99766300  0.61788300  0.11601800  1
  C  C58  1  0.11573400  0.49987800  0.11606300  1
  C  C59  1  0.99939200  0.88285300  0.38241000  1
  C  C60  1  0.11687500  0.11816700  0.50007300  1
  C  C61  1  0.99913500  0.11826000  0.61708700  1
  C  C62  1  0.88189900  0.88282000  0.49969200  1
  C  C63  1  0.98553200  0.38726200  0.72616200  1
  C  C64  1  0.98300300  0.39315400  0.65391000  1
  C  C65  1  0.98920400  0.33287900  0.59358700  1
  C  C66  1  0.99606200  0.26544200  0.60431300  1
  C  C67  1  0.99590900  0.25684000  0.67564300  1
  C  C68  1  0.99359600  0.32006800  0.73864800  1
  C  C69  1  0.99897800  0.18649900  0.68483500  1
  C  C70  1  0.00107800  0.18043200  0.75789600  1
  C  C71  1  0.00273600  0.24579100  0.82274000  1
  C  C72  1  0.99822700  0.31525000  0.81280300  1
  C  C73  1  0.00003400  0.10864900  0.76635900  1
  C  C74  1  0.00494000  0.10426900  0.83988900  1
  C  C75  1  0.01093300  0.17102500  0.90594700  1
  C  C76  1  0.00963300  0.24122600  0.89760100  1
  C  C77  1  0.15709800  0.76201200  0.26790700  1
  C  C78  1  0.23551000  0.83318800  0.33830900  1
  C  C79  1  0.23597600  0.89975800  0.39906100  1
  C  C80  1  0.15802200  0.89426400  0.39087000  1
  C  C81  1  0.07800400  0.82162700  0.32117800  1
  C  C82  1  0.07755500  0.75634900  0.25744000  1
  C  C83  1  0.99898600  0.81451300  0.31425600  1
  C  C84  1  0.91953600  0.74291100  0.24241500  1
  C  C85  1  0.91913400  0.67966400  0.17673600  1
  C  C86  1  0.99812600  0.68579700  0.18462500  1
  C  C87  1  0.83990300  0.73310600  0.23583700  1
  C  C88  1  0.76153800  0.66401100  0.16336100  1
  C  C89  1  0.76119800  0.60381600  0.09645900  1
  C  C90  1  0.83920200  0.61120600  0.10293000  1
  C  C91  1  0.14043200  0.46654300  0.45898500  1
  C  C92  1  0.21297800  0.49860300  0.54624900  1
  C  C93  1  0.20177700  0.45237300  0.58989300  1
  C  C94  1  0.26775300  0.48280900  0.67291200  1
  C  C95  1  0.34532600  0.55968900  0.71294500  1
  C  C96  1  0.35649200  0.60672900  0.67029200  1
  C  C97  1  0.29035800  0.57673800  0.58746100  1
  O  O1  1  0.43058000  0.35990600  0.46781200  1
  O  O2  1  0.39678200  0.46258100  0.53618500  1
  O  O3  1  0.60790200  0.46538100  0.54056900  1
  O  O4  1  0.57451200  0.53544000  0.64244500  1
  O  O5  1  0.57386900  0.53634200  0.43371100  1
  O  O6  1  0.60654900  0.63955400  0.56895600  1
  O  O7  1  0.39661600  0.43090800  0.36099400  1
  O  O8  1  0.42881200  0.56665100  0.46266100  1
  O  O9  1  0.92938300  0.36095800  0.89197200  1
  O  O10  1  0.06572800  0.46355000  0.92644500  1
  O  O11  1  0.85741800  0.46645400  0.92567400  1
  O  O12  1  0.95991100  0.53563900  0.89259300  1
  O  O13  1  0.96316400  0.53738100  0.10330700  1
  O  O14  1  0.03175600  0.64033100  0.07007500  1
  O  O15  1  0.03516300  0.43194100  0.06953500  1
  O  O16  1  0.13751800  0.56820800  0.10394400  1
  O  O17  1  0.96518100  0.92915100  0.35999900  1
  O  O18  1  0.03377200  0.89489900  0.46298500  1
  O  O19  1  0.03626300  0.10606600  0.46553000  1
  O  O20  1  0.13907600  0.07177100  0.53427900  1
  O  O21  1  0.93060000  0.07184800  0.53661300  1
  O  O22  1  0.06762100  0.10613400  0.63962900  1
  O  O23  1  0.85959600  0.89495400  0.43117000  1
  O  O24  1  0.96233200  0.92922600  0.56837000  1
  O  O25  1  0.06507600  0.42675200  0.44232800  1
