# Generated by REPEAT Assigner based on pymatgen
data_DB0-m29_o90_o109_f0_pts.sym.25
_audit_creation_date              2022-05-24
_audit_creation_method            REPEAT_Assigner
_cell_length_a                    11.761872
_cell_length_b                    17.354823
_cell_length_c                    15.388448
_cell_angle_alpha                 106.526577
_cell_angle_beta                  90.753952
_cell_angle_gamma                 99.600634
_cell_volume                      2963.116422
_symmetry_space_group_name_H-M    P1
_symmetry_Int_Tables_number       1
loop_
    _symmetry_equiv_pos_site_id
    _symmetry_equiv_pos_as_xyz
    1  x,y,z
loop_
    _atom_site_type_symbol
    _atom_site_label
    _atom_site_fract_x
    _atom_site_fract_y
    _atom_site_fract_z
    _atom_type_partial_charge
    C   C1   0.738462  0.975236  0.204298  0.079048
    C   C2   0.845652  0.967618  0.233850  -0.198652
    C   C3   0.937482  0.971275  0.179533  0.221142
    C   C4   0.045043  0.969310  0.214104  -0.213191
    C   C5   0.140339  0.981872  0.166090  0.102044
    C   C6   0.722794  0.982154  0.118150  -0.144963
    C   C7   0.813244  0.980882  0.059964  0.046764
    C   C8   0.922714  0.979006  0.092972  -0.034921
    C   C9   0.017754  0.986090  0.041031  0.074048
    C   C10  0.687705  0.978662  0.931718  -0.195964
    C   C11  0.797453  0.985343  0.971373  0.113478
    C   C12  0.892435  0.993326  0.919515  -0.095643
    C   C13  0.674213  0.990387  0.848128  0.133290
    C   C14  0.768745  0.005203  0.800594  -0.292022
    C   C15  0.127231  0.991606  0.081099  -0.169155
    C   C16  0.001921  0.991158  0.952360  0.122635
    C   C17  0.092153  0.990665  0.894087  -0.229797
    C   C18  0.877329  0.002528  0.833490  0.337784
    C   C19  0.969429  0.007336  0.778917  -0.364643
    C   C20  0.077021  0.998613  0.808056  0.241040
    H   H1   0.639063  0.991955  0.100355  0.180748
    H   H2   0.609335  0.963405  0.962853  0.149464
    H   H3   0.205813  0.004681  0.049241  0.138443
    H   H4   0.175838  0.981151  0.912256  0.191437
    H   H5   0.859638  0.962197  0.301223  0.163490
    H   H6   0.055388  0.963735  0.281810  0.202159
    H   H7   0.754512  0.012764  0.734406  0.233499
    O   O1   0.539657  0.985900  0.236763  -0.575246
    C   C21  0.642051  0.977631  0.264549  0.577095
    O   O2   0.410712  0.823919  0.266190  -0.547551
    O   O3   0.658070  0.972041  0.346925  -0.497487
    O   O4   0.421621  0.910683  0.407612  -0.481639
    C   C22  0.413553  0.835786  0.354358  0.553565
    Fe  Fe1  0.428462  0.986477  0.332256  1.470444
    O   O5   0.269425  0.953085  0.270060  -0.590091
    O   O6   0.343688  0.037524  0.187740  -0.481415
    C   C23  0.255849  0.989628  0.207759  0.612815
    O   O7   0.477653  0.099815  0.416064  -0.567362
    O   O8   0.290750  0.071299  0.449967  -0.501676
    C   C24  0.390204  0.121590  0.463547  0.587933
    C   C25  0.402327  0.201640  0.531124  0.065916
    C   C26  0.408865  0.270356  0.500830  -0.021749
    C   C27  0.418031  0.347450  0.562921  -0.367944
    C   C28  0.425886  0.355051  0.654521  0.059169
    H   H8   0.432702  0.414257  0.704000  0.080540
    C   C29  0.420174  0.287140  0.684651  -0.108228
    H   H9   0.425142  0.296013  0.757057  0.146798
    C   C30  0.406926  0.209656  0.624022  0.055067
    N   N1   0.468527  0.494613  0.585213  -0.250919
    N   N2   0.465553  0.560493  0.558735  -0.269019
    C   C31  0.407035  0.554235  0.480535  0.821967
    N   N3   0.347585  0.481150  0.431712  -0.284334
    N   N4   0.350717  0.415401  0.458081  -0.173719
    C   C32  0.413509  0.420868  0.533973  0.754206
    C   C33  0.405653  0.620236  0.356045  0.125449
    C   C34  0.403284  0.688905  0.328427  -0.144278
    H   H10  0.402303  0.682743  0.256621  0.184405
    C   C35  0.409794  0.765153  0.390431  0.025742
    C   C36  0.414687  0.771704  0.482833  0.101952
    C   C37  0.413579  0.702426  0.510588  -0.019645
    H   H11  0.417135  0.708438  0.582467  0.094833
    C   C38  0.409113  0.626505  0.448146  -0.404369
    O   O9   0.546249  0.020667  0.745540  -0.559320
    O   O10  0.471379  0.933957  0.825140  -0.546962
    C   C39  0.559093  0.983075  0.806865  0.574901
    O   O11  0.339406  0.874179  0.597627  -0.603452
    O   O12  0.528611  0.899750  0.568148  -0.513206
    C   C40  0.428016  0.850724  0.552695  0.568725
    O   O13  0.403025  0.152397  0.749791  -0.520268
    O   O14  0.276065  0.985930  0.777969  -0.508990
    C   C41  0.175815  0.996427  0.749240  0.415701
    O   O15  0.393883  0.064154  0.608969  -0.498778
    C   C42  0.400985  0.139442  0.661469  0.518594
    O   O16  0.165561  0.004120  0.667294  -0.401869
    Fe  Fe2  0.387491  0.987148  0.682855  1.467965
    N   N5   0.413233  0.545496  0.288605  0.500206
    O   O17  0.360951  0.529527  0.208851  -0.348120
    O   O18  0.494104  0.505184  0.298159  -0.293962
    N   N6   0.951120  0.016972  0.691129  0.686985
    O   O19  0.957378  0.089772  0.681995  -0.331603
    O   O20  0.914831  0.953197  0.622310  -0.327315
    N   N7   0.409940  0.261168  0.405608  0.560140
    O   O21  0.325002  0.214476  0.350403  -0.349191
    O   O22  0.495793  0.300151  0.373718  -0.312973
