# Generated by REPEAT Assigner based on pymatgen
data_DB0-m2_o11_o24_f0_pcu.sym.25_sqe
_audit_creation_date              2022-05-24
_audit_creation_method            REPEAT_Assigner
_cell_length_a                    10.703581
_cell_length_b                    11.055519
_cell_length_c                    9.574157
_cell_angle_alpha                 90.020561
_cell_angle_beta                  90.017398
_cell_angle_gamma                 90.009469
_cell_volume                      1132.944772
_symmetry_space_group_name_H-M    P1
_symmetry_Int_Tables_number       1
loop_
    _symmetry_equiv_pos_site_id
    _symmetry_equiv_pos_as_xyz
    1  x,y,z
loop_
    _atom_site_type_symbol
    _atom_site_label
    _atom_site_fract_x
    _atom_site_fract_y
    _atom_site_fract_z
    _atom_type_partial_charge
    O   O1   0.498941  0.323124  0.612546  -0.593936
    O   O2   0.504707  0.324549  0.371762  -0.618098
    C   C1   0.503693  0.267369  0.492071  0.720114
    O   O3   0.316562  0.498240  0.616647  -0.557732
    O   O4   0.315651  0.492820  0.375585  -0.631264
    C   C2   0.257870  0.494974  0.496381  0.604807
    Cu  Cu1  0.498411  0.498680  0.633923  1.059368
    Cu  Cu2  0.496962  0.500544  0.354180  1.021673
    O   O5   0.488520  0.674325  0.615960  -0.589138
    O   O6   0.497760  0.676248  0.376070  -0.628029
    O   O7   0.679578  0.507756  0.611845  -0.646289
    O   O8   0.678747  0.499449  0.371986  -0.653200
    C   C3   0.491081  0.731915  0.496620  0.564071
    C   C4   0.737576  0.504339  0.491651  0.686905
    C   C5   0.037165  0.501435  0.625887  -0.179165
    C   C6   0.954278  0.406359  0.559387  0.339851
    H   H1   0.070444  0.501166  0.735602  0.098052
    C   C7   0.876799  0.503219  0.491465  0.018141
    C   C8   0.958328  0.599750  0.556677  -0.028698
    C   C9   0.041892  0.595779  0.427714  -0.036299
    C   C10  0.958304  0.499247  0.362164  -0.141231
    C   C11  0.036518  0.402458  0.432267  0.286335
    C   C12  0.118668  0.497487  0.496590  0.085525
    H   H2   0.923285  0.683106  0.607849  0.054648
    H   H3   0.081093  0.675743  0.373246  0.051350
    H   H4   0.924968  0.497744  0.252490  0.088909
    C   C13  0.503101  0.931897  0.386922  -0.319309
    C   C14  0.481371  0.864210  0.500820  0.258186
    H   H5   0.524831  0.887263  0.289138  0.177047
    C   C15  0.494368  0.065682  0.383732  0.119018
    C   C16  0.512490  0.135118  0.496324  -0.341918
    H   H6   0.477525  0.108313  0.283579  0.089494
    H   H7   0.537378  0.096284  0.595911  0.198641
    C   C17  0.429401  0.427327  0.916750  0.483818
    N   N1   0.500268  0.496680  0.843022  -0.519611
    H   H8   0.576267  0.533931  0.892300  0.306869
    C   C18  0.440588  0.419185  0.071504  -0.071207
    N   N2   0.494613  0.501471  0.145110  -0.275944
    H   H9   0.398164  0.342461  0.123495  0.175064
    H   H10  0.517494  0.580720  0.095531  0.241674
    F   F1   0.906206  0.305917  0.626393  -0.284652
    F   F2   0.343083  0.356834  0.852319  -0.168469
    F   F3   0.079357  0.297893  0.369295  -0.277569
    F   F4   0.442290  0.914254  0.622513  -0.167802
