# Generated by REPEAT Assigner based on pymatgen
data_DB0-m2_o21_o27_f0_pcu.sym.141_sqe
_audit_creation_date              2022-05-24
_audit_creation_method            REPEAT_Assigner
_cell_length_a                    12.588202
_cell_length_b                    14.003126
_cell_length_c                    19.246611
_cell_angle_alpha                 90.022484
_cell_angle_beta                  93.623056
_cell_angle_gamma                 98.217352
_cell_volume                      3350.984055
_symmetry_space_group_name_H-M    P1
_symmetry_Int_Tables_number       1
loop_
    _symmetry_equiv_pos_site_id
    _symmetry_equiv_pos_as_xyz
    1  x,y,z
loop_
    _atom_site_type_symbol
    _atom_site_label
    _atom_site_fract_x
    _atom_site_fract_y
    _atom_site_fract_z
    _atom_type_partial_charge
    O   O1   0.396263  0.364758  0.491564  -0.619052
    O   O2   0.605421  0.654772  0.495131  -0.661308
    O   O3   0.580572  0.374895  0.494399  -0.583737
    O   O4   0.421006  0.644629  0.492227  -0.648862
    C   C1   0.484291  0.324932  0.492878  0.881829
    C   C2   0.517337  0.694580  0.493754  0.957482
    O   O5   0.409617  0.507769  0.388543  -0.593839
    O   O6   0.591949  0.511715  0.598116  -0.546862
    O   O7   0.593215  0.511271  0.396232  -0.566328
    O   O8   0.408456  0.508309  0.590428  -0.504117
    C   C3   0.501447  0.509501  0.359744  0.563702
    C   C4   0.500167  0.510095  0.626924  0.483115
    Cu  Cu1  0.393609  0.503817  0.488814  0.976168
    Cu  Cu2  0.608017  0.515703  0.497851  0.956237
    C   C5   0.406143  0.507876  0.243357  -0.190636
    C   C6   0.595332  0.511474  0.743332  -0.195683
    H   H1   0.330575  0.506570  0.267267  0.130256
    H   H2   0.670862  0.512370  0.719445  0.130305
    C   C7   0.405968  0.507982  0.171711  0.155775
    C   C8   0.595456  0.511484  0.814973  0.162142
    H   H3   0.330175  0.506734  0.141837  0.019588
    H   H4   0.671182  0.512400  0.844868  0.018472
    C   C9   0.501103  0.509667  0.139207  -0.521242
    C   C10  0.500356  0.510279  0.847445  -0.535091
    C   C11  0.596396  0.511217  0.179411  0.151407
    C   C12  0.405146  0.509139  0.807212  0.171538
    H   H5   0.672074  0.512555  0.155644  0.019763
    H   H6   0.329504  0.508234  0.830953  0.009722
    C   C13  0.596517  0.511129  0.251071  -0.174101
    C   C14  0.405075  0.509125  0.735554  -0.192603
    H   H7   0.672168  0.512397  0.281129  0.117311
    H   H8   0.329489  0.508234  0.705472  0.120054
    C   C15  0.501399  0.509471  0.283503  0.100312
    C   C16  0.500164  0.510249  0.703158  0.138991
    N   N1   0.593534  0.511292  0.031391  -0.343395
    N   N2   0.407899  0.508711  0.955259  -0.334954
    N   N3   0.593342  0.511446  0.962698  -0.337405
    N   N4   0.408090  0.508550  0.023954  -0.344504
    C   C17  0.500528  0.510161  0.923763  0.912945
    C   C18  0.500907  0.509835  0.062888  0.912317
    C   C19  0.526880  0.797932  0.493963  -0.362305
    C   C20  0.474754  0.221581  0.492652  -0.335417
    C   C21  0.544687  0.988300  0.494316  -0.089751
    C   C22  0.456970  0.031216  0.492272  -0.068037
    C   C23  0.466671  0.134791  0.492474  0.064246
    C   C24  0.534976  0.884723  0.494127  0.076906
    H   H9   0.378105  0.988141  0.490464  0.146409
    H   H10  0.623555  0.031373  0.496122  0.157004
    N   N5   0.233271  0.494634  0.481946  -0.210960
    N   N6   0.768341  0.524700  0.504845  -0.198971
    C   C25  0.024750  0.476494  0.476834  0.221268
    C   C26  0.975712  0.530504  0.518384  0.229180
    C   C27  0.860823  0.527753  0.510531  0.170033
    C   C28  0.140368  0.487056  0.479352  0.176108
    N   N7   0.036567  0.596624  0.566250  -0.654065
    C   C29  0.066346  0.557032  0.627075  0.854126
    O   O9   0.066918  0.470221  0.631228  -0.532897
    C   C30  0.097717  0.619533  0.689792  -0.559361
    H   H11  0.008246  0.661283  0.572479  0.350115
    H   H12  0.029036  0.656024  0.703254  0.134369
    H   H13  0.167170  0.674423  0.678934  0.140414
    H   H14  0.120575  0.574507  0.734135  0.186173
    N   N8   0.964283  0.414450  0.426223  -0.636151
    C   C31  0.923807  0.327408  0.450801  0.821771
    O   O10  0.914273  0.315927  0.513012  -0.527183
    C   C32  0.891664  0.244457  0.401794  -0.517357
    H   H15  0.998063  0.410359  0.379197  0.348369
    H   H16  0.962591  0.229087  0.374651  0.124811
    H   H17  0.828693  0.262273  0.363000  0.136229
    H   H18  0.859519  0.179882  0.431347  0.159211
