# generated using pymatgen
data_Fe2H17C50N2O20F
_symmetry_space_group_name_H-M   'P 1'
_cell_length_a   10.20415400
_cell_length_b   18.01007400
_cell_length_c   13.15888500
_cell_angle_alpha   108.01073500
_cell_angle_beta   83.00402400
_cell_angle_gamma   88.25755000
_symmetry_Int_Tables_number   1
_chemical_formula_structural   Fe2H17C50N2O20F
_chemical_formula_sum   'Fe2 H17 C50 N2 O20 F1'
_cell_volume   2276.74201321
_cell_formula_units_Z   1
loop_
 _symmetry_equiv_pos_site_id
 _symmetry_equiv_pos_as_xyz
  1  'x, y, z'
loop_
 _atom_site_type_symbol
 _atom_site_label
 _atom_site_symmetry_multiplicity
 _atom_site_fract_x
 _atom_site_fract_y
 _atom_site_fract_z
 _atom_site_occupancy
  Fe  Fe1  1  0.53226700  0.03891700  0.29578700  1
  Fe  Fe2  1  0.54075300  0.00166400  0.73204100  1
  H  H1  1  0.69502200  0.05965700  0.00774400  1
  H  H2  1  0.04578200  0.97797100  0.79312400  1
  H  H3  1  0.02758800  0.06358800  0.23506600  1
  H  H4  1  0.37811100  0.98155600  0.02031200  1
  H  H5  1  0.82141400  0.47488500  0.71605500  1
  H  H6  1  0.37207400  0.48309200  0.39419500  1
  H  H7  1  0.26162000  0.57515100  0.32797400  1
  H  H8  1  0.30017400  0.25316700  0.48035000  1
  H  H9  1  0.32712900  0.28745700  0.86149200  1
  H  H10  1  0.22768000  0.39219700  0.81051900  1
  H  H11  1  0.77296900  0.78848400  0.54865400  1
  H  H12  1  0.75418600  0.75440900  0.16652300  1
  H  H13  1  0.85483700  0.65036000  0.21861400  1
  H  H14  1  0.73928400  0.69686700  0.74216400  1
  H  H15  1  0.52278500  0.74955600  0.84801900  1
  H  H16  1  0.37557400  0.52370100  0.74084400  1
  H  H17  1  0.59139000  0.47077300  0.63366000  1
  C  C1  1  0.86521200  0.04682100  0.08314100  1
  C  C2  1  0.80119600  0.04891600  0.99722000  1
  C  C3  1  0.86667500  0.02481500  0.89382300  1
  C  C4  1  0.99983000  0.00264200  0.87566000  1
  C  C5  1  0.07059100  0.01023800  0.96179500  1
  C  C6  1  0.00252600  0.03112800  0.06641700  1
  C  C7  1  0.07337600  0.03876700  0.15251500  1
  C  C8  1  0.20647900  0.01646200  0.13431200  1
  C  C9  1  0.27192600  0.99230900  0.03090400  1
  C  C10  1  0.20786800  0.99446700  0.94504400  1
  C  C11  1  0.77976100  0.04957400  0.18343900  1
  C  C12  1  0.64268100  0.89392500  0.29173900  1
  C  C13  1  0.28542800  0.03139900  0.22332200  1
  C  C14  1  0.41426900  0.13036500  0.50069200  1
  C  C15  1  0.65898600  0.91070200  0.52724400  1
  C  C16  1  0.78772500  0.00987100  0.80479900  1
  C  C17  1  0.43318700  0.14704900  0.73585800  1
  C  C18  1  0.29317700  0.99170900  0.84471700  1
  C  C19  1  0.01080900  0.63102100  0.38646800  1
  C  C20  1  0.81167700  0.62440600  0.49209700  1
  C  C21  1  0.87409800  0.57482200  0.53770700  1
  C  C22  1  0.00571900  0.54965900  0.49970600  1
  C  C23  1  0.07389300  0.57772500  0.42373300  1
  C  C24  1  0.80895300  0.54855700  0.61876600  1
  C  C25  1  0.87325600  0.49411900  0.65314500  1
  C  C26  1  0.00329200  0.46804600  0.61279300  1
  C  C27  1  0.06983400  0.49689400  0.53759000  1
  C  C28  1  0.20089700  0.47228100  0.50009500  1
  C  C29  1  0.26910900  0.50115700  0.42488100  1
  C  C30  1  0.20590100  0.55371300  0.38701700  1
  C  C31  1  0.06742000  0.41377300  0.64818900  1
  C  C32  1  0.26300400  0.41870200  0.53781900  1
  C  C33  1  0.30862100  0.26086300  0.56401500  1
  C  C34  1  0.36438000  0.20008500  0.59112300  1
  C  C35  1  0.37248200  0.20846400  0.69950100  1
  C  C36  1  0.32236700  0.27838400  0.77699400  1
  C  C37  1  0.26555200  0.33828800  0.74846500  1
  C  C38  1  0.25812300  0.32962300  0.64154600  1
  C  C39  1  0.76632200  0.78084800  0.46472000  1
  C  C40  1  0.71044600  0.84126300  0.43705600  1
  C  C41  1  0.70424400  0.83289800  0.32845300  1
  C  C42  1  0.75717300  0.76341000  0.25123900  1
  C  C43  1  0.81463600  0.70390400  0.28037600  1
  C  C44  1  0.81938100  0.71253500  0.38765800  1
  C  C45  1  0.67804700  0.58089800  0.67822800  1
  C  C46  1  0.65896700  0.65887700  0.74022400  1
  C  C47  1  0.53762700  0.68845400  0.80017000  1
  C  C48  1  0.43558400  0.64000700  0.79980600  1
  C  C49  1  0.45516600  0.56184600  0.74005900  1
  C  C50  1  0.57639200  0.53220800  0.67986700  1
  N  N1  1  0.88144500  0.65307500  0.42040600  1
  N  N2  1  0.19569200  0.38979000  0.61035800  1
  O  O1  1  0.65463900  0.07366700  0.19366500  1
  O  O2  1  0.64645800  0.88331000  0.18812400  1
  O  O3  1  0.81676900  0.01111600  0.24622000  1
  O  O4  1  0.58858600  0.96005300  0.36135600  1
  O  O5  1  0.39111500  0.98454900  0.21304800  1
  O  O6  1  0.27058300  0.10037600  0.29727600  1
  O  O7  1  0.48608900  0.13982400  0.41635300  1
  O  O8  1  0.36794900  0.06214900  0.49469600  1
  O  O9  1  0.58789300  0.90074300  0.61154200  1
  O  O10  1  0.70416000  0.97922900  0.53350500  1
  O  O11  1  0.68127700  0.05625000  0.81553600  1
  O  O12  1  0.80367700  0.94122100  0.73012400  1
  O  O13  1  0.25675700  0.03110000  0.78285500  1
  O  O14  1  0.48484300  0.08041500  0.66614800  1
  O  O15  1  0.41793400  0.96665000  0.83371500  1
  O  O16  1  0.43082000  0.15780400  0.83938800  1
  O  O17  1  0.07932800  0.66250200  0.31809700  1
  O  O18  1  0.68028500  0.64197200  0.51470000  1
  O  O19  1  0.00033700  0.38267600  0.71769100  1
  O  O20  1  0.39159300  0.39581400  0.50279300  1
  F  F1  1  0.31652000  0.66900900  0.85908800  1
