# generated using pymatgen
data_Fe2H23C50N5O17
_symmetry_space_group_name_H-M   'P 1'
_cell_length_a   14.41478200
_cell_length_b   16.92342600
_cell_length_c   11.26960700
_cell_angle_alpha   108.26518100
_cell_angle_beta   95.83804100
_cell_angle_gamma   98.63528300
_symmetry_Int_Tables_number   1
_chemical_formula_structural   Fe2H23C50N5O17
_chemical_formula_sum   'Fe2 H23 C50 N5 O17'
_cell_volume   2548.47037709
_cell_formula_units_Z   1
loop_
 _symmetry_equiv_pos_site_id
 _symmetry_equiv_pos_as_xyz
  1  'x, y, z'
loop_
 _atom_site_type_symbol
 _atom_site_label
 _atom_site_symmetry_multiplicity
 _atom_site_fract_x
 _atom_site_fract_y
 _atom_site_fract_z
 _atom_site_occupancy
  Fe  Fe1  1  0.51611700  0.01596800  0.23792900  1
  Fe  Fe2  1  0.49966000  0.01293100  0.74257200  1
  H  H1  1  0.87851300  0.88595200  0.36380900  1
  H  H2  1  0.89153100  0.03627200  0.48566200  1
  H  H3  1  0.97020500  0.83877000  0.70306500  1
  H  H4  1  0.94470300  0.08859200  0.71565400  1
  H  H5  1  0.13896900  0.99061800  0.74386000  1
  H  H6  1  0.80029500  0.98339100  0.78186200  1
  H  H7  1  0.21634200  0.04715200  0.19928400  1
  H  H8  1  0.87604800  0.03546200  0.23630700  1
  H  H9  1  0.03701300  0.18315600  0.29317600  1
  H  H10  1  0.07753500  0.93193200  0.25000300  1
  H  H11  1  0.08590600  0.22456700  0.52306000  1
  H  H12  1  0.13274000  0.12028800  0.61623600  1
  H  H13  1  0.12822500  0.97389600  0.47982400  1
  H  H14  1  0.51158400  0.28750900  0.39922500  1
  H  H15  1  0.48380500  0.44608200  0.76750700  1
  H  H16  1  0.47249100  0.32593800  0.84019500  1
  H  H17  1  0.52977400  0.58228500  0.21231900  1
  H  H18  1  0.54125600  0.70240500  0.13961000  1
  H  H19  1  0.50343000  0.74117600  0.58105100  1
  H  H20  1  0.90547900  0.72437800  0.50694600  1
  H  H21  1  0.02018000  0.63670300  0.40027600  1
  H  H22  1  0.03859300  0.65004600  0.25076100  1
  H  H23  1  0.92010000  0.61244700  0.27515500  1
  C  C1  1  0.92772500  0.85301500  0.52474400  1
  C  C2  1  0.24705700  0.01232100  0.89862300  1
  C  C3  1  0.90385800  0.90857400  0.46447900  1
  C  C4  1  0.91038500  0.99307800  0.53304900  1
  C  C5  1  0.95467100  0.88221800  0.65440800  1
  C  C6  1  0.96133900  0.96675600  0.72300500  1
  C  C7  1  0.94034400  0.02248000  0.66199400  1
  C  C8  1  0.15337300  0.00152100  0.84401300  1
  C  C9  1  0.08009200  0.00609200  0.91636900  1
  C  C10  1  0.98629200  0.99545100  0.86102700  1
  C  C11  1  0.91462100  0.00481100  0.93554700  1
  C  C12  1  0.82118300  0.99621000  0.88162900  1
  C  C13  1  0.74915500  0.00225700  0.95315300  1
  C  C14  1  0.26668800  0.02634600  0.02745500  1
  C  C15  1  0.19488600  0.03286700  0.09928000  1
  C  C16  1  0.10122800  0.02341300  0.04544400  1
  C  C17  1  0.02937200  0.03166900  0.11985100  1
  C  C18  1  0.93560600  0.02161400  0.06453700  1
  C  C19  1  0.86205200  0.02541500  0.13641100  1
  C  C20  1  0.05593400  0.13684200  0.33423000  1
  C  C21  1  0.05369400  0.05480100  0.25742800  1
  C  C22  1  0.07848600  0.99597800  0.31014100  1
  C  C23  1  0.08377900  0.16019800  0.46311700  1
  C  C24  1  0.11010000  0.10175800  0.51533300  1
  C  C25  1  0.76851400  0.01515100  0.08169200  1
  C  C26  1  0.10747300  0.01966300  0.43885300  1
  C  C27  1  0.69263100  0.01786600  0.16129600  1
  C  C28  1  0.53421800  0.86288600  0.26765100  1
  C  C29  1  0.36234900  0.03696200  0.09403600  1
  C  C30  1  0.48991100  0.14445100  0.44056000  1
  C  C31  1  0.52532900  0.88420600  0.53971700  1
  C  C32  1  0.65348300  0.99175500  0.88652300  1
  C  C33  1  0.48041400  0.16563300  0.71231700  1
  C  C34  1  0.32285100  0.00939800  0.81882000  1
  C  C35  1  0.49492500  0.22705600  0.53648100  1
  C  C36  1  0.50445000  0.29679800  0.49690000  1
  C  C37  1  0.49961500  0.37586000  0.57809800  1
  C  C38  1  0.48761900  0.38507700  0.70140700  1
  C  C39  1  0.48043000  0.31612400  0.74261900  1
  C  C40  1  0.48379600  0.23636400  0.66132200  1
  C  C41  1  0.51000400  0.58007500  0.44769500  1
  C  C42  1  0.50423100  0.44845500  0.53236700  1
  C  C43  1  0.52632100  0.64336200  0.27852100  1
  C  C44  1  0.53359200  0.71230500  0.23728800  1
  C  C45  1  0.53070900  0.79216400  0.31869900  1
  C  C46  1  0.51993700  0.80156300  0.44369100  1
  C  C47  1  0.51028900  0.73182300  0.48328200  1
  C  C48  1  0.51468100  0.65267300  0.40196500  1
  C  C49  1  0.97485800  0.74436500  0.37007600  1
  C  C50  1  0.98929300  0.65522500  0.32105100  1
  N  N1  1  0.49679700  0.52499900  0.61038000  1
  N  N2  1  0.49977100  0.58998700  0.56859200  1
  N  N3  1  0.51742800  0.50353000  0.36968000  1
  N  N4  1  0.51446000  0.43854400  0.41147100  1
  N  N5  1  0.91676100  0.76549300  0.45692500  1
  O  O1  1  0.60571000  0.02096000  0.11746300  1
  O  O2  1  0.55007800  0.85104500  0.15130300  1
  O  O3  1  0.71144900  0.01592700  0.27665400  1
  O  O4  1  0.51492800  0.93581700  0.33363500  1
  O  O5  1  0.38491300  0.97756300  0.13700900  1
  O  O6  1  0.42332300  0.10814300  0.11886100  1
  O  O7  1  0.55395900  0.13323100  0.36508900  1
  O  O8  1  0.41557100  0.08395700  0.42047500  1
  O  O9  1  0.46142100  0.89562200  0.61537700  1
  O  O10  1  0.59988700  0.94448200  0.55976200  1
  O  O11  1  0.63105600  0.05105200  0.84319900  1
  O  O12  1  0.59221700  0.92083700  0.86242900  1
  O  O13  1  0.30356600  0.00991200  0.70274400  1
  O  O14  1  0.50092500  0.09310400  0.64689900  1
  O  O15  1  0.41025100  0.00804700  0.86341200  1
  O  O16  1  0.46354500  0.17715300  0.82819200  1
  O  O17  1  0.01696200  0.79773600  0.33283000  1
