# generated using pymatgen
data_ZnH6C16NO7
_symmetry_space_group_name_H-M   'P 1'
_cell_length_a   13.48752200
_cell_length_b   8.59632900
_cell_length_c   11.19516100
_cell_angle_alpha   90.00000000
_cell_angle_beta   96.59485700
_cell_angle_gamma   90.00000000
_symmetry_Int_Tables_number   1
_chemical_formula_structural   ZnH6C16NO7
_chemical_formula_sum   'Zn2 H12 C32 N2 O14'
_cell_volume   1289.41374717
_cell_formula_units_Z   2
loop_
 _symmetry_equiv_pos_site_id
 _symmetry_equiv_pos_as_xyz
  1  'x, y, z'
loop_
 _atom_site_type_symbol
 _atom_site_label
 _atom_site_symmetry_multiplicity
 _atom_site_fract_x
 _atom_site_fract_y
 _atom_site_fract_z
 _atom_site_occupancy
  Zn  Zn1  1  0.47678700  0.50116300  0.86775500  1
  Zn  Zn2  1  0.52350000  0.50108600  0.13527400  1
  H  H1  1  0.39062900  0.50135400  0.28348700  1
  H  H2  1  0.60952100  0.50007100  0.71948600  1
  H  H3  1  0.29870200  0.50143700  0.45171600  1
  H  H4  1  0.70133500  0.49690000  0.55141900  1
  H  H5  1  0.43723200  0.99996000  0.05648300  1
  H  H6  1  0.56230500  0.00396300  0.96056500  1
  H  H7  1  0.08106900  0.69877900  0.95041000  1
  H  H8  1  0.91463900  0.29440400  0.93681800  1
  H  H9  1  0.80949600  0.62001100  0.92382000  1
  H  H10  1  0.17986900  0.38064500  0.94580400  1
  H  H11  1  0.79943800  0.48485600  0.39400500  1
  H  H12  1  0.20037600  0.49843800  0.60892100  1
  C  C1  1  0.30749200  0.86084000  0.02369700  1
  C  C2  1  0.69332700  0.14092900  0.98181500  1
  C  C3  1  0.69153000  0.86263200  0.97900600  1
  C  C4  1  0.30767600  0.13909900  0.02050200  1
  C  C5  1  0.20459800  0.86023000  0.00823300  1
  C  C6  1  0.79632500  0.13896800  0.98694900  1
  C  C7  1  0.79412500  0.86026700  0.98423000  1
  C  C8  1  0.20446700  0.13888600  0.00435400  1
  C  C9  1  0.15246700  0.99936700  0.00246500  1
  C  C10  1  0.84698400  0.99871800  0.98603200  1
  C  C11  1  0.36524700  0.50110700  0.63456800  1
  C  C12  1  0.63483500  0.49891400  0.36861800  1
  C  C13  1  0.53972100  0.50019400  0.66189800  1
  C  C14  1  0.46040700  0.50120400  0.34112200  1
  C  C15  1  0.35755000  0.00006500  0.03760500  1
  C  C16  1  0.64220200  0.00260300  0.97165300  1
  C  C17  1  0.04469100  0.99841900  0.99456000  1
  C  C18  1  0.95452600  0.99787900  0.98990200  1
  C  C19  1  0.54300200  0.49975000  0.53939700  1
  C  C20  1  0.45706000  0.50069400  0.46365900  1
  C  C21  1  0.36638800  0.71856100  0.01562700  1
  C  C22  1  0.63475100  0.28437300  0.98805400  1
  C  C23  1  0.63260400  0.72049300  0.98742000  1
  C  C24  1  0.36714300  0.28186100  0.01479200  1
  C  C25  1  0.36770200  0.50101000  0.51128100  1
  C  C26  1  0.63234300  0.49818700  0.49184500  1
  C  C27  1  0.15160500  0.71260600  0.00579100  1
  C  C28  1  0.85166100  0.28416200  0.98788300  1
  C  C29  1  0.84479600  0.71132500  0.98001900  1
  C  C30  1  0.15110400  0.28622100  0.99475700  1
  C  C31  1  0.73448800  0.49659100  0.32800000  1
  C  C32  1  0.26551400  0.50137000  0.67530700  1
  N  N1  1  0.54805000  0.50110800  0.29292800  1
  N  N2  1  0.45212800  0.50106100  0.71013000  1
  O  O1  1  0.41794100  0.66787600  0.11419800  1
  O  O2  1  0.58208000  0.33368200  0.88919400  1
  O  O3  1  0.58134000  0.66944600  0.88877400  1
  O  O4  1  0.41930000  0.33191000  0.11379600  1
  O  O5  1  0.37837100  0.66420900  0.90824500  1
  O  O6  1  0.62294900  0.33963400  0.09504500  1
  O  O7  1  0.62082000  0.66585200  0.09482000  1
  O  O8  1  0.37850100  0.33795900  0.90801700  1
  O  O9  1  0.18588800  0.60621400  0.06952000  1
  O  O10  1  0.82634700  0.39428100  0.04527200  1
  O  O11  1  0.92538600  0.69001400  0.03870000  1
  O  O12  1  0.07763700  0.30523300  0.04689900  1
  O  O13  1  0.74679400  0.51183700  0.22309000  1
  O  O14  1  0.25340400  0.50609700  0.78091000  1
