data_DB0-m3_o12_o29_f0_pcu.sym.57_repeat
_audit_creation_date              2024-02-23
_audit_creation_method            'Materials Studio'
_symmetry_space_group_name_H-M    'P1'
_symmetry_Int_Tables_number       1
_symmetry_cell_setting            triclinic
loop_
_symmetry_equiv_pos_as_xyz
  x,y,z
_cell_length_a                    10.1094
_cell_length_b                    11.2714
_cell_length_c                    27.6123
_cell_angle_alpha                 89.9863
_cell_angle_beta                  80.6708
_cell_angle_gamma                 92.4670
loop_
_atom_site_label
_atom_site_type_symbol
_atom_site_fract_x
_atom_site_fract_y
_atom_site_fract_z
_atom_site_U_iso_or_equiv
_atom_site_adp_type
_atom_site_occupancy
O1     O     0.41621   0.68348   0.50733   0.00000  Uiso   1.00
O2     O     0.56957   0.30291   0.50032   0.00000  Uiso   1.00
O3     O     0.64345   0.65317   0.49578   0.00000  Uiso   1.00
O4     O     0.34228   0.33322   0.51081   0.00000  Uiso   1.00
C1     C     0.54181   0.72308   0.50084   0.00000  Uiso   1.00
C2     C     0.44386   0.26332   0.50619   0.00000  Uiso   1.00
O5     O     0.37079   0.50870   0.58157   0.00000  Uiso   1.00
O6     O     0.61519   0.47640   0.42553   0.00000  Uiso   1.00
O7     O     0.59807   0.47887   0.57075   0.00000  Uiso   1.00
O8     O     0.38843   0.50909   0.43632   0.00000  Uiso   1.00
C3     C     0.48254   0.49392   0.59893   0.00000  Uiso   1.00
C4     C     0.50385   0.49298   0.40818   0.00000  Uiso   1.00
Zn1    Zn    0.34310   0.51295   0.51050   0.00000  Uiso   1.00
Zn2    Zn    0.64296   0.47341   0.49660   0.00000  Uiso   1.00
C5     C     0.51746   0.59760   0.82563   0.00000  Uiso   1.00
C6     C     0.49595   0.39341   0.17962   0.00000  Uiso   1.00
O9     O     0.55573   0.69519   0.79808   0.00000  Uiso   1.00
O10    O     0.47965   0.29145   0.20555   0.00000  Uiso   1.00
N1     N     0.47433   0.49894   0.80441   0.00000  Uiso   1.00
N2     N     0.51409   0.49662   0.20266   0.00000  Uiso   1.00
C7     C     0.43442   0.40044   0.83133   0.00000  Uiso   1.00
C8     C     0.52869   0.60004   0.17759   0.00000  Uiso   1.00
C9     C     0.59592   0.50343   0.72108   0.00000  Uiso   1.00
C10    C     0.40818   0.54490   0.28512   0.00000  Uiso   1.00
C11    C     0.59805   0.50122   0.67108   0.00000  Uiso   1.00
C12    C     0.40504   0.54312   0.33518   0.00000  Uiso   1.00
C13    C     0.35835   0.49030   0.68403   0.00000  Uiso   1.00
C14    C     0.61468   0.44853   0.32389   0.00000  Uiso   1.00
C15    C     0.35662   0.49048   0.73412   0.00000  Uiso   1.00
C16    C     0.61636   0.44846   0.27380   0.00000  Uiso   1.00
C17    C     0.47542   0.49765   0.75274   0.00000  Uiso   1.00
C18    C     0.51321   0.49687   0.25432   0.00000  Uiso   1.00
C19    C     0.48246   0.49894   0.90366   0.00000  Uiso   1.00
C20    C     0.50552   0.49720   0.10344   0.00000  Uiso   1.00
C21    C     0.52079   0.59918   0.87552   0.00000  Uiso   1.00
C22    C     0.49026   0.39254   0.12987   0.00000  Uiso   1.00
C23    C     0.56433   0.70005   0.89721   0.00000  Uiso   1.00
C24    C     0.46967   0.28743   0.10645   0.00000  Uiso   1.00
C25    C     0.43912   0.39891   0.88115   0.00000  Uiso   1.00
C26    C     0.52595   0.60148   0.12765   0.00000  Uiso   1.00
C27    C     0.47926   0.49515   0.65223   0.00000  Uiso   1.00
C28    C     0.50821   0.49486   0.35486   0.00000  Uiso   1.00
H1     H     0.26422   0.48504   0.67020   0.00000  Uiso   1.00
H2     H     0.69621   0.41005   0.33847   0.00000  Uiso   1.00
H3     H     0.26178   0.48632   0.75876   0.00000  Uiso   1.00
H4     H     0.69926   0.41108   0.24982   0.00000  Uiso   1.00
H5     H     0.59766   0.77935   0.87594   0.00000  Uiso   1.00
H6     H     0.46019   0.20360   0.12595   0.00000  Uiso   1.00
C29    C     0.52238   0.60337   0.02698   0.00000  Uiso   1.00
C30    C     0.45634   0.39459   0.98081   0.00000  Uiso   1.00
C31    C     0.47141   0.39240   0.03033   0.00000  Uiso   1.00
C32    C     0.52543   0.60214   0.97611   0.00000  Uiso   1.00
C33    C     0.49986   0.49764   0.05343   0.00000  Uiso   1.00
C34    C     0.48797   0.49859   0.95368   0.00000  Uiso   1.00
C35    C     0.54010   0.70819   0.05237   0.00000  Uiso   1.00
C36    C     0.40905   0.29535   0.95765   0.00000  Uiso   1.00
C37    C     0.54146   0.70697   0.10200   0.00000  Uiso   1.00
C38    C     0.40042   0.29786   0.90854   0.00000  Uiso   1.00
O11    O     0.54770   0.70187   0.20131   0.00000  Uiso   1.00
O12    O     0.39352   0.30248   0.80922   0.00000  Uiso   1.00
C39    C     0.56641   0.70190   0.94679   0.00000  Uiso   1.00
C40    C     0.46004   0.28708   0.05742   0.00000  Uiso   1.00
H7     H     0.32160   0.58118   0.35857   0.00000  Uiso   1.00
H8     H     0.69392   0.50565   0.64712   0.00000  Uiso   1.00
H9     H     0.32689   0.58263   0.27010   0.00000  Uiso   1.00
H10    H     0.68933   0.50843   0.73544   0.00000  Uiso   1.00
H11    H     0.55488   0.79051   0.12014   0.00000  Uiso   1.00
H12    H     0.36322   0.21875   0.89217   0.00000  Uiso   1.00
H13    H     0.54855   0.79474   0.03552   0.00000  Uiso   1.00
H14    H     0.37299   0.21406   0.97659   0.00000  Uiso   1.00
H15    H     0.60598   0.78303   0.96042   0.00000  Uiso   1.00
H16    H     0.44797   0.20084   0.04170   0.00000  Uiso   1.00
H17    H     0.61484   0.08690   0.49674   0.00000  Uiso   1.00
H18    H     0.37013   0.89931   0.51092   0.00000  Uiso   1.00
C41    C     0.57169   0.85154   0.49886   0.00000  Uiso   1.00
C42    C     0.41347   0.13492   0.50784   0.00000  Uiso   1.00
C43    C     0.47484   0.92926   0.50460   0.00000  Uiso   1.00
C44    C     0.51012   0.05702   0.50255   0.00000  Uiso   1.00
H19    H     0.30933   0.10320   0.51343   0.00000  Uiso   1.00
H20    H     0.67552   0.88362   0.49244   0.00000  Uiso   1.00
N3     N     0.84011   0.44765   0.48810   0.00000  Uiso   1.00
N4     N     0.14599   0.53833   0.51916   0.00000  Uiso   1.00
C45    C     0.93009   0.52819   0.49412   0.00000  Uiso   1.00
C46    C     0.07306   0.49758   0.48833   0.00000  Uiso   1.00
H21    H     0.09790   0.58831   0.54726   0.00000  Uiso   1.00
H22    H     0.87510   0.36408   0.48097   0.00000  Uiso   1.00
O13    O     0.12700   0.42362   0.45257   0.00000  Uiso   1.00
C47    C     0.08721   0.41344   0.40824   0.00000  Uiso   1.00
O14    O     0.02113   0.48941   0.39333   0.00000  Uiso   1.00
C48    C     0.13097   0.31159   0.37611   0.00000  Uiso   1.00
H23    H     0.19345   0.25418   0.39496   0.00000  Uiso   1.00
H24    H     0.19028   0.34522   0.34113   0.00000  Uiso   1.00
H25    H     0.04148   0.25926   0.36832   0.00000  Uiso   1.00
O15    O     0.89283   0.63826   0.50837   0.00000  Uiso   1.00
C49    C     0.97007   0.73781   0.49552   0.00000  Uiso   1.00
O16    O     0.06093   0.73794   0.46057   0.00000  Uiso   1.00
C50    C     0.94085   0.84970   0.52308   0.00000  Uiso   1.00
H26    H     0.85282   0.83397   0.55235   0.00000  Uiso   1.00
H27    H     0.91952   0.91972   0.49757   0.00000  Uiso   1.00
H28    H     0.02918   0.87886   0.53989   0.00000  Uiso   1.00
