# generated using pymatgen
data_ZnH18C24(NO)4
_symmetry_space_group_name_H-M   'P 1'
_cell_length_a   15.94556600
_cell_length_b   15.91885300
_cell_length_c   17.10502100
_cell_angle_alpha   90.89098800
_cell_angle_beta   88.87050500
_cell_angle_gamma   105.45560800
_symmetry_Int_Tables_number   1
_chemical_formula_structural   ZnH18C24(NO)4
_chemical_formula_sum   'Zn2 H36 C48 N8 O8'
_cell_volume   4183.78952083
_cell_formula_units_Z   2
loop_
 _symmetry_equiv_pos_site_id
 _symmetry_equiv_pos_as_xyz
  1  'x, y, z'
loop_
 _atom_site_type_symbol
 _atom_site_label
 _atom_site_symmetry_multiplicity
 _atom_site_fract_x
 _atom_site_fract_y
 _atom_site_fract_z
 _atom_site_occupancy
  Zn  Zn1  1  0.50383000  0.40501100  0.49446000  1
  Zn  Zn2  1  0.49619600  0.59346100  0.48667200  1
  H  H1  1  0.77819500  0.45301300  0.48581300  1
  H  H2  1  0.22179500  0.54409100  0.48055800  1
  H  H3  1  0.77177300  0.71668200  0.48828600  1
  H  H4  1  0.22830000  0.28354600  0.51410000  1
  H  H5  1  0.07301400  0.23751200  0.52431700  1
  H  H6  1  0.92704800  0.76395800  0.49278700  1
  H  H7  1  0.84760400  0.37173800  0.52439500  1
  H  H8  1  0.15244500  0.63112000  0.50903400  1
  H  H9  1  0.50516600  0.38256300  0.74507600  1
  H  H10  1  0.49487900  0.61591500  0.23605900  1
  H  H11  1  0.50453300  0.39014000  0.88495500  1
  H  H12  1  0.49550700  0.60834100  0.09617600  1
  H  H13  1  0.50459400  0.34191800  0.10477100  1
  H  H14  1  0.49536900  0.65653900  0.87635700  1
  H  H15  1  0.50394200  0.35001800  0.24697800  1
  H  H16  1  0.49602600  0.64844000  0.73415300  1
  H  H17  1  0.40311300  0.23537000  0.42539900  1
  H  H18  1  0.59600900  0.76278400  0.55678900  1
  H  H19  1  0.40894700  0.08538300  0.42873600  1
  H  H20  1  0.59038300  0.91284500  0.55336100  1
  H  H21  1  0.37302600  0.83667100  0.40004500  1
  H  H22  1  0.62844200  0.16227200  0.57961500  1
  H  H23  1  0.38336300  0.68589000  0.40622600  1
  H  H24  1  0.61775300  0.31293000  0.57367200  1
  H  H25  1  0.93193300  0.26329100  0.65338500  1
  H  H26  1  0.86474300  0.16024300  0.61815900  1
  H  H27  1  0.82602800  0.25667400  0.61352200  1
  H  H28  1  0.89916700  0.22780300  0.41285300  1
  H  H29  1  0.80570100  0.23135400  0.47353300  1
  H  H30  1  0.84888400  0.13775300  0.47576000  1
  H  H31  1  0.06631300  0.76167800  0.62296300  1
  H  H32  1  0.13488800  0.85689700  0.57594000  1
  H  H33  1  0.17250600  0.76015200  0.58467800  1
  H  H34  1  0.10258500  0.75353000  0.38123800  1
  H  H35  1  0.19529800  0.76148100  0.44323400  1
  H  H36  1  0.15174400  0.85400000  0.43249400  1
  C  C1  1  0.49941100  0.48921800  0.33760200  1
  C  C2  1  0.50060000  0.50924900  0.64352600  1
  C  C3  1  0.32967700  0.44683100  0.49399100  1
  C  C4  1  0.67034600  0.55166400  0.48743500  1
  C  C5  1  0.23424600  0.41843800  0.49895900  1
  C  C6  1  0.76578300  0.58055300  0.48904000  1
  C  C7  1  0.10326600  0.30612200  0.51631400  1
  C  C8  1  0.89679200  0.69467700  0.49297700  1
  C  C9  1  0.19235100  0.33202000  0.51018200  1
  C  C10  1  0.80769600  0.66800900  0.49009100  1
  C  C11  1  0.18613300  0.47865400  0.49407300  1
  C  C12  1  0.81388300  0.52010000  0.49132100  1
  C  C13  1  0.09561600  0.45419600  0.50345500  1
  C  C14  1  0.90441700  0.54590800  0.49778400  1
  C  C15  1  0.05472300  0.36641400  0.51300200  1
  C  C16  1  0.94532800  0.63442500  0.49676700  1
  C  C17  1  0.04531600  0.51482600  0.50249900  1
  C  C18  1  0.95471600  0.48574000  0.50418500  1
  C  C19  1  0.91627400  0.39734000  0.51527000  1
  C  C20  1  0.08377500  0.60421600  0.50285000  1
  C  C21  1  0.96534800  0.33846100  0.52001900  1
  C  C22  1  0.03471600  0.66329700  0.50030700  1
  C  C23  1  0.49941100  0.48367400  0.25193300  1
  C  C24  1  0.50059500  0.51479300  0.72919600  1
  C  C25  1  0.49700900  0.55518900  0.20806600  1
  C  C26  1  0.50301900  0.44328500  0.77306500  1
  C  C27  1  0.49740600  0.55042300  0.12746500  1
  C  C28  1  0.50261700  0.44805200  0.85366600  1
  C  C29  1  0.50021000  0.47333100  0.08980100  1
  C  C30  1  0.49978900  0.52513700  0.89132900  1
  C  C31  1  0.50243700  0.40214000  0.13376700  1
  C  C32  1  0.49754300  0.59632200  0.84736200  1
  C  C33  1  0.50206100  0.40699000  0.21426700  1
  C  C34  1  0.49792100  0.59147100  0.76686300  1
  C  C35  1  0.54710000  0.77963400  0.52203900  1
  C  C36  1  0.45251100  0.21868800  0.45962400  1
  C  C37  1  0.54332600  0.86516200  0.51980800  1
  C  C38  1  0.45644400  0.13320600  0.46176200  1
  C  C39  1  0.48019300  0.88654800  0.47555300  1
  C  C40  1  0.52022400  0.11202900  0.50531100  1
  C  C41  1  0.42280300  0.82138100  0.43478900  1
  C  C42  1  0.57810500  0.17736500  0.54547100  1
  C  C43  1  0.42867200  0.73673300  0.43830300  1
  C  C44  1  0.57204300  0.26195800  0.54208500  1
  C  C45  1  0.88441700  0.23156000  0.60834300  1
  C  C46  1  0.86622200  0.20966500  0.47021900  1
  C  C47  1  0.11466000  0.78463200  0.57519600  1
  C  C48  1  0.13468300  0.78192200  0.43611600  1
  N  N1  1  0.50091700  0.46511500  0.00732000  1
  N  N2  1  0.49908200  0.53335400  0.97381100  1
  N  N3  1  0.49030700  0.71713000  0.48158400  1
  N  N4  1  0.50975200  0.28134900  0.49951700  1
  N  N5  1  0.47250200  0.97282800  0.47091500  1
  N  N6  1  0.52799700  0.02577200  0.50990200  1
  N  N7  1  0.92429900  0.24904900  0.53196000  1
  N  N8  1  0.07577900  0.75383900  0.50128200  1
  O  O1  1  0.50218700  0.42010400  0.37716400  1
  O  O2  1  0.49777000  0.57837900  0.60397500  1
  O  O3  1  0.49691200  0.56314600  0.37123700  1
  O  O4  1  0.50316100  0.43531000  0.60990300  1
  O  O5  1  0.37322000  0.38763100  0.49623600  1
  O  O6  1  0.62679900  0.61084500  0.48518200  1
  O  O7  1  0.36778200  0.53059800  0.49017700  1
  O  O8  1  0.63224100  0.46789700  0.49112100  1
