# generated using pymatgen
data_Cu2H19C45N6O8F15
_symmetry_space_group_name_H-M   'P 1'
_cell_length_a   13.38676400
_cell_length_b   15.62960600
_cell_length_c   16.94942500
_cell_angle_alpha   83.59626500
_cell_angle_beta   91.01226700
_cell_angle_gamma   108.75863700
_symmetry_Int_Tables_number   1
_chemical_formula_structural   Cu2H19C45N6O8F15
_chemical_formula_sum   'Cu2 H19 C45 N6 O8 F15'
_cell_volume   3336.37495682
_cell_formula_units_Z   1
loop_
 _symmetry_equiv_pos_site_id
 _symmetry_equiv_pos_as_xyz
  1  'x, y, z'
loop_
 _atom_site_type_symbol
 _atom_site_label
 _atom_site_symmetry_multiplicity
 _atom_site_fract_x
 _atom_site_fract_y
 _atom_site_fract_z
 _atom_site_occupancy
  Cu  Cu1  1  0.50235700  0.57945900  0.49809500  1
  Cu  Cu2  1  0.49453100  0.40616100  0.49969500  1
  H  H1  1  0.16551100  0.29056300  0.59793200  1
  H  H2  1  0.98670000  0.26587400  0.63578400  1
  H  H3  1  0.17864400  0.53258500  0.45704000  1
  H  H4  1  0.11571500  0.63419300  0.43266500  1
  H  H5  1  0.02835700  0.73065300  0.37890400  1
  H  H6  1  0.75281600  0.44100900  0.59685200  1
  H  H7  1  0.54645400  0.61702400  0.73996700  1
  H  H8  1  0.53901300  0.61112500  0.88051600  1
  H  H9  1  0.50696300  0.65563400  0.24314400  1
  H  H10  1  0.48957500  0.32994900  0.75723900  1
  H  H11  1  0.46652800  0.37921600  0.11578100  1
  H  H12  1  0.48202000  0.32328400  0.90195200  1
  H  H13  1  0.45792800  0.37068000  0.25605700  1
  H  H14  1  0.42447300  0.86108400  0.57831300  1
  H  H15  1  0.39520800  0.07432400  0.60591900  1
  H  H16  1  0.40267600  0.23214700  0.60788500  1
  H  H17  1  0.60570700  0.73855300  0.39615400  1
  H  H18  1  0.62855900  0.89989400  0.37833200  1
  H  H19  1  0.56846900  0.30617200  0.39075900  1
  C  C1  1  0.48357600  0.50620500  0.34688700  1
  C  C2  1  0.70174500  0.54499100  0.48488000  1
  C  C3  1  0.51450700  0.47955800  0.65097500  1
  C  C4  1  0.29636500  0.44082700  0.51331700  1
  C  C5  1  0.02483000  0.32649300  0.59664800  1
  C  C6  1  0.18234600  0.41603100  0.52676500  1
  C  C7  1  0.87434600  0.64984800  0.42532000  1
  C  C8  1  0.98130700  0.66951100  0.41409600  1
  C  C9  1  0.03251900  0.61119300  0.44546800  1
  C  C10  1  0.97923200  0.53088200  0.49198000  1
  C  C11  1  0.87417100  0.51547300  0.51200700  1
  C  C12  1  0.02926900  0.46709000  0.52039700  1
  C  C13  1  0.97534100  0.39078600  0.57162800  1
  C  C14  1  0.87432000  0.38136400  0.59896800  1
  C  C15  1  0.82682800  0.44505300  0.57056500  1
  C  C16  1  0.13266200  0.47741600  0.49807000  1
  C  C17  1  0.12741600  0.33909800  0.57444000  1
  C  C18  1  0.81882700  0.57238900  0.47595900  1
  C  C19  1  0.48203600  0.51278700  0.25981600  1
  C  C20  1  0.47015700  0.43622200  0.22237300  1
  C  C21  1  0.47561000  0.44180500  0.14092000  1
  C  C22  1  0.49297400  0.52470900  0.09481700  1
  C  C23  1  0.50208900  0.60198900  0.13247700  1
  C  C24  1  0.49718700  0.59509100  0.21455400  1
  C  C25  1  0.52767200  0.54792800  0.85585200  1
  C  C26  1  0.53231600  0.55169800  0.77444600  1
  C  C27  1  0.50825200  0.46534100  0.90237900  1
  C  C28  1  0.51780200  0.47382300  0.73796000  1
  C  C29  1  0.50137400  0.39182000  0.78427100  1
  C  C30  1  0.49678400  0.38791400  0.86605300  1
  C  C31  1  0.53045800  0.25327900  0.43730200  1
  C  C32  1  0.52487400  0.16373100  0.43187500  1
  C  C33  1  0.47903300  0.09826000  0.49572300  1
  C  C34  1  0.43422100  0.12451600  0.55755100  1
  C  C35  1  0.43890200  0.21345000  0.55896600  1
  C  C36  1  0.46511300  0.83599900  0.53638000  1
  C  C37  1  0.45315900  0.74436400  0.54671000  1
  C  C38  1  0.52806400  0.89323000  0.47624700  1
  C  C39  1  0.56629200  0.76507100  0.43742200  1
  C  C40  1  0.57923400  0.85689300  0.42661700  1
  C  C41  1  0.51945900  0.69510700  0.08927100  1
  C  C42  1  0.37955500  0.69370900  0.61502900  1
  C  C43  1  0.81527700  0.30372600  0.65922800  1
  C  C44  1  0.56163800  0.14183900  0.35530100  1
  C  C45  1  0.82329700  0.71333800  0.38134600  1
  N  N1  1  0.50291200  0.53106700  0.01102400  1
  N  N2  1  0.49857200  0.45796800  0.98615500  1
  N  N3  1  0.49005100  0.27691800  0.50058000  1
  N  N4  1  0.47019100  0.00480000  0.50093200  1
  N  N5  1  0.54054100  0.98728200  0.46537200  1
  N  N6  1  0.50666400  0.70899400  0.49777900  1
  O  O1  1  0.49592200  0.57912100  0.38281700  1
  O  O2  1  0.47722600  0.42725000  0.38536100  1
  O  O3  1  0.65482500  0.60699000  0.48627800  1
  O  O4  1  0.64782300  0.45811300  0.48918000  1
  O  O5  1  0.51582500  0.55710400  0.61273200  1
  O  O6  1  0.50565600  0.40765500  0.61473600  1
  O  O7  1  0.34894300  0.52761500  0.50443800  1
  O  O8  1  0.34251000  0.37813200  0.51543200  1
  F  F1  1  0.51585000  0.69591500  0.00776600  1
  F  F2  1  0.61688000  0.75200000  0.10915000  1
  F  F3  1  0.44218500  0.72822400  0.11333600  1
  F  F4  1  0.35911300  0.60167000  0.62489700  1
  F  F5  1  0.28421000  0.70951500  0.60335200  1
  F  F6  1  0.42221800  0.72782900  0.68434800  1
  F  F7  1  0.71846500  0.31009300  0.67920800  1
  F  F8  1  0.87307200  0.30477000  0.72778800  1
  F  F9  1  0.79744200  0.22198100  0.62826200  1
  F  F10  1  0.65677600  0.12540100  0.36601800  1
  F  F11  1  0.57600200  0.21365200  0.29644800  1
  F  F12  1  0.48660100  0.06685200  0.32962700  1
  F  F13  1  0.89250000  0.77420900  0.32595600  1
  F  F14  1  0.79459500  0.76260900  0.43447500  1
  F  F15  1  0.73652500  0.66503900  0.34091500  1
