# generated using pymatgen
data_Fe2H17C40N2ClO16
_symmetry_space_group_name_H-M   'P 1'
_cell_length_a   15.41967400
_cell_length_b   14.10445200
_cell_length_c   13.43469100
_cell_angle_alpha   93.10524200
_cell_angle_beta   101.95905900
_cell_angle_gamma   112.55662200
_symmetry_Int_Tables_number   1
_chemical_formula_structural   Fe2H17C40N2ClO16
_chemical_formula_sum   'Fe2 H17 C40 N2 Cl1 O16'
_cell_volume   2610.72681156
_cell_formula_units_Z   1
loop_
 _symmetry_equiv_pos_site_id
 _symmetry_equiv_pos_as_xyz
  1  'x, y, z'
loop_
 _atom_site_type_symbol
 _atom_site_label
 _atom_site_symmetry_multiplicity
 _atom_site_fract_x
 _atom_site_fract_y
 _atom_site_fract_z
 _atom_site_occupancy
  Fe  Fe1  1  0.49021300  0.98852800  0.77468000  1
  Fe  Fe2  1  0.50589700  0.99359600  0.22927500  1
  H  H1  1  0.78614400  0.00324900  0.24769500  1
  H  H2  1  0.83239400  0.98914100  0.89806600  1
  H  H3  1  0.05542800  0.06167200  0.09993300  1
  H  H4  1  0.93756200  0.91112900  0.90130100  1
  H  H5  1  0.04596000  0.94155100  0.78413400  1
  H  H6  1  0.20125300  0.95918700  0.75493700  1
  H  H7  1  0.16369900  0.99006500  0.10733200  1
  H  H8  1  0.51015000  0.62547400  0.31612900  1
  H  H9  1  0.47816300  0.61689600  0.62570500  1
  H  H10  1  0.48052200  0.35400200  0.68635000  1
  H  H11  1  0.51401500  0.36403800  0.37731300  1
  H  H12  1  0.46097500  0.86444200  0.46635800  1
  H  H13  1  0.53168800  0.11646700  0.53634500  1
  H  H14  1  0.96952100  0.87290700  0.19506200  1
  H  H15  1  0.15093900  0.03132700  0.48932800  1
  H  H16  1  0.08428700  0.16430900  0.47539600  1
  H  H17  1  0.96143300  0.15297200  0.32112500  1
  C  C1  1  0.79618500  0.00105800  0.17047500  1
  C  C2  1  0.88325700  0.00554600  0.15603200  1
  C  C3  1  0.89584800  0.99852300  0.05724000  1
  C  C4  1  0.82047600  0.98834200  0.97441300  1
  C  C5  1  0.73181800  0.98241600  0.98838600  1
  C  C6  1  0.71971700  0.98710800  0.08854000  1
  C  C7  1  0.99141100  0.01084900  0.04208700  1
  C  C8  1  0.00098600  0.96029300  0.96083700  1
  C  C9  1  0.10641100  0.95677800  0.84925400  1
  C  C10  1  0.19415800  0.96607900  0.83307400  1
  C  C11  1  0.27328200  0.98750100  0.91462400  1
  C  C12  1  0.26265300  0.99479400  0.01540000  1
  C  C13  1  0.17378300  0.98703300  0.03032600  1
  C  C14  1  0.09630500  0.97022400  0.94757500  1
  C  C15  1  0.49152600  0.16844500  0.70210400  1
  C  C16  1  0.36473000  0.00189000  0.88833100  1
  C  C17  1  0.65729000  0.97959100  0.89718800  1
  C  C18  1  0.46877500  0.80422500  0.65027500  1
  C  C19  1  0.52497700  0.17762400  0.35267600  1
  C  C20  1  0.33869800  0.00127200  0.10669100  1
  C  C21  1  0.62897600  0.97653800  0.11420300  1
  C  C22  1  0.50001900  0.81132000  0.30013600  1
  C  C23  1  0.48213700  0.74830600  0.38212400  1
  C  C24  1  0.49551800  0.65739200  0.38258500  1
  C  C25  1  0.48981100  0.60631800  0.46745200  1
  C  C26  1  0.47750900  0.65133800  0.55579300  1
  C  C27  1  0.46810800  0.74523300  0.55618800  1
  C  C28  1  0.46647700  0.79045400  0.46760800  1
  C  C29  1  0.49560100  0.32250500  0.61998800  1
  C  C30  1  0.50942600  0.23182800  0.62037400  1
  C  C31  1  0.52587000  0.19030200  0.53508200  1
  C  C32  1  0.52451400  0.23583900  0.44667500  1
  C  C33  1  0.51437900  0.32934200  0.44707500  1
  C  C34  1  0.50145400  0.37385700  0.53530000  1
  C  C35  1  0.95896000  0.01356400  0.24673100  1
  C  C36  1  0.99552100  0.93804100  0.25565600  1
  C  C37  1  0.06462100  0.94470300  0.34249700  1
  C  C38  1  0.09683100  0.02619400  0.42122800  1
  C  C39  1  0.05944200  0.10069500  0.41340500  1
  C  C40  1  0.99025200  0.09409500  0.32666600  1
  N  N1  1  0.50066400  0.51106800  0.46231700  1
  N  N2  1  0.49044900  0.46903200  0.54052200  1
  Cl  Cl1  1  0.11093600  0.84909900  0.35307400  1
  O  O1  1  0.55369200  0.12799400  0.73723500  1
  O  O2  1  0.44361800  0.08527000  0.92986500  1
  O  O3  1  0.40231600  0.12482300  0.71146800  1
  O  O4  1  0.36287400  0.94180100  0.80900600  1
  O  O5  1  0.57510500  0.98185200  0.90689600  1
  O  O6  1  0.67545300  0.98093800  0.80594900  1
  O  O7  1  0.47199500  0.89820300  0.64484700  1
  O  O8  1  0.47585100  0.76918700  0.73879900  1
  O  O9  1  0.52619600  0.08549200  0.35893300  1
  O  O10  1  0.51392700  0.21085900  0.26349500  1
  O  O11  1  0.42166100  0.00138500  0.09701900  1
  O  O12  1  0.32042000  0.99842900  0.19789300  1
  O  O13  1  0.58840600  0.85107600  0.28777500  1
  O  O14  1  0.63285300  0.03686600  0.19447000  1
  O  O15  1  0.43995600  0.85500000  0.26747500  1
  O  O16  1  0.54850000  0.89512900  0.07203400  1
