# generated using pymatgen
data_Zn2H18C28N2O9
_symmetry_space_group_name_H-M   'P 1'
_cell_length_a   8.57614500
_cell_length_b   9.32498500
_cell_length_c   13.06613000
_cell_angle_alpha   90.00000000
_cell_angle_beta   93.53198000
_cell_angle_gamma   90.00000000
_symmetry_Int_Tables_number   1
_chemical_formula_structural   Zn2H18C28N2O9
_chemical_formula_sum   'Zn2 H18 C28 N2 O9'
_cell_volume   1042.94530834
_cell_formula_units_Z   1
loop_
 _symmetry_equiv_pos_site_id
 _symmetry_equiv_pos_as_xyz
  1  'x, y, z'
loop_
 _atom_site_type_symbol
 _atom_site_label
 _atom_site_symmetry_multiplicity
 _atom_site_fract_x
 _atom_site_fract_y
 _atom_site_fract_z
 _atom_site_occupancy
  Zn  Zn1  1  0.46802000  0.86259800  0.49056400  1
  Zn  Zn2  1  0.46951800  0.18769300  0.49459800  1
  H  H1  1  0.18526600  0.99248100  0.14651900  1
  H  H2  1  0.11639300  0.11098000  0.99899400  1
  H  H3  1  0.75177400  0.06098500  0.83622000  1
  H  H4  1  0.68632800  0.98558100  0.14901600  1
  H  H5  1  0.96325300  0.07933200  0.42049100  1
  H  H6  1  0.25090400  0.05543500  0.83720800  1
  H  H7  1  0.97478600  0.97269100  0.56361900  1
  H  H8  1  0.45337500  0.65289300  0.33260200  1
  H  H9  1  0.45496200  0.39008900  0.33594100  1
  H  H10  1  0.48598600  0.78599600  0.68937600  1
  H  H11  1  0.48839100  0.27042200  0.69253400  1
  H  H12  1  0.49982100  0.66160400  0.84184400  1
  H  H13  1  0.50116500  0.39988900  0.84419700  1
  H  H14  1  0.98267200  0.76682700  0.99984500  1
  H  H15  1  0.84020600  0.72343000  0.89673300  1
  H  H16  1  0.64371400  0.67326000  0.02547900  1
  H  H17  1  0.81529300  0.56101900  0.04494700  1
  H  H18  1  0.78929900  0.71379700  0.12764300  1
  C  C1  1  0.81082800  0.02763100  0.29211400  1
  C  C2  1  0.79985900  0.99976200  0.18837700  1
  C  C3  1  0.93379800  0.99843000  0.13421400  1
  C  C4  1  0.07959500  0.00637600  0.18634900  1
  C  C5  1  0.08955500  0.03031700  0.29074700  1
  C  C6  1  0.95510700  0.05142700  0.34074700  1
  C  C7  1  0.91834600  0.98540200  0.02218300  1
  C  C8  1  0.01830500  0.05235400  0.96360200  1
  C  C9  1  0.13744200  0.04391800  0.79723200  1
  C  C10  1  0.12611800  0.02150700  0.69271600  1
  C  C11  1  0.98270600  0.99870100  0.64368800  1
  C  C12  1  0.84892000  0.01974500  0.69350900  1
  C  C13  1  0.85796500  0.04250000  0.79794600  1
  C  C14  1  0.00326300  0.04418100  0.85116500  1
  C  C15  1  0.67455200  0.02601900  0.35425400  1
  C  C16  1  0.70181500  0.02292200  0.63147400  1
  C  C17  1  0.26099100  0.02393300  0.63009900  1
  C  C18  1  0.23803000  0.02730300  0.35245500  1
  C  C19  1  0.48525800  0.67367200  0.67905400  1
  C  C20  1  0.48672900  0.38277000  0.68160600  1
  C  C21  1  0.49370600  0.60222800  0.77066900  1
  C  C22  1  0.49442100  0.45687300  0.77201200  1
  C  C23  1  0.47778200  0.45210000  0.58641500  1
  C  C24  1  0.47679900  0.60157000  0.58466600  1
  C  C25  1  0.46028000  0.59756100  0.40543800  1
  C  C26  1  0.46137200  0.44879300  0.40740900  1
  C  C27  1  0.85637000  0.76625500  0.97585700  1
  C  C28  1  0.77039900  0.67234100  0.04831000  1
  N  N1  1  0.46787000  0.67361000  0.49327200  1
  N  N2  1  0.47015900  0.37663800  0.49706900  1
  O  O1  1  0.62593400  0.15097500  0.38873700  1
  O  O2  1  0.62359000  0.89912900  0.38408900  1
  O  O3  1  0.64648800  0.90284100  0.59480700  1
  O  O4  1  0.64695100  0.14602800  0.59946700  1
  O  O5  1  0.30838500  0.90189000  0.59395300  1
  O  O6  1  0.31080100  0.14833600  0.59872900  1
  O  O7  1  0.29408200  0.15002600  0.38783700  1
  O  O8  1  0.29354300  0.90159900  0.38323100  1
  O  O9  1  0.79790400  0.90568600  0.97836900  1
