# Generated by REPEAT Assigner based on pymatgen
data_DB0-m2_o1_o28_f0_nbo.sym.55
_audit_creation_date              2022-05-24
_audit_creation_method            REPEAT_Assigner
_cell_length_a                    21.532309
_cell_length_b                    21.532309
_cell_length_c                    46.549393
_cell_angle_alpha                 90.000000
_cell_angle_beta                  90.000000
_cell_angle_gamma                 90.000000
_cell_volume                      21582.176111
_symmetry_space_group_name_H-M    P1
_symmetry_Int_Tables_number       1
loop_
    _symmetry_equiv_pos_site_id
    _symmetry_equiv_pos_as_xyz
    1  x,y,z
loop_
    _atom_site_type_symbol
    _atom_site_label
    _atom_site_fract_x
    _atom_site_fract_y
    _atom_site_fract_z
    _atom_type_partial_charge
    O   O1    0.981275  0.088235  0.023437  -0.441283
    O   O2    0.911765  0.981275  0.023437  -0.441283
    O   O3    0.018725  0.911765  0.023437  -0.441277
    O   O4    0.088235  0.018725  0.023437  -0.441260
    O   O5    0.981275  0.911765  0.976563  -0.441365
    O   O6    0.911765  0.018725  0.976563  -0.441348
    O   O7    0.018725  0.088235  0.976563  -0.441343
    O   O8    0.088235  0.981275  0.976563  -0.441365
    O   O9    0.481275  0.588235  0.523437  -0.441333
    O   O10   0.411765  0.481275  0.523437  -0.441329
    O   O11   0.518725  0.411765  0.523437  -0.441328
    O   O12   0.588235  0.518725  0.523437  -0.441333
    O   O13   0.481275  0.411765  0.476563  -0.441323
    O   O14   0.411765  0.518725  0.476563  -0.441324
    O   O15   0.518725  0.588235  0.476563  -0.441322
    O   O16   0.588235  0.481275  0.476563  -0.441322
    C   C1    0.000000  0.117471  0.000000  0.543515
    C   C2    0.882529  0.000000  0.000000  0.543513
    C   C3    0.000000  0.882529  0.000000  0.543516
    C   C4    0.117471  0.000000  0.000000  0.543504
    C   C5    0.500000  0.617471  0.500000  0.543536
    C   C6    0.382529  0.500000  0.500000  0.543540
    C   C7    0.500000  0.382529  0.500000  0.543541
    C   C8    0.617471  0.500000  0.500000  0.543539
    Cu  Cu1   0.000000  0.000000  0.027905  0.756007
    Cu  Cu2   0.000000  0.000000  0.972094  0.755881
    Cu  Cu3   0.500000  0.500000  0.527905  0.755956
    Cu  Cu4   0.500000  0.500000  0.472094  0.755942
    C   C9    0.218292  0.038081  0.981197  0.132705
    C   C10   0.961919  0.218292  0.981197  0.132718
    C   C11   0.781708  0.961919  0.981197  0.132704
    C   C12   0.038081  0.781708  0.981197  0.132700
    C   C13   0.218292  0.961919  0.018803  0.132704
    C   C14   0.961919  0.781708  0.018803  0.132722
    C   C15   0.781708  0.038081  0.018803  0.132714
    C   C16   0.038081  0.218292  0.018803  0.132707
    C   C17   0.718292  0.538081  0.481197  0.132726
    C   C18   0.461919  0.718292  0.481197  0.132723
    C   C19   0.281708  0.461919  0.481197  0.132728
    C   C20   0.538081  0.281708  0.481197  0.132726
    C   C21   0.718292  0.461919  0.518803  0.132678
    C   C22   0.461919  0.281708  0.518803  0.132685
    C   C23   0.281708  0.538081  0.518803  0.132687
    C   C24   0.538081  0.718292  0.518803  0.132682
    C   C25   0.282270  0.039415  0.982058  -0.221999
    C   C26   0.960585  0.282270  0.982058  -0.222001
    C   C27   0.717730  0.960585  0.982058  -0.222006
    C   C28   0.039415  0.717730  0.982058  -0.221996
    C   C29   0.282270  0.960585  0.017942  -0.221990
    C   C30   0.960585  0.717730  0.017942  -0.221996
    C   C31   0.717730  0.039415  0.017942  -0.221998
    C   C32   0.039415  0.282270  0.017942  -0.221984
    C   C33   0.782270  0.539415  0.482058  -0.221988
    C   C34   0.460585  0.782270  0.482058  -0.221985
    C   C35   0.217730  0.460585  0.482058  -0.221986
    C   C36   0.539415  0.217730  0.482058  -0.221984
    C   C37   0.782270  0.460585  0.517942  -0.221941
    C   C38   0.460585  0.217730  0.517942  -0.221940
    C   C39   0.217730  0.539415  0.517942  -0.221941
    C   C40   0.539415  0.782270  0.517942  -0.221940
    H   H1    0.307021  0.070162  0.967719  0.121533
    H   H2    0.929838  0.307021  0.967719  0.121532
    H   H3    0.692979  0.929838  0.967719  0.121534
    H   H4    0.070162  0.692979  0.967719  0.121528
    H   H5    0.307021  0.929838  0.032281  0.121534
    H   H6    0.929838  0.692979  0.032281  0.121535
    H   H7    0.692979  0.070162  0.032281  0.121533
    H   H8    0.070162  0.307021  0.032281  0.121530
    H   H9    0.807021  0.570162  0.467719  0.121527
    H   H10   0.429838  0.807021  0.467719  0.121528
    H   H11   0.192979  0.429838  0.467719  0.121527
    H   H12   0.570162  0.192979  0.467719  0.121526
    H   H13   0.807021  0.429838  0.532281  0.121511
    H   H14   0.429838  0.192979  0.532281  0.121511
    H   H15   0.192979  0.570162  0.532281  0.121513
    H   H16   0.570162  0.807021  0.532281  0.121510
    C   C41   0.314426  0.000000  0.000000  0.019695
    C   C42   0.000000  0.314426  0.000000  0.019676
    C   C43   0.685574  0.000000  0.000000  0.019704
    C   C44   0.000000  0.685574  0.000000  0.019686
    C   C45   0.814426  0.500000  0.500000  0.019649
    C   C46   0.500000  0.814426  0.500000  0.019640
    C   C47   0.185574  0.500000  0.500000  0.019638
    C   C48   0.500000  0.185574  0.500000  0.019634
    C   C49   0.185635  0.000000  0.000000  -0.154092
    C   C50   0.000000  0.185635  0.000000  -0.154095
    C   C51   0.814365  0.000000  0.000000  -0.154097
    C   C52   0.000000  0.814365  0.000000  -0.154097
    C   C53   0.685635  0.500000  0.500000  -0.154119
    C   C54   0.500000  0.685635  0.500000  -0.154120
    C   C55   0.314365  0.500000  0.500000  -0.154122
    C   C56   0.500000  0.314365  0.500000  -0.154122
    O   O17   0.482644  0.051187  0.041019  -0.615059
    O   O18   0.948813  0.482644  0.041019  -0.615083
    O   O19   0.517356  0.948813  0.041019  -0.615065
    O   O20   0.051187  0.517356  0.041019  -0.615056
    O   O21   0.482644  0.948813  0.958981  -0.615048
    O   O22   0.948813  0.517356  0.958981  -0.615058
    O   O23   0.517356  0.051187  0.958981  -0.615047
    O   O24   0.051187  0.482644  0.958981  -0.615027
    O   O25   0.982644  0.551187  0.541019  -0.615110
    O   O26   0.448813  0.982644  0.541019  -0.615118
    O   O27   0.017356  0.448813  0.541019  -0.615102
    O   O28   0.551187  0.017356  0.541019  -0.615107
    O   O29   0.982644  0.448813  0.458981  -0.615073
    O   O30   0.448813  0.017356  0.458981  -0.615080
    O   O31   0.017356  0.551187  0.458981  -0.615077
    O   O32   0.551187  0.982644  0.458981  -0.615082
    C   C57   0.500000  0.000000  0.054474  0.733268
    C   C58   0.000000  0.500000  0.054474  0.733315
    C   C59   0.500000  0.000000  0.945526  0.733307
    C   C60   0.000000  0.500000  0.945526  0.733310
    C   C61   0.000000  0.500000  0.554474  0.733422
    C   C62   0.500000  0.000000  0.554474  0.733444
    C   C63   0.000000  0.500000  0.445526  0.733276
    C   C64   0.500000  0.000000  0.445526  0.733301
    O   O33   0.411400  0.051159  0.991996  -0.582611
    O   O34   0.948841  0.411400  0.991996  -0.582616
    O   O35   0.588600  0.948841  0.991996  -0.582599
    O   O36   0.051159  0.588600  0.991996  -0.582574
    O   O37   0.411400  0.948841  0.008004  -0.582613
    O   O38   0.948841  0.588600  0.008004  -0.582628
    O   O39   0.588600  0.051159  0.008004  -0.582614
    O   O40   0.051159  0.411400  0.008004  -0.582598
    O   O41   0.911400  0.551159  0.491996  -0.582639
    O   O42   0.448841  0.911400  0.491996  -0.582637
    O   O43   0.088600  0.448841  0.491996  -0.582632
    O   O44   0.551159  0.088600  0.491996  -0.582631
    O   O45   0.911400  0.448841  0.508004  -0.582635
    O   O46   0.448841  0.088600  0.508004  -0.582650
    O   O47   0.088600  0.551159  0.508004  -0.582644
    O   O48   0.551159  0.911400  0.508004  -0.582637
    C   C65   0.382309  0.000000  0.000000  0.691481
    C   C66   0.000000  0.382309  0.000000  0.691500
    C   C67   0.617691  0.000000  0.000000  0.691473
    C   C68   0.000000  0.617691  0.000000  0.691488
    C   C69   0.882309  0.500000  0.500000  0.691545
    C   C70   0.500000  0.882309  0.500000  0.691559
    C   C71   0.117691  0.500000  0.500000  0.691557
    C   C72   0.500000  0.117691  0.500000  0.691565
    Cu  Cu5   0.500000  0.060634  0.000000  0.963264
    Cu  Cu6   0.939366  0.500000  0.000000  0.963204
    Cu  Cu7   0.500000  0.939366  0.000000  0.963276
    Cu  Cu8   0.060634  0.500000  0.000000  0.963343
    Cu  Cu9   0.000000  0.560634  0.500000  0.963286
    Cu  Cu10  0.439366  0.000000  0.500000  0.963280
    Cu  Cu11  0.000000  0.439366  0.500000  0.963324
    Cu  Cu12  0.560634  0.000000  0.500000  0.963312
    C   C73   0.037121  0.460174  0.809402  0.456955
    C   C74   0.539826  0.037121  0.809402  0.456955
    C   C75   0.962879  0.539826  0.809402  0.456954
    C   C76   0.460174  0.962879  0.809402  0.456955
    C   C77   0.037121  0.539826  0.190598  0.456943
    C   C78   0.539826  0.962879  0.190598  0.456944
    C   C79   0.962879  0.460174  0.190598  0.456945
    C   C80   0.460174  0.037121  0.190598  0.456945
    C   C81   0.537121  0.960174  0.309402  0.456948
    C   C82   0.039826  0.537121  0.309402  0.456952
    C   C83   0.462879  0.039826  0.309402  0.456948
    C   C84   0.960174  0.462879  0.309402  0.456951
    C   C85   0.537121  0.039826  0.690598  0.456931
    C   C86   0.039826  0.462879  0.690598  0.456935
    C   C87   0.462879  0.960174  0.690598  0.456932
    C   C88   0.960174  0.537121  0.690598  0.456933
    N   N1    0.000000  0.500000  0.823846  -0.172529
    N   N2    0.500000  0.000000  0.823846  -0.172527
    N   N3    0.000000  0.500000  0.176154  -0.172514
    N   N4    0.500000  0.000000  0.176154  -0.172504
    N   N5    0.500000  0.000000  0.323846  -0.172512
    N   N6    0.000000  0.500000  0.323846  -0.172521
    N   N7    0.500000  0.000000  0.676154  -0.172422
    N   N8    0.000000  0.500000  0.676154  -0.172425
    C   C89   0.961529  0.539489  0.779706  -0.115026
    C   C90   0.460511  0.961529  0.779706  -0.115019
    C   C91   0.038471  0.460511  0.779706  -0.115035
    C   C92   0.539489  0.038471  0.779706  -0.115021
    C   C93   0.961529  0.460511  0.220294  -0.115026
    C   C94   0.460511  0.038471  0.220294  -0.115019
    C   C95   0.038471  0.539489  0.220294  -0.115032
    C   C96   0.539489  0.961529  0.220294  -0.115021
    C   C97   0.461529  0.039489  0.279706  -0.115020
    C   C98   0.960511  0.461529  0.279706  -0.115027
    C   C99   0.538471  0.960511  0.279706  -0.115021
    C   C100  0.039489  0.538471  0.279706  -0.115028
    C   C101  0.461529  0.960511  0.720294  -0.115044
    C   C102  0.960511  0.538471  0.720294  -0.115049
    C   C103  0.538471  0.039489  0.720294  -0.115047
    C   C104  0.039489  0.461529  0.720294  -0.115056
    C   C105  0.000000  0.500000  0.764816  0.101938
    C   C106  0.500000  0.000000  0.764816  0.101935
    C   C107  0.000000  0.500000  0.235184  0.101964
    C   C108  0.500000  0.000000  0.235184  0.101959
    C   C109  0.500000  0.000000  0.264816  0.101958
    C   C110  0.000000  0.500000  0.264816  0.101961
    C   C111  0.500000  0.000000  0.735184  0.101993
    C   C112  0.000000  0.500000  0.735184  0.101996
    C   C113  0.922248  0.578699  0.764794  -0.052967
    C   C114  0.421301  0.922248  0.764794  -0.052963
    C   C115  0.077752  0.421301  0.764794  -0.052962
    C   C116  0.578699  0.077752  0.764794  -0.052959
    C   C117  0.922248  0.421301  0.235206  -0.052945
    C   C118  0.421301  0.077752  0.235206  -0.052940
    C   C119  0.077752  0.578699  0.235206  -0.052942
    C   C120  0.578699  0.922248  0.235206  -0.052940
    C   C121  0.422248  0.078699  0.264794  -0.052951
    C   C122  0.921301  0.422248  0.264794  -0.052953
    C   C123  0.577752  0.921301  0.264794  -0.052950
    C   C124  0.078699  0.577752  0.264794  -0.052949
    C   C125  0.422248  0.921301  0.735206  -0.052927
    C   C126  0.921301  0.577752  0.735206  -0.052930
    C   C127  0.577752  0.078699  0.735206  -0.052926
    C   C128  0.078699  0.422248  0.735206  -0.052924
    O   O49   0.071888  0.418909  0.823912  -0.479167
    O   O50   0.581091  0.071888  0.823912  -0.479168
    O   O51   0.928112  0.581091  0.823912  -0.479170
    O   O52   0.418909  0.928112  0.823912  -0.479168
    O   O53   0.071888  0.581091  0.176088  -0.479153
    O   O54   0.581091  0.928112  0.176088  -0.479153
    O   O55   0.928112  0.418909  0.176088  -0.479159
    O   O56   0.418909  0.071888  0.176088  -0.479154
    O   O57   0.571888  0.918909  0.323912  -0.479154
    O   O58   0.081091  0.571888  0.323912  -0.479156
    O   O59   0.428112  0.081091  0.323912  -0.479153
    O   O60   0.918909  0.428112  0.323912  -0.479155
    O   O61   0.571888  0.081091  0.676088  -0.479154
    O   O62   0.081091  0.428112  0.676088  -0.479158
    O   O63   0.428112  0.918909  0.676088  -0.479158
    O   O64   0.918909  0.571888  0.676088  -0.479159
    H   H17   0.891401  0.610130  0.775910  0.128384
    H   H18   0.389870  0.891401  0.775910  0.128383
    H   H19   0.108599  0.389870  0.775910  0.128381
    H   H20   0.610130  0.108599  0.775910  0.128382
    H   H21   0.891401  0.389870  0.224090  0.128372
    H   H22   0.389870  0.108599  0.224090  0.128370
    H   H23   0.108599  0.610130  0.224090  0.128369
    H   H24   0.610130  0.891401  0.224090  0.128369
    H   H25   0.391401  0.110130  0.275910  0.128376
    H   H26   0.889870  0.391401  0.275910  0.128376
    H   H27   0.608599  0.889870  0.275910  0.128376
    H   H28   0.110130  0.608599  0.275910  0.128376
    H   H29   0.391401  0.889870  0.724090  0.128363
    H   H30   0.889870  0.608599  0.724090  0.128362
    H   H31   0.608599  0.110130  0.724090  0.128361
    H   H32   0.110130  0.391401  0.724090  0.128360
    C   C129  0.493472  0.944988  0.130410  -0.223112
    C   C130  0.055012  0.493472  0.130410  -0.223111
    C   C131  0.506528  0.055012  0.130410  -0.223113
    C   C132  0.944988  0.506528  0.130410  -0.223115
    C   C133  0.493472  0.055012  0.869590  -0.223130
    C   C134  0.055012  0.506528  0.869590  -0.223128
    C   C135  0.506528  0.944988  0.869590  -0.223128
    C   C136  0.944988  0.493472  0.869590  -0.223132
    C   C137  0.993472  0.444988  0.630410  -0.223026
    C   C138  0.555012  0.993472  0.630410  -0.223023
    C   C139  0.006528  0.555012  0.630410  -0.223027
    C   C140  0.444988  0.006528  0.630410  -0.223022
    C   C141  0.993472  0.555012  0.369590  -0.223118
    C   C142  0.555012  0.006528  0.369590  -0.223113
    C   C143  0.006528  0.444988  0.369590  -0.223117
    C   C144  0.444988  0.993472  0.369590  -0.223114
    H   H33   0.487137  0.901640  0.141749  0.149978
    H   H34   0.098360  0.487137  0.141749  0.149976
    H   H35   0.512863  0.098360  0.141749  0.149978
    H   H36   0.901640  0.512863  0.141749  0.149976
    H   H37   0.487137  0.098360  0.858251  0.149979
    H   H38   0.098360  0.512863  0.858251  0.149979
    H   H39   0.512863  0.901640  0.858251  0.149980
    H   H40   0.901640  0.487137  0.858251  0.149979
    H   H41   0.987137  0.401640  0.641749  0.149944
    H   H42   0.598360  0.987137  0.641749  0.149944
    H   H43   0.012863  0.598360  0.641749  0.149944
    H   H44   0.401640  0.012863  0.641749  0.149945
    H   H45   0.987137  0.598360  0.358251  0.149977
    H   H46   0.598360  0.012863  0.358251  0.149976
    H   H47   0.012863  0.401640  0.358251  0.149978
    H   H48   0.401640  0.987137  0.358251  0.149977
    C   C145  0.494505  0.944866  0.100806  0.018135
    C   C146  0.055134  0.494505  0.100806  0.018155
    C   C147  0.505495  0.055134  0.100806  0.018134
    C   C148  0.944866  0.505495  0.100806  0.018151
    C   C149  0.494505  0.055134  0.899194  0.018154
    C   C150  0.055134  0.505495  0.899194  0.018156
    C   C151  0.505495  0.944866  0.899194  0.018153
    C   C152  0.944866  0.494505  0.899194  0.018153
    C   C153  0.994505  0.444866  0.600806  0.018297
    C   C154  0.555134  0.994505  0.600806  0.018296
    C   C155  0.005495  0.555134  0.600806  0.018294
    C   C156  0.444866  0.005495  0.600806  0.018295
    C   C157  0.994505  0.555134  0.399194  0.018144
    C   C158  0.555134  0.005495  0.399194  0.018145
    C   C159  0.005495  0.444866  0.399194  0.018144
    C   C160  0.444866  0.994505  0.399194  0.018144
    H   H49   0.489335  0.901360  0.089484  0.099105
    H   H50   0.098640  0.489335  0.089484  0.099096
    H   H51   0.510665  0.098640  0.089484  0.099106
    H   H52   0.901360  0.510665  0.089484  0.099102
    H   H53   0.489335  0.098640  0.910516  0.099106
    H   H54   0.098640  0.510665  0.910516  0.099104
    H   H55   0.510665  0.901360  0.910516  0.099105
    H   H56   0.901360  0.489335  0.910516  0.099110
    H   H57   0.989335  0.401360  0.589484  0.099078
    H   H58   0.598640  0.989335  0.589484  0.099077
    H   H59   0.010665  0.598640  0.589484  0.099081
    H   H60   0.401360  0.010665  0.589484  0.099079
    H   H61   0.989335  0.598640  0.410516  0.099102
    H   H62   0.598640  0.010665  0.410516  0.099099
    H   H63   0.010665  0.401360  0.410516  0.099101
    H   H64   0.401360  0.989335  0.410516  0.099099
    C   C161  0.500000  0.000000  0.085889  -0.142718
    C   C162  0.000000  0.500000  0.085889  -0.142757
    C   C163  0.500000  0.000000  0.914111  -0.142759
    C   C164  0.000000  0.500000  0.914111  -0.142759
    C   C165  0.000000  0.500000  0.585889  -0.143028
    C   C166  0.500000  0.000000  0.585889  -0.143048
    C   C167  0.000000  0.500000  0.414111  -0.142735
    C   C168  0.500000  0.000000  0.414111  -0.142755
    C   C169  0.500000  0.000000  0.145423  0.252774
    C   C170  0.000000  0.500000  0.145423  0.252777
    C   C171  0.500000  0.000000  0.854577  0.252796
    C   C172  0.000000  0.500000  0.854577  0.252797
    C   C173  0.000000  0.500000  0.645423  0.252572
    C   C174  0.500000  0.000000  0.645423  0.252572
    C   C175  0.000000  0.500000  0.354577  0.252785
    C   C176  0.500000  0.000000  0.354577  0.252784
    C   C177  0.186648  0.081114  0.961760  0.097159
    C   C178  0.192107  0.144079  0.966328  -0.141566
    C   C179  0.162330  0.185528  0.948470  -0.296218
    C   C180  0.128669  0.164082  0.925342  0.422806
    F   F1    0.099470  0.204780  0.907725  -0.231819
    C   C181  0.125903  0.101276  0.919782  -0.278983
    C   C182  0.155516  0.059896  0.937752  -0.140139
    H   H65   0.219673  0.160891  0.984060  0.144581
    H   H66   0.165649  0.234839  0.952531  0.151363
    H   H67   0.100630  0.084456  0.901292  0.158933
    H   H68   0.154258  0.010857  0.932945  0.131028
    C   C183  0.918886  0.186648  0.961760  0.097149
    C   C184  0.855921  0.192107  0.966328  -0.141566
    C   C185  0.814472  0.162330  0.948470  -0.296213
    C   C186  0.835918  0.128669  0.925342  0.422807
    F   F2    0.795220  0.099470  0.907725  -0.231818
    C   C187  0.898724  0.125903  0.919782  -0.278981
    C   C188  0.940104  0.155516  0.937752  -0.140141
    H   H69   0.839109  0.219673  0.984060  0.144580
    H   H70   0.765161  0.165649  0.952531  0.151360
    H   H71   0.915544  0.100630  0.901292  0.158933
    H   H72   0.989143  0.154258  0.932945  0.131030
    C   C189  0.813352  0.918886  0.961760  0.097166
    C   C190  0.807893  0.855921  0.966328  -0.141565
    C   C191  0.837670  0.814472  0.948470  -0.296221
    C   C192  0.871331  0.835918  0.925342  0.422807
    F   F3    0.900530  0.795220  0.907725  -0.231821
    C   C193  0.874097  0.898724  0.919782  -0.278974
    C   C194  0.844484  0.940103  0.937752  -0.140146
    H   H73   0.780327  0.839109  0.984060  0.144581
    H   H74   0.834351  0.765161  0.952531  0.151361
    H   H75   0.899370  0.915543  0.901292  0.158933
    H   H76   0.845742  0.989143  0.932945  0.131027
    C   C195  0.081114  0.813352  0.961760  0.097161
    C   C196  0.144079  0.807893  0.966328  -0.141565
    C   C197  0.185528  0.837670  0.948470  -0.296221
    C   C198  0.164082  0.871331  0.925342  0.422808
    F   F4    0.204780  0.900530  0.907725  -0.231819
    C   C199  0.101276  0.874097  0.919782  -0.278976
    C   C200  0.059896  0.844484  0.937752  -0.140146
    H   H77   0.160891  0.780327  0.984060  0.144585
    H   H78   0.234839  0.834351  0.952531  0.151362
    H   H79   0.084456  0.899370  0.901292  0.158931
    H   H80   0.010857  0.845742  0.932945  0.131032
    C   C201  0.186648  0.918886  0.038240  0.097156
    C   C202  0.192107  0.855921  0.033672  -0.141581
    C   C203  0.162330  0.814472  0.051530  -0.296204
    C   C204  0.128669  0.835918  0.074658  0.422821
    F   F5    0.099470  0.795220  0.092275  -0.231824
    C   C205  0.125903  0.898724  0.080218  -0.279020
    C   C206  0.155516  0.940104  0.062248  -0.140129
    H   H81   0.219673  0.839109  0.015940  0.144574
    H   H82   0.165649  0.765161  0.047469  0.151361
    H   H83   0.100630  0.915544  0.098708  0.158947
    H   H84   0.154258  0.989143  0.067055  0.131034
    C   C207  0.918886  0.813352  0.038240  0.097152
    C   C208  0.855921  0.807893  0.033672  -0.141580
    C   C209  0.814472  0.837670  0.051530  -0.296200
    C   C210  0.835918  0.871331  0.074658  0.422812
    F   F6    0.795220  0.900530  0.092275  -0.231823
    C   C211  0.898724  0.874097  0.080218  -0.279010
    C   C212  0.940103  0.844484  0.062248  -0.140129
    H   H85   0.839109  0.780327  0.015940  0.144573
    H   H86   0.765161  0.834351  0.047469  0.151357
    H   H87   0.915543  0.899370  0.098708  0.158948
    H   H88   0.989143  0.845742  0.067055  0.131028
    C   C213  0.813352  0.081114  0.038240  0.097157
    C   C214  0.807893  0.144079  0.033672  -0.141578
    C   C215  0.837670  0.185528  0.051530  -0.296205
    C   C216  0.871331  0.164082  0.074658  0.422817
    F   F7    0.900530  0.204780  0.092275  -0.231825
    C   C217  0.874097  0.101276  0.080218  -0.279013
    C   C218  0.844484  0.059896  0.062248  -0.140136
    H   H89   0.780327  0.160891  0.015940  0.144576
    H   H90   0.834351  0.234839  0.047469  0.151358
    H   H91   0.899370  0.084457  0.098708  0.158947
    H   H92   0.845742  0.010857  0.067055  0.131038
    C   C219  0.081114  0.186648  0.038240  0.097153
    C   C220  0.144079  0.192107  0.033672  -0.141575
    C   C221  0.185528  0.162330  0.051530  -0.296203
    C   C222  0.164082  0.128669  0.074658  0.422820
    F   F8    0.204780  0.099470  0.092275  -0.231824
    C   C223  0.101276  0.125903  0.080218  -0.279016
    C   C224  0.059896  0.155516  0.062248  -0.140135
    H   H93   0.160891  0.219673  0.015940  0.144577
    H   H94   0.234839  0.165649  0.047469  0.151357
    H   H95   0.084456  0.100630  0.098708  0.158947
    H   H96   0.010857  0.154258  0.067055  0.131036
    C   C225  0.686648  0.581114  0.461760  0.097145
    C   C226  0.692107  0.644079  0.466328  -0.141567
    C   C227  0.662330  0.685528  0.448470  -0.296210
    C   C228  0.628669  0.664082  0.425342  0.422813
    F   F9    0.599470  0.704780  0.407725  -0.231820
    C   C229  0.625903  0.601276  0.419782  -0.279001
    C   C230  0.655516  0.559896  0.437752  -0.140137
    H   H97   0.719673  0.660891  0.484060  0.144576
    H   H98   0.665649  0.734839  0.452531  0.151362
    H   H99   0.600630  0.584456  0.401292  0.158939
    H   H100  0.654258  0.510857  0.432945  0.131030
    C   C231  0.418886  0.686648  0.461760  0.097150
    C   C232  0.355921  0.692107  0.466328  -0.141564
    C   C233  0.314472  0.662330  0.448470  -0.296215
    C   C234  0.335918  0.628669  0.425342  0.422812
    F   F10   0.295220  0.599470  0.407725  -0.231822
    C   C235  0.398724  0.625903  0.419782  -0.278998
    C   C236  0.440103  0.655516  0.437752  -0.140132
    H   H101  0.339109  0.719673  0.484060  0.144575
    H   H102  0.265161  0.665649  0.452531  0.151363
    H   H103  0.415544  0.600630  0.401292  0.158940
    H   H104  0.489143  0.654258  0.432945  0.131023
    C   C237  0.313352  0.418886  0.461760  0.097145
    C   C238  0.307893  0.355921  0.466328  -0.141565
    C   C239  0.337670  0.314472  0.448470  -0.296212
    C   C240  0.371331  0.335918  0.425342  0.422812
    F   F11   0.400530  0.295220  0.407725  -0.231820
    C   C241  0.374097  0.398724  0.419782  -0.279000
    C   C242  0.344484  0.440104  0.437752  -0.140136
    H   H105  0.280327  0.339109  0.484060  0.144577
    H   H106  0.334351  0.265161  0.452531  0.151363
    H   H107  0.399370  0.415544  0.401292  0.158939
    H   H108  0.345742  0.489143  0.432945  0.131030
    C   C243  0.581114  0.313352  0.461760  0.097146
    C   C244  0.644079  0.307893  0.466328  -0.141564
    C   C245  0.685528  0.337670  0.448470  -0.296213
    C   C246  0.664082  0.371331  0.425342  0.422813
    F   F12   0.704780  0.400530  0.407725  -0.231822
    C   C247  0.601276  0.374097  0.419782  -0.279001
    C   C248  0.559896  0.344484  0.437752  -0.140136
    H   H109  0.660891  0.280327  0.484060  0.144576
    H   H110  0.734839  0.334351  0.452531  0.151362
    H   H111  0.584456  0.399370  0.401292  0.158939
    H   H112  0.510857  0.345742  0.432945  0.131030
    C   C249  0.686648  0.418886  0.538240  0.097175
    C   C250  0.692107  0.355921  0.533672  -0.141568
    C   C251  0.662330  0.314472  0.551530  -0.296206
    C   C252  0.628669  0.335918  0.574658  0.422802
    F   F13   0.599470  0.295220  0.592275  -0.231823
    C   C253  0.625903  0.398724  0.580218  -0.279001
    C   C254  0.655516  0.440104  0.562248  -0.140147
    H   H113  0.719673  0.339109  0.515940  0.144578
    H   H114  0.665649  0.265161  0.547469  0.151364
    H   H115  0.600630  0.415544  0.598708  0.158945
    H   H116  0.654258  0.489143  0.567055  0.131033
    C   C255  0.418886  0.313352  0.538240  0.097169
    C   C256  0.355921  0.307893  0.533672  -0.141566
    C   C257  0.314472  0.337670  0.551530  -0.296207
    C   C258  0.335918  0.371331  0.574658  0.422802
    F   F14   0.295220  0.400530  0.592275  -0.231824
    C   C259  0.398724  0.374097  0.580218  -0.279003
    C   C260  0.440104  0.344484  0.562248  -0.140141
    H   H117  0.339109  0.280327  0.515940  0.144576
    H   H118  0.265161  0.334351  0.547469  0.151364
    H   H119  0.415544  0.399370  0.598708  0.158945
    H   H120  0.489143  0.345742  0.567055  0.131031
    C   C261  0.313352  0.581114  0.538240  0.097168
    C   C262  0.307893  0.644079  0.533672  -0.141568
    C   C263  0.337670  0.685528  0.551530  -0.296203
    C   C264  0.371331  0.664082  0.574658  0.422801
    F   F15   0.400530  0.704780  0.592275  -0.231823
    C   C265  0.374097  0.601276  0.580218  -0.279000
    C   C266  0.344484  0.559896  0.562248  -0.140142
    H   H121  0.280327  0.660891  0.515940  0.144577
    H   H122  0.334351  0.734839  0.547469  0.151362
    H   H123  0.399370  0.584456  0.598708  0.158944
    H   H124  0.345742  0.510857  0.567055  0.131031
    C   C267  0.581114  0.686648  0.538240  0.097171
    C   C268  0.644079  0.692107  0.533672  -0.141564
    C   C269  0.685528  0.662330  0.551530  -0.296209
    C   C270  0.664082  0.628669  0.574658  0.422804
    F   F16   0.704780  0.599470  0.592275  -0.231825
    C   C271  0.601276  0.625903  0.580218  -0.279003
    C   C272  0.559896  0.655516  0.562248  -0.140143
    H   H125  0.660891  0.719673  0.515940  0.144577
    H   H126  0.734839  0.665649  0.547469  0.151364
    H   H127  0.584456  0.600630  0.598708  0.158945
    H   H128  0.510857  0.654258  0.567055  0.131032
