# generated using pymatgen
data_ZnH7C18Br2NO4
_symmetry_space_group_name_H-M   'P 1'
_cell_length_a   6.59388700
_cell_length_b   13.33043500
_cell_length_c   16.06212800
_cell_angle_alpha   96.15343100
_cell_angle_beta   81.53803000
_cell_angle_gamma   89.92846200
_symmetry_Int_Tables_number   1
_chemical_formula_structural   ZnH7C18Br2NO4
_chemical_formula_sum   'Zn2 H14 C36 Br4 N2 O8'
_cell_volume   1388.22741329
_cell_formula_units_Z   2
loop_
 _symmetry_equiv_pos_site_id
 _symmetry_equiv_pos_as_xyz
  1  'x, y, z'
loop_
 _atom_site_type_symbol
 _atom_site_label
 _atom_site_symmetry_multiplicity
 _atom_site_fract_x
 _atom_site_fract_y
 _atom_site_fract_z
 _atom_site_occupancy
  Zn  Zn1  1  0.00903600  0.11202600  0.50142100  1
  Zn  Zn2  1  0.99096300  0.88797400  0.49857900  1
  H  H1  1  0.03763000  0.99290300  0.76727500  1
  H  H2  1  0.96236900  0.00709700  0.23272500  1
  H  H3  1  0.53583200  0.04919800  0.90688800  1
  H  H4  1  0.46416800  0.95080200  0.09311200  1
  H  H5  1  0.76605500  0.05780000  0.77459900  1
  H  H6  1  0.23394400  0.94220000  0.22540100  1
  H  H7  1  0.32982100  0.08393400  0.00564100  1
  H  H8  1  0.67017800  0.91606600  0.99435800  1
  H  H9  1  0.10054600  0.06795800  0.13585400  1
  H  H10  1  0.89945400  0.93204200  0.86414600  1
  H  H11  1  0.90831000  0.62174100  0.70934000  1
  H  H12  1  0.09168900  0.37825900  0.29065900  1
  H  H13  1  0.92471000  0.43735900  0.71100300  1
  H  H14  1  0.07528900  0.56264100  0.28899700  1
  C  C1  1  0.32736200  0.01305200  0.69498000  1
  C  C2  1  0.67263700  0.98694800  0.30501900  1
  C  C3  1  0.19782500  0.00620700  0.76975800  1
  C  C4  1  0.80217400  0.99379300  0.23024200  1
  C  C5  1  0.27018000  0.01875100  0.84649800  1
  C  C6  1  0.72981900  0.98124800  0.15350200  1
  C  C7  1  0.47443000  0.04005600  0.84791400  1
  C  C8  1  0.52557000  0.95994400  0.15208600  1
  C  C9  1  0.60497400  0.04496300  0.77313200  1
  C  C10  1  0.39502500  0.95503600  0.22686800  1
  C  C11  1  0.53328900  0.03019100  0.69635800  1
  C  C12  1  0.46671100  0.96980900  0.30364200  1
  C  C13  1  0.18623300  0.04601600  0.00249400  1
  C  C14  1  0.81376600  0.95398400  0.99750600  1
  C  C15  1  0.05582100  0.03673100  0.07660800  1
  C  C16  1  0.94417900  0.96326900  0.92339200  1
  C  C17  1  0.86882500  0.99057300  0.07459900  1
  C  C18  1  0.13117500  0.00942700  0.92540100  1
  C  C19  1  0.68294700  0.01991100  0.61919600  1
  C  C20  1  0.31705200  0.98008900  0.38080400  1
  C  C21  1  0.23657200  0.00764600  0.61722200  1
  C  C22  1  0.76342700  0.99235400  0.38277800  1
  C  C23  1  0.01240300  0.69609300  0.42397000  1
  C  C24  1  0.98759700  0.30390700  0.57603000  1
  C  C25  1  0.95339300  0.71677800  0.57238400  1
  C  C26  1  0.04660700  0.28322200  0.42761600  1
  C  C27  1  0.96022900  0.61370000  0.57427600  1
  C  C28  1  0.03977000  0.38630000  0.42572300  1
  C  C29  1  0.99486700  0.55145500  0.49952800  1
  C  C30  1  0.00513300  0.44854500  0.50047200  1
  C  C31  1  0.02000300  0.59264900  0.42385600  1
  C  C32  1  0.97999600  0.40735100  0.57614400  1
  C  C33  1  0.93523400  0.57286800  0.65046200  1
  C  C34  1  0.06476500  0.42713200  0.34953800  1
  C  C35  1  0.94485700  0.46951700  0.65140200  1
  C  C36  1  0.05514200  0.53048300  0.34859800  1
  Br  Br1  1  0.05360000  0.75412900  0.31949800  1
  Br  Br2  1  0.94640000  0.24587100  0.68050200  1
  Br  Br3  1  0.91228200  0.80391200  0.67575800  1
  Br  Br4  1  0.08771700  0.19608800  0.32424200  1
  N  N1  1  0.98133400  0.75625000  0.49780700  1
  N  N2  1  0.01866500  0.24375000  0.50219300  1
  O  O1  1  0.75478700  0.92886600  0.59072600  1
  O  O2  1  0.24521300  0.07113400  0.40927400  1
  O  O3  1  0.76275900  0.10193100  0.59056700  1
  O  O4  1  0.23724000  0.89806900  0.40943200  1
  O  O5  1  0.18326600  0.09294600  0.59179300  1
  O  O6  1  0.81673300  0.90705400  0.40820700  1
  O  O7  1  0.17663200  0.91929500  0.58666400  1
  O  O8  1  0.82336800  0.08070500  0.41333600  1
