data_DB0-m2_o11_o29_f0_pcu.sym.76_repeat
_audit_creation_date              2024-02-23
_audit_creation_method            'Materials Studio'
_symmetry_space_group_name_H-M    'P1'
_symmetry_Int_Tables_number       1
_symmetry_cell_setting            triclinic
loop_
_symmetry_equiv_pos_as_xyz
  x,y,z
_cell_length_a                    27.4879
_cell_length_b                    11.0003
_cell_length_c                    9.5597
_cell_angle_alpha                 90.0204
_cell_angle_beta                  90.0156
_cell_angle_gamma                 89.9936
loop_
_atom_site_label
_atom_site_type_symbol
_atom_site_fract_x
_atom_site_fract_y
_atom_site_fract_z
_atom_site_U_iso_or_equiv
_atom_site_adp_type
_atom_site_occupancy
O1     O     0.49267   0.32304   0.62387   0.00000  Uiso   1.00
O2     O     0.49318   0.32308   0.38274   0.00000  Uiso   1.00
C1     C     0.49142   0.26646   0.50334   0.00000  Uiso   1.00
O3     O     0.42967   0.50889   0.63576   0.00000  Uiso   1.00
O4     O     0.42557   0.51567   0.39573   0.00000  Uiso   1.00
C2     C     0.40485   0.51612   0.51888   0.00000  Uiso   1.00
Cu1    Cu    0.50059   0.49865   0.64303   0.00000  Uiso   1.00
Cu2    Cu    0.49541   0.49980   0.36358   0.00000  Uiso   1.00
O5     O     0.50438   0.67502   0.62341   0.00000  Uiso   1.00
O6     O     0.50209   0.67577   0.38343   0.00000  Uiso   1.00
O7     O     0.57032   0.48008   0.61080   0.00000  Uiso   1.00
O8     O     0.56637   0.49275   0.37098   0.00000  Uiso   1.00
C3     C     0.50530   0.73221   0.50369   0.00000  Uiso   1.00
C4     C     0.59111   0.48284   0.48770   0.00000  Uiso   1.00
C5     C     0.17634   0.41947   0.46012   0.00000  Uiso   1.00
O9     O     0.20292   0.33174   0.39901   0.00000  Uiso   1.00
N1     N     0.19891   0.50982   0.52979   0.00000  Uiso   1.00
C6     C     0.17281   0.59669   0.59483   0.00000  Uiso   1.00
C7     C     0.27525   0.52284   0.40347   0.00000  Uiso   1.00
C8     C     0.32528   0.52528   0.40084   0.00000  Uiso   1.00
C9     C     0.32703   0.51547   0.65036   0.00000  Uiso   1.00
C10    C     0.27678   0.51363   0.65271   0.00000  Uiso   1.00
C11    C     0.25076   0.51592   0.52905   0.00000  Uiso   1.00
C12    C     0.09877   0.50472   0.51618   0.00000  Uiso   1.00
C13    C     0.12612   0.41572   0.45278   0.00000  Uiso   1.00
C14    C     0.10322   0.32440   0.38009   0.00000  Uiso   1.00
C15    C     0.12249   0.59529   0.58854   0.00000  Uiso   1.00
C16    C     0.35155   0.52038   0.52414   0.00000  Uiso   1.00
H1     H     0.34672   0.51125   0.74808   0.00000  Uiso   1.00
H2     H     0.25797   0.50733   0.75174   0.00000  Uiso   1.00
H3     H     0.12373   0.25445   0.32703   0.00000  Uiso   1.00
C17    C     0.64439   0.47966   0.48189   0.00000  Uiso   1.00
C18    C     0.97399   0.40538   0.43478   0.00000  Uiso   1.00
C19    C     0.97117   0.60161   0.54513   0.00000  Uiso   1.00
C20    C     0.94744   0.50365   0.48512   0.00000  Uiso   1.00
C21    C     0.94878   0.30523   0.38324   0.00000  Uiso   1.00
C22    C     0.89898   0.30488   0.37739   0.00000  Uiso   1.00
C23    C     0.87286   0.40372   0.42303   0.00000  Uiso   1.00
C24    C     0.89685   0.50369   0.47629   0.00000  Uiso   1.00
C25    C     0.86979   0.60277   0.52088   0.00000  Uiso   1.00
C26    C     0.81907   0.59346   0.52275   0.00000  Uiso   1.00
N2     N     0.79682   0.49445   0.47007   0.00000  Uiso   1.00
C27    C     0.82270   0.40130   0.41821   0.00000  Uiso   1.00
C28    C     0.72108   0.48522   0.60040   0.00000  Uiso   1.00
C29    C     0.67105   0.48135   0.60465   0.00000  Uiso   1.00
C30    C     0.66848   0.47931   0.35485   0.00000  Uiso   1.00
C31    C     0.71866   0.48215   0.35099   0.00000  Uiso   1.00
C32    C     0.74506   0.48675   0.47373   0.00000  Uiso   1.00
O10    O     0.79938   0.30334   0.36762   0.00000  Uiso   1.00
C33    C     0.02494   0.40909   0.43764   0.00000  Uiso   1.00
C34    C     0.04829   0.50364   0.50648   0.00000  Uiso   1.00
C35    C     0.02157   0.59770   0.56481   0.00000  Uiso   1.00
C36    C     0.05338   0.32086   0.37236   0.00000  Uiso   1.00
H4     H     0.65328   0.48180   0.70545   0.00000  Uiso   1.00
H5     H     0.74150   0.48737   0.69705   0.00000  Uiso   1.00
H6     H     0.88104   0.22466   0.33750   0.00000  Uiso   1.00
H7     H     0.96602   0.22232   0.35051   0.00000  Uiso   1.00
H8     H     0.03870   0.24886   0.30920   0.00000  Uiso   1.00
O11    O     0.19591   0.68737   0.66166   0.00000  Uiso   1.00
C37    C     0.09581   0.68412   0.65435   0.00000  Uiso   1.00
H9     H     0.34332   0.52980   0.30059   0.00000  Uiso   1.00
H10    H     0.25526   0.52657   0.30615   0.00000  Uiso   1.00
H11    H     0.11325   0.75433   0.71547   0.00000  Uiso   1.00
C38    C     0.94418   0.70423   0.57858   0.00000  Uiso   1.00
C39    C     0.89432   0.70706   0.56426   0.00000  Uiso   1.00
O12    O     0.79132   0.68035   0.58078   0.00000  Uiso   1.00
C40    C     0.04601   0.68524   0.64333   0.00000  Uiso   1.00
H12    H     0.96149   0.78856   0.60570   0.00000  Uiso   1.00
H13    H     0.64849   0.47811   0.25749   0.00000  Uiso   1.00
H14    H     0.73720   0.48376   0.25129   0.00000  Uiso   1.00
H15    H     0.02769   0.75470   0.70253   0.00000  Uiso   1.00
C41    C     0.49812   0.93234   0.39745   0.00000  Uiso   1.00
C42    C     0.51318   0.86420   0.50578   0.00000  Uiso   1.00
H16    H     0.48250   0.88768   0.30693   0.00000  Uiso   1.00
C43    C     0.49984   0.06643   0.39412   0.00000  Uiso   1.00
C44    C     0.48823   0.13361   0.50573   0.00000  Uiso   1.00
H17    H     0.50778   0.11039   0.29531   0.00000  Uiso   1.00
H18    H     0.47738   0.09061   0.60271   0.00000  Uiso   1.00
C45    C     0.47217   0.43603   0.91802   0.00000  Uiso   1.00
N3     N     0.50475   0.49697   0.85199   0.00000  Uiso   1.00
H19    H     0.44338   0.39235   0.85937   0.00000  Uiso   1.00
H20    H     0.53597   0.51882   0.90548   0.00000  Uiso   1.00
C46    C     0.47112   0.42167   0.07189   0.00000  Uiso   1.00
N4     N     0.49057   0.50137   0.15450   0.00000  Uiso   1.00
H21    H     0.50953   0.57018   0.10689   0.00000  Uiso   1.00
C47    C     0.87034   0.82551   0.58526   0.00000  Uiso   1.00
H22    H     0.83920   0.85165   0.52269   0.00000  Uiso   1.00
O13    O     0.88753   0.89969   0.66619   0.00000  Uiso   1.00
C48    C     0.54160   0.91394   0.62366   0.00000  Uiso   1.00
H23    H     0.54280   0.86541   0.72222   0.00000  Uiso   1.00
O14    O     0.56850   0.00093   0.60725   0.00000  Uiso   1.00
C49    C     0.44056   0.32125   0.12297   0.00000  Uiso   1.00
H24    H     0.43599   0.24167   0.05735   0.00000  Uiso   1.00
O15    O     0.41509   0.33234   0.22625   0.00000  Uiso   1.00
