# generated using pymatgen
data_ZnH13C27NO6
_symmetry_space_group_name_H-M   'P 1'
_cell_length_a   17.51136400
_cell_length_b   8.53941600
_cell_length_c   13.50759700
_cell_angle_alpha   90.00000000
_cell_angle_beta   90.97336500
_cell_angle_gamma   90.00000000
_symmetry_Int_Tables_number   1
_chemical_formula_structural   ZnH13C27NO6
_chemical_formula_sum   'Zn2 H26 C54 N2 O12'
_cell_volume   2019.59165846
_cell_formula_units_Z   2
loop_
 _symmetry_equiv_pos_site_id
 _symmetry_equiv_pos_as_xyz
  1  'x, y, z'
loop_
 _atom_site_type_symbol
 _atom_site_label
 _atom_site_symmetry_multiplicity
 _atom_site_fract_x
 _atom_site_fract_y
 _atom_site_fract_z
 _atom_site_occupancy
  Zn  Zn1  1  0.91409600  0.50407100  0.49189800  1
  Zn  Zn2  1  0.08443600  0.50519200  0.50810800  1
  H  H1  1  0.00277300  0.25543700  0.83852900  1
  H  H2  1  0.99723400  0.75394100  0.16121800  1
  H  H3  1  0.99751500  0.25469200  0.16406400  1
  H  H4  1  0.00119900  0.75462600  0.83589500  1
  H  H5  1  0.97145700  0.00933300  0.56862400  1
  H  H6  1  0.02625900  0.00000800  0.43151600  1
  H  H7  1  0.67679600  0.41522500  0.25097600  1
  H  H8  1  0.32343700  0.59604200  0.74818800  1
  H  H9  1  0.69920800  0.56586000  0.73182600  1
  H  H10  1  0.30009800  0.41392900  0.27234800  1
  H  H11  1  0.41386500  0.36327300  0.18210600  1
  H  H12  1  0.58577700  0.58531200  0.82636500  1
  H  H13  1  0.81176000  0.53881100  0.63818000  1
  H  H14  1  0.18769800  0.45877900  0.36331800  1
  H  H15  1  0.81746500  0.69295500  0.28022700  1
  H  H16  1  0.79552100  0.57522100  0.17244900  1
  H  H17  1  0.89152900  0.57591900  0.22282800  1
  H  H18  1  0.24012900  0.81416700  0.68643900  1
  H  H19  1  0.22152700  0.74009300  0.80963300  1
  H  H20  1  0.14406300  0.81126100  0.73305500  1
  H  H21  1  0.49912500  0.48978100  0.06590600  1
  H  H22  1  0.51452300  0.29957500  0.00764200  1
  H  H23  1  0.59166100  0.43944500  0.01861200  1
  H  H24  1  0.36679400  0.38053100  0.84129400  1
  H  H25  1  0.32560600  0.53683300  0.91489400  1
  H  H26  1  0.39725700  0.41068800  0.96726900  1
  C  C1  1  0.99049300  0.14672300  0.69655600  1
  C  C2  1  0.00809200  0.86253000  0.30343200  1
  C  C3  1  0.00870300  0.14230500  0.30520000  1
  C  C4  1  0.98965300  0.86702300  0.69479300  1
  C  C5  1  0.99830800  0.14628200  0.79831600  1
  C  C6  1  0.00103400  0.86301900  0.20158300  1
  C  C7  1  0.00136400  0.14447000  0.20319000  1
  C  C8  1  0.99731400  0.86485400  0.79678100  1
  C  C9  1  0.99847900  0.00503400  0.84876700  1
  C  C10  1  0.00070200  0.00431300  0.15118100  1
  C  C11  1  0.98171900  0.00773000  0.64696600  1
  C  C12  1  0.01639000  0.00158300  0.35310200  1
  C  C13  1  0.99964800  0.00454900  0.95528800  1
  C  C14  1  0.99974500  0.00483600  0.04466100  1
  C  C15  1  0.99299900  0.72568500  0.63363300  1
  C  C16  1  0.00542000  0.28372200  0.36628500  1
  C  C17  1  0.00476600  0.71985300  0.36285200  1
  C  C18  1  0.99377300  0.28929400  0.63710400  1
  C  C19  1  0.77229100  0.47335700  0.40050700  1
  C  C20  1  0.22660100  0.54167400  0.59907400  1
  C  C21  1  0.77858300  0.52202400  0.57099300  1
  C  C22  1  0.22044700  0.47687700  0.43066100  1
  C  C23  1  0.64938600  0.42973400  0.32099000  1
  C  C24  1  0.35020000  0.56148200  0.68135800  1
  C  C25  1  0.69300300  0.46405800  0.40455600  1
  C  C26  1  0.30619900  0.53564800  0.59688200  1
  C  C27  1  0.65698700  0.48963000  0.49290900  1
  C  C28  1  0.34216900  0.49868700  0.51016900  1
  C  C29  1  0.70015700  0.51893600  0.57648800  1
  C  C30  1  0.29898200  0.47127200  0.42635600  1
  C  C31  1  0.66510200  0.54404400  0.66580500  1
  C  C32  1  0.33415600  0.43684500  0.33825900  1
  C  C33  1  0.52660000  0.38331100  0.24316500  1
  C  C34  1  0.47289600  0.56537400  0.76601200  1
  C  C35  1  0.57049600  0.42119600  0.32611600  1
  C  C36  1  0.42888200  0.54642000  0.68011800  1
  C  C37  1  0.53499700  0.45569600  0.41404200  1
  C  C38  1  0.46428800  0.51773000  0.59126200  1
  C  C39  1  0.44799300  0.39226700  0.24697000  1
  C  C40  1  0.55146600  0.56801800  0.75998200  1
  C  C41  1  0.41282300  0.43058000  0.33434600  1
  C  C42  1  0.58647600  0.54320000  0.67070900  1
  C  C43  1  0.57831300  0.48701300  0.49778700  1
  C  C44  1  0.42090800  0.49239500  0.50661600  1
  C  C45  1  0.54298300  0.51548900  0.58662800  1
  C  C46  1  0.45627400  0.45919800  0.41840400  1
  C  C47  1  0.81052200  0.44658600  0.30635900  1
  C  C48  1  0.83025000  0.58151700  0.24175800  1
  C  C49  1  0.18834000  0.58738300  0.69068000  1
  C  C50  1  0.19929600  0.74811400  0.73242000  1
  C  C51  1  0.56202500  0.32566800  0.15255700  1
  C  C52  1  0.54002800  0.39277700  0.05477300  1
  C  C53  1  0.43907300  0.58113300  0.86453000  1
  C  C54  1  0.37846800  0.47073900  0.89863800  1
  N  N1  1  0.81389700  0.50300200  0.48373300  1
  N  N2  1  0.18472600  0.50609800  0.51664300  1
  O  O1  1  0.06026200  0.67657300  0.60533600  1
  O  O2  1  0.93806200  0.33302600  0.39433800  1
  O  O3  1  0.93733100  0.67154800  0.39163900  1
  O  O4  1  0.06110000  0.33782800  0.60842200  1
  O  O5  1  0.92887000  0.67024900  0.59657200  1
  O  O6  1  0.06965300  0.33883200  0.40352700  1
  O  O7  1  0.06920300  0.66603500  0.40032900  1
  O  O8  1  0.92944200  0.34297200  0.59948900  1
  O  O9  1  0.81670400  0.31356700  0.27463900  1
  O  O10  1  0.14565400  0.49619100  0.73154000  1
  O  O11  1  0.60898200  0.22032200  0.15692800  1
  O  O12  1  0.46541500  0.67709100  0.92254200  1
