# generated using pymatgen
data_CdH16C26(NO2)2
_symmetry_space_group_name_H-M   'P 1'
_cell_length_a   13.53959000
_cell_length_b   14.45151700
_cell_length_c   16.55537100
_cell_angle_alpha   75.33074000
_cell_angle_beta   91.47343400
_cell_angle_gamma   91.04142700
_symmetry_Int_Tables_number   1
_chemical_formula_structural   CdH16C26(NO2)2
_chemical_formula_sum   'Cd2 H32 C52 N4 O8'
_cell_volume   3132.49531229
_cell_formula_units_Z   2
loop_
 _symmetry_equiv_pos_site_id
 _symmetry_equiv_pos_as_xyz
  1  'x, y, z'
loop_
 _atom_site_type_symbol
 _atom_site_label
 _atom_site_symmetry_multiplicity
 _atom_site_fract_x
 _atom_site_fract_y
 _atom_site_fract_z
 _atom_site_occupancy
  Cd  Cd1  1  0.99690200  0.94142300  0.12059600  1
  Cd  Cd2  1  0.00718000  0.05721400  0.87916100  1
  H  H1  1  0.84603400  0.95315100  0.80702900  1
  H  H2  1  0.66658300  0.95431800  0.80431700  1
  H  H3  1  0.67490700  0.17640000  0.93058700  1
  H  H4  1  0.85497600  0.17367200  0.93192700  1
  H  H5  1  0.33309400  0.00560100  0.76601100  1
  H  H6  1  0.15311500  0.00504800  0.77342300  1
  H  H7  1  0.17465300  0.11974700  0.98336600  1
  H  H8  1  0.35334000  0.12439200  0.97590900  1
  H  H9  1  0.16476000  0.81088500  0.02672900  1
  H  H10  1  0.34411200  0.81990600  0.03329600  1
  H  H11  1  0.32583700  0.01514200  0.18587000  1
  H  H12  1  0.14559100  0.00587900  0.17601700  1
  H  H13  1  0.65937700  0.85295500  0.02177200  1
  H  H14  1  0.83816200  0.85615200  0.02330500  1
  H  H15  1  0.84284400  0.00531200  0.21179400  1
  H  H16  1  0.66276900  0.00351300  0.21146800  1
  H  H17  1  0.89317700  0.25497300  0.14213900  1
  H  H18  1  0.88391200  0.42743400  0.10169200  1
  H  H19  1  0.09218600  0.43509100  0.90899200  1
  H  H20  1  0.09229400  0.26306000  0.94541900  1
  H  H21  1  0.01419900  0.57158700  0.84946200  1
  H  H22  1  0.02600900  0.74387600  0.81837500  1
  H  H23  1  0.95982700  0.73341300  0.06984600  1
  H  H24  1  0.96164200  0.56224500  0.10582600  1
  H  H25  1  0.05031500  0.61566100  0.26402900  1
  H  H26  1  0.05503700  0.47585200  0.37984500  1
  H  H27  1  0.94667700  0.64074800  0.53972100  1
  H  H28  1  0.94839500  0.78246700  0.42379300  1
  H  H29  1  0.04487700  0.53388600  0.63212600  1
  H  H30  1  0.04483100  0.39188100  0.74671500  1
  H  H31  1  0.96342300  0.22166700  0.57837400  1
  H  H32  1  0.95696000  0.36409900  0.46407200  1
  C  C1  1  0.99708800  0.79299800  0.26411900  1
  C  C2  1  0.00592700  0.21083900  0.74040300  1
  C  C3  1  0.99589000  0.14210800  0.07005300  1
  C  C4  1  0.00467900  0.85647800  0.92499500  1
  C  C5  1  0.80957200  0.00097700  0.83662500  1
  C  C6  1  0.70752000  0.00217800  0.83386400  1
  C  C7  1  0.65803600  0.06427400  0.86862700  1
  C  C8  1  0.71216800  0.12575400  0.90417100  1
  C  C9  1  0.81422000  0.12292300  0.90593000  1
  C  C10  1  0.46226900  0.06487900  0.86832400  1
  C  C11  1  0.55154400  0.06484800  0.86785000  1
  C  C12  1  0.29856800  0.03111200  0.81430300  1
  C  C13  1  0.19667100  0.03021500  0.81923200  1
  C  C14  1  0.20806900  0.09471300  0.93485100  1
  C  C15  1  0.30981400  0.09752700  0.93091800  1
  C  C16  1  0.35590600  0.06474200  0.87081400  1
  C  C17  1  0.19921400  0.85945500  0.05885600  1
  C  C18  1  0.30093100  0.86268700  0.06392400  1
  C  C19  1  0.34733400  0.91950600  0.10875400  1
  C  C20  1  0.29075900  0.97123700  0.14910800  1
  C  C21  1  0.18893200  0.96680800  0.14252000  1
  C  C22  1  0.54250300  0.92677300  0.11502000  1
  C  C23  1  0.45339900  0.92397300  0.11305900  1
  C  C24  1  0.69935100  0.88774500  0.06345200  1
  C  C25  1  0.80125700  0.89052200  0.06412300  1
  C  C26  1  0.80311500  0.97322000  0.16830800  1
  C  C27  1  0.70116400  0.97168600  0.16896200  1
  C  C28  1  0.64867600  0.92913900  0.11573700  1
  C  C29  1  0.93669100  0.29462600  0.09064700  1
  C  C30  1  0.93247700  0.39319700  0.06774600  1
  C  C31  1  0.98791700  0.44604600  0.00212500  1
  C  C32  1  0.04517400  0.39739800  0.95863500  1
  C  C33  1  0.04621300  0.29882700  0.97978500  1
  C  C34  1  0.99299700  0.24689800  0.04638200  1
  C  C35  1  0.00561700  0.60554000  0.89988000  1
  C  C36  1  0.01100500  0.70429900  0.88160300  1
  C  C37  1  0.99746100  0.75140800  0.94335300  1
  C  C38  1  0.97580900  0.69833400  0.02232800  1
  C  C39  1  0.97349400  0.59999600  0.04165100  1
  C  C40  1  0.98856600  0.55194800  0.98068700  1
  C  C41  1  0.02746800  0.62201000  0.32443800  1
  C  C42  1  0.02909400  0.54190100  0.39049500  1
  C  C43  1  0.00039100  0.54692600  0.46884400  1
  C  C44  1  0.97171800  0.63445500  0.47994800  1
  C  C45  1  0.97182400  0.71515800  0.41391800  1
  C  C46  1  0.99901100  0.70907200  0.33568100  1
  C  C47  1  0.02463000  0.46628000  0.61935300  1
  C  C48  1  0.02564600  0.38516000  0.68466700  1
  C  C49  1  0.00465400  0.29659900  0.67057000  1
  C  C50  1  0.98144800  0.29008600  0.59057100  1
  C  C51  1  0.97868700  0.37138300  0.52540400  1
  C  C52  1  0.00091000  0.46031800  0.53899400  1
  N  N1  1  0.86223200  0.05910300  0.87450800  1
  N  N2  1  0.15209400  0.06068600  0.87979700  1
  N  N3  1  0.14415400  0.91343100  0.09578000  1
  N  N4  1  0.85253000  0.93436700  0.11528200  1
  O  O1  1  0.00390700  0.78160100  0.18895200  1
  O  O2  1  0.98874800  0.87969200  0.27336100  1
  O  O3  1  0.00886300  0.21921300  0.81709700  1
  O  O4  1  0.00393800  0.12509100  0.72753800  1
  O  O5  1  0.99003600  0.09534400  0.14849500  1
  O  O6  1  0.00054200  0.09419800  0.01281500  1
  O  O7  1  0.01238700  0.90615000  0.84749800  1
  O  O8  1  0.00373400  0.90187100  0.98487700  1
