# generated using pymatgen
data_ZnH7C17(NO2)2
_symmetry_space_group_name_H-M   'P 1'
_cell_length_a   8.45823000
_cell_length_b   14.30172400
_cell_length_c   15.04594800
_cell_angle_alpha   98.74233700
_cell_angle_beta   89.84801800
_cell_angle_gamma   89.72841400
_symmetry_Int_Tables_number   1
_chemical_formula_structural   ZnH7C17(NO2)2
_chemical_formula_sum   'Zn2 H14 C34 N4 O8'
_cell_volume   1798.89076467
_cell_formula_units_Z   2
loop_
 _symmetry_equiv_pos_site_id
 _symmetry_equiv_pos_as_xyz
  1  'x, y, z'
loop_
 _atom_site_type_symbol
 _atom_site_label
 _atom_site_symmetry_multiplicity
 _atom_site_fract_x
 _atom_site_fract_y
 _atom_site_fract_z
 _atom_site_occupancy
  Zn  Zn1  1  0.49996800  0.89678700  0.50588300  1
  Zn  Zn2  1  0.50003100  0.10321300  0.49411700  1
  H  H1  1  0.99933100  0.05600400  0.56693900  1
  H  H2  1  0.00066800  0.94399500  0.43306100  1
  H  H3  1  0.74530600  0.01588700  0.80133100  1
  H  H4  1  0.25469400  0.98411200  0.19866900  1
  H  H5  1  0.25156500  0.01319600  0.80080200  1
  H  H6  1  0.74843500  0.98680300  0.19919800  1
  H  H7  1  0.20730700  0.09241900  0.93944100  1
  H  H8  1  0.79269300  0.90758000  0.06055900  1
  H  H9  1  0.20841800  0.07749900  0.09778100  1
  H  H10  1  0.79158100  0.92250100  0.90221900  1
  H  H11  1  0.63296000  0.42888200  0.36177900  1
  H  H12  1  0.36704000  0.57111800  0.63822100  1
  H  H13  1  0.22764200  0.44401800  0.49504600  1
  H  H14  1  0.77235700  0.55598200  0.50495400  1
  C  C1  1  0.85805200  0.03749800  0.67989700  1
  C  C2  1  0.14194800  0.96250100  0.32010300  1
  C  C3  1  0.85721100  0.02278600  0.76836700  1
  C  C4  1  0.14278900  0.97721400  0.23163300  1
  C  C5  1  0.99871100  0.01950400  0.81410900  1
  C  C6  1  0.00128900  0.98049600  0.18589100  1
  C  C7  1  0.14041800  0.02405900  0.76859500  1
  C  C8  1  0.85958100  0.97594100  0.23140500  1
  C  C9  1  0.14012300  0.03857600  0.68007900  1
  C  C10  1  0.85987600  0.96142400  0.31992100  1
  C  C11  1  0.99911200  0.04879500  0.63735200  1
  C  C12  1  0.00088700  0.95120500  0.36264800  1
  C  C13  1  0.11734900  0.05020400  0.96511900  1
  C  C14  1  0.88265100  0.94979500  0.03488100  1
  C  C15  1  0.11793200  0.04170200  0.05518500  1
  C  C16  1  0.88206700  0.95829700  0.94481500  1
  C  C17  1  0.00052000  0.99137200  0.09056100  1
  C  C18  1  0.99948000  0.00862700  0.90943900  1
  C  C19  1  0.71551000  0.02619700  0.62507300  1
  C  C20  1  0.28448900  0.97380300  0.37492700  1
  C  C21  1  0.28335800  0.02747800  0.62523300  1
  C  C22  1  0.71664100  0.97252200  0.37476700  1
  C  C23  1  0.57450500  0.46178200  0.42499700  1
  C  C24  1  0.42549500  0.53821800  0.57500300  1
  C  C25  1  0.42867900  0.52426900  0.43131300  1
  C  C26  1  0.57132000  0.47573100  0.56868700  1
  C  C27  1  0.64896600  0.52983400  0.50147900  1
  C  C28  1  0.35103300  0.47016600  0.49852100  1
  C  C29  1  0.50171000  0.59102100  0.50635500  1
  C  C30  1  0.49828900  0.40897800  0.49364500  1
  C  C31  1  0.50116500  0.69385600  0.51005800  1
  C  C32  1  0.49883500  0.30614400  0.48994200  1
  C  C33  1  0.34851500  0.55460600  0.35442200  1
  C  C34  1  0.65148400  0.44539400  0.64557800  1
  N  N1  1  0.50072300  0.77500300  0.51167500  1
  N  N2  1  0.49927600  0.22499600  0.48832500  1
  N  N3  1  0.28511500  0.57859600  0.29361300  1
  N  N4  1  0.71488400  0.42140400  0.70638700  1
  O  O1  1  0.66174300  0.09973000  0.59172700  1
  O  O2  1  0.33825600  0.90026900  0.40827300  1
  O  O3  1  0.66639500  0.93966500  0.59849300  1
  O  O4  1  0.33360500  0.06033500  0.40150700  1
  O  O5  1  0.33837800  0.94127400  0.60184100  1
  O  O6  1  0.66162100  0.05872600  0.39815900  1
  O  O7  1  0.33185300  0.10005100  0.58874300  1
  O  O8  1  0.66814700  0.89994800  0.41125700  1
