# generated using pymatgen
data_ZnH11C18IO4
_symmetry_space_group_name_H-M   'P 1'
_cell_length_a   50.44188200
_cell_length_b   38.86209600
_cell_length_c   32.04887700
_cell_angle_alpha   90.00000000
_cell_angle_beta   129.85272800
_cell_angle_gamma   90.00000000
_symmetry_Int_Tables_number   1
_chemical_formula_structural   ZnH11C18IO4
_chemical_formula_sum   'Zn12 H132 C216 I12 O48'
_cell_volume   48230.14112123
_cell_formula_units_Z   12
loop_
 _symmetry_equiv_pos_site_id
 _symmetry_equiv_pos_as_xyz
  1  'x, y, z'
loop_
 _atom_site_type_symbol
 _atom_site_label
 _atom_site_symmetry_multiplicity
 _atom_site_fract_x
 _atom_site_fract_y
 _atom_site_fract_z
 _atom_site_occupancy
  Zn  Zn1  1  0.99990100  0.03837200  0.49988200  1
  Zn  Zn2  1  0.49990100  0.53837200  0.49988200  1
  Zn  Zn3  1  0.00011700  0.96044100  0.50016100  1
  Zn  Zn4  1  0.50011700  0.46044100  0.50016100  1
  Zn  Zn5  1  0.03910900  0.00002300  0.03932600  1
  Zn  Zn6  1  0.96090100  0.00014900  0.96071000  1
  Zn  Zn7  1  0.53910900  0.50002300  0.03932600  1
  Zn  Zn8  1  0.46090100  0.50014900  0.96071000  1
  Zn  Zn9  1  0.49977700  0.00024500  0.95252700  1
  Zn  Zn10  1  0.50015900  0.00003400  0.04742500  1
  Zn  Zn11  1  0.99977700  0.50024500  0.95252700  1
  Zn  Zn12  1  0.00015900  0.50003400  0.04742500  1
  H  H1  1  0.04745300  0.03145600  0.26591700  1
  H  H2  1  0.95257200  0.03192800  0.73432800  1
  H  H3  1  0.54745300  0.53145600  0.26591700  1
  H  H4  1  0.45257200  0.53192800  0.73432800  1
  H  H5  1  0.04199700  0.03641100  0.33045900  1
  H  H6  1  0.95803000  0.03718100  0.66982300  1
  H  H7  1  0.54199700  0.53641100  0.33045900  1
  H  H8  1  0.45803000  0.53718100  0.66982300  1
  H  H9  1  0.01280600  0.94486900  0.30072300  1
  H  H10  1  0.98720000  0.94563100  0.69897100  1
  H  H11  1  0.51280600  0.44486900  0.30072300  1
  H  H12  1  0.48720000  0.44563100  0.69897100  1
  H  H13  1  0.04950800  0.97322600  0.33284600  1
  H  H14  1  0.95050500  0.97397500  0.66703300  1
  H  H15  1  0.54950800  0.47322600  0.33284600  1
  H  H16  1  0.45050500  0.47397500  0.66703300  1
  H  H17  1  0.94660000  0.01334800  0.23588700  1
  H  H18  1  0.05342100  0.01410400  0.76424300  1
  H  H19  1  0.44660000  0.51334800  0.23588700  1
  H  H20  1  0.55342100  0.51410400  0.76424300  1
  H  H21  1  0.95472800  0.96853600  0.23279400  1
  H  H22  1  0.04528400  0.96924700  0.76705200  1
  H  H23  1  0.45472800  0.46853600  0.23279400  1
  H  H24  1  0.54528400  0.46924700  0.76705200  1
  H  H25  1  0.95663600  0.03095200  0.18036000  1
  H  H26  1  0.04339000  0.03143600  0.81988200  1
  H  H27  1  0.45663600  0.53095200  0.18036000  1
  H  H28  1  0.54339000  0.53143600  0.81988200  1
  H  H29  1  0.99925000  0.05434500  0.28203700  1
  H  H30  1  0.00078100  0.05508200  0.71836000  1
  H  H31  1  0.49925000  0.55434500  0.28203700  1
  H  H32  1  0.50078100  0.55508200  0.71836000  1
  H  H33  1  0.00844900  0.05497700  0.22152500  1
  H  H34  1  0.99158100  0.05542200  0.77887100  1
  H  H35  1  0.50844900  0.55497700  0.22152500  1
  H  H36  1  0.49158100  0.55542200  0.77887100  1
  H  H37  1  0.39078400  0.99784500  0.95671600  1
  H  H38  1  0.60915400  0.99691500  0.04332400  1
  H  H39  1  0.89078400  0.49784500  0.95671600  1
  H  H40  1  0.10915400  0.49691500  0.04332400  1
  H  H41  1  0.32831100  0.99815800  0.89434400  1
  H  H42  1  0.67160200  0.99697200  0.10566500  1
  H  H43  1  0.82831100  0.49815800  0.89434400  1
  H  H44  1  0.17160200  0.49697200  0.10566500  1
  H  H45  1  0.32720100  0.00237800  0.75994200  1
  H  H46  1  0.67271600  0.00226500  0.24003900  1
  H  H47  1  0.82720100  0.50237800  0.75994200  1
  H  H48  1  0.17271600  0.50226500  0.24003900  1
  H  H49  1  0.38969100  0.00273300  0.82210200  1
  H  H50  1  0.61025800  0.00302500  0.17787600  1
  H  H51  1  0.88969100  0.50273300  0.82210200  1
  H  H52  1  0.11025800  0.50302500  0.17787600  1
  H  H53  1  0.28085500  0.03944000  0.73366000  1
  H  H54  1  0.71934100  0.03848800  0.26670700  1
  H  H55  1  0.78085500  0.53944000  0.73366000  1
  H  H56  1  0.21934100  0.53848800  0.26670700  1
  H  H57  1  0.21823800  0.03892600  0.67075300  1
  H  H58  1  0.78190600  0.03757500  0.32966600  1
  H  H59  1  0.71823800  0.53892600  0.67075300  1
  H  H60  1  0.28190600  0.53757500  0.32966600  1
  H  H61  1  0.21914200  0.96149800  0.76643600  1
  H  H62  1  0.78061900  0.96041400  0.23325600  1
  H  H63  1  0.71914200  0.46149800  0.76643600  1
  H  H64  1  0.28061900  0.46041400  0.23325600  1
  H  H65  1  0.28174600  0.96098800  0.82808300  1
  H  H66  1  0.71805700  0.96013500  0.17174300  1
  H  H67  1  0.78174600  0.46098800  0.82808300  1
  H  H68  1  0.21805700  0.46013500  0.17174300  1
  H  H69  1  0.17222100  0.94527200  0.67471800  1
  H  H70  1  0.82759700  0.94388900  0.32418200  1
  H  H71  1  0.67222100  0.44527200  0.67471800  1
  H  H72  1  0.32759700  0.44388900  0.32418200  1
  H  H73  1  0.10973900  0.94521600  0.61287600  1
  H  H74  1  0.89005800  0.94361900  0.38588400  1
  H  H75  1  0.60973900  0.44521600  0.61287600  1
  H  H76  1  0.39005800  0.44361900  0.38588400  1
  H  H77  1  0.10977000  0.05534500  0.60748100  1
  H  H78  1  0.89045000  0.05366000  0.39384200  1
  H  H79  1  0.60977000  0.55534500  0.60748100  1
  H  H80  1  0.39045000  0.55366000  0.39384200  1
  H  H81  1  0.17225100  0.05520800  0.67013200  1
  H  H82  1  0.82800600  0.05377600  0.33116500  1
  H  H83  1  0.67225100  0.55520800  0.67013200  1
  H  H84  1  0.32800600  0.55377600  0.33116500  1
  H  H85  1  0.49585400  0.89033400  0.92830000  1
  H  H86  1  0.50418600  0.89053600  0.06989700  1
  H  H87  1  0.99585400  0.39033400  0.92830000  1
  H  H88  1  0.00418600  0.39053600  0.06989700  1
  H  H89  1  0.49636900  0.82806100  0.92900500  1
  H  H90  1  0.50393000  0.82827200  0.06971500  1
  H  H91  1  0.99636900  0.32806100  0.92900500  1
  H  H92  1  0.00393000  0.32827200  0.06971500  1
  H  H93  1  0.53978300  0.78148200  0.08603200  1
  H  H94  1  0.46077300  0.78111500  0.91316100  1
  H  H95  1  0.03978300  0.28148200  0.08603200  1
  H  H96  1  0.96077300  0.28111500  0.91316100  1
  H  H97  1  0.03936600  0.21914700  0.08648200  1
  H  H98  1  0.96149700  0.21877500  0.91337100  1
  H  H99  1  0.53936600  0.71914700  0.08648200  1
  H  H100  1  0.46149700  0.71877500  0.91337100  1
  H  H101  1  0.94543800  0.17195200  0.94067200  1
  H  H102  1  0.05564900  0.17223400  0.05969100  1
  H  H103  1  0.44543800  0.67195200  0.94067200  1
  H  H104  1  0.55564900  0.67223400  0.05969100  1
  H  H105  1  0.94554200  0.10968200  0.94050600  1
  H  H106  1  0.05584900  0.10996800  0.06055300  1
  H  H107  1  0.44554200  0.60968200  0.94050600  1
  H  H108  1  0.55584900  0.60996800  0.06055300  1
  H  H109  1  0.49710400  0.10992400  0.06472000  1
  H  H110  1  0.50276600  0.10975300  0.93703400  1
  H  H111  1  0.99710400  0.60992400  0.06472000  1
  H  H112  1  0.00276600  0.60975300  0.93703400  1
  H  H113  1  0.49731200  0.17222800  0.06471900  1
  H  H114  1  0.50237000  0.17204800  0.93659000  1
  H  H115  1  0.99731200  0.67222800  0.06471900  1
  H  H116  1  0.00237000  0.67204800  0.93659000  1
  H  H117  1  0.53884100  0.21892000  0.99279900  1
  H  H118  1  0.46066400  0.21891700  0.00812000  1
  H  H119  1  0.03884100  0.71892000  0.99279900  1
  H  H120  1  0.96066400  0.71891700  0.00812000  1
  H  H121  1  0.03820500  0.78130600  0.99139500  1
  H  H122  1  0.96100200  0.78131000  0.00886400  1
  H  H123  1  0.53820500  0.28130600  0.99139500  1
  H  H124  1  0.46100200  0.28131000  0.00886400  1
  H  H125  1  0.94437400  0.82795100  0.94794000  1
  H  H126  1  0.05458800  0.82822000  0.05177500  1
  H  H127  1  0.44437400  0.32795100  0.94794000  1
  H  H128  1  0.55458800  0.32822000  0.05177500  1
  H  H129  1  0.94414700  0.89025300  0.94788200  1
  H  H130  1  0.05449100  0.89052000  0.05112100  1
  H  H131  1  0.44414700  0.39025300  0.94788200  1
  H  H132  1  0.55449100  0.39052000  0.05112100  1
  C  C1  1  0.06754700  0.00031000  0.56796400  1
  C  C2  1  0.93247100  0.99852500  0.43208100  1
  C  C3  1  0.56754700  0.50031000  0.56796400  1
  C  C4  1  0.43247100  0.49852500  0.43208100  1
  C  C5  1  0.99998100  0.99872400  0.41824300  1
  C  C6  1  0.00003700  0.00010100  0.58179700  1
  C  C7  1  0.49998100  0.49872400  0.41824300  1
  C  C8  1  0.50003700  0.50010100  0.58179700  1
  C  C9  1  0.01618800  0.03253900  0.29019900  1
  C  C10  1  0.98383800  0.03324200  0.71005700  1
  C  C11  1  0.51618800  0.53253900  0.29019900  1
  C  C12  1  0.48383800  0.53324200  0.71005700  1
  C  C13  1  0.02214300  0.96928700  0.29624300  1
  C  C14  1  0.97786900  0.96999200  0.70360900  1
  C  C15  1  0.52214300  0.46928700  0.29624300  1
  C  C16  1  0.47786900  0.46999200  0.70360900  1
  C  C17  1  0.01936100  0.96727300  0.24630700  1
  C  C18  1  0.98065300  0.96778000  0.75353500  1
  C  C19  1  0.51936100  0.46727300  0.24630700  1
  C  C20  1  0.48065300  0.46778000  0.75353500  1
  C  C21  1  0.00075600  0.00003100  0.12744200  1
  C  C22  1  0.99926700  0.00016300  0.87260600  1
  C  C23  1  0.50075600  0.50003100  0.12744200  1
  C  C24  1  0.49926700  0.50016300  0.87260600  1
  C  C25  1  0.00057900  0.99905400  0.29030100  1
  C  C26  1  0.99944000  0.99982100  0.70974000  1
  C  C27  1  0.50057900  0.49905400  0.29030100  1
  C  C28  1  0.49944000  0.49982100  0.70974000  1
  C  C29  1  0.01982800  0.03131300  0.24659900  1
  C  C30  1  0.98019700  0.03181800  0.75364600  1
  C  C31  1  0.51982800  0.53131300  0.24659900  1
  C  C32  1  0.48019700  0.53181800  0.75364600  1
  C  C33  1  0.00084400  0.99969900  0.21113100  1
  C  C34  1  0.99917700  0.00013400  0.78891600  1
  C  C35  1  0.50084400  0.49969900  0.21113100  1
  C  C36  1  0.49917700  0.50013400  0.78891600  1
  C  C37  1  0.96408900  0.00353500  0.19095100  1
  C  C38  1  0.03593200  0.00403400  0.80911800  1
  C  C39  1  0.46408900  0.50353500  0.19095100  1
  C  C40  1  0.53593200  0.50403400  0.80911800  1
  C  C41  1  0.96398800  0.99519000  0.23697200  1
  C  C42  1  0.03603000  0.99588100  0.76304300  1
  C  C43  1  0.46398800  0.49519000  0.23697200  1
  C  C44  1  0.53603000  0.49588100  0.76304300  1
  C  C45  1  0.00072200  0.99988100  0.16513400  1
  C  C46  1  0.99930000  0.00013600  0.83491300  1
  C  C47  1  0.50072200  0.49988100  0.16513400  1
  C  C48  1  0.49930000  0.50013600  0.83491300  1
  C  C49  1  0.00028900  0.99894700  0.33585800  1
  C  C50  1  0.99972900  0.99991400  0.66418300  1
  C  C51  1  0.50028900  0.49894700  0.33585800  1
  C  C52  1  0.49972900  0.49991400  0.66418300  1
  C  C53  1  0.00011500  0.99885100  0.37339800  1
  C  C54  1  0.99990300  0.99999700  0.62664200  1
  C  C55  1  0.50011500  0.49885100  0.37339800  1
  C  C56  1  0.49990300  0.49999700  0.62664200  1
  C  C57  1  0.37714100  0.99888300  0.91358000  1
  C  C58  1  0.62279500  0.99813200  0.08644900  1
  C  C59  1  0.87714100  0.49888300  0.91358000  1
  C  C60  1  0.12279500  0.49813200  0.08644900  1
  C  C61  1  0.34162600  0.99873000  0.87815200  1
  C  C62  1  0.65830900  0.99783500  0.12188200  1
  C  C63  1  0.84162600  0.49873000  0.87815200  1
  C  C64  1  0.15830900  0.49783500  0.12188200  1
  C  C65  1  0.32340500  0.00025600  0.82280800  1
  C  C66  1  0.67654500  0.99958100  0.17722400  1
  C  C67  1  0.82340500  0.50025600  0.82280800  1
  C  C68  1  0.17654500  0.49958100  0.17722400  1
  C  C69  1  0.34100800  0.00182000  0.80315900  1
  C  C70  1  0.65893400  0.00156300  0.19683700  1
  C  C71  1  0.84100800  0.50182000  0.80315900  1
  C  C72  1  0.15893400  0.50156300  0.19683700  1
  C  C73  1  0.37652800  0.00169900  0.83851800  1
  C  C74  1  0.62341500  0.00167900  0.16146500  1
  C  C75  1  0.87652800  0.50169900  0.83851800  1
  C  C76  1  0.12341500  0.50167900  0.16146500  1
  C  C77  1  0.39474100  0.00029300  0.89389500  1
  C  C78  1  0.60519500  0.00000000  0.10610500  1
  C  C79  1  0.89474100  0.50029300  0.89389500  1
  C  C80  1  0.10519500  0.50000000  0.10610500  1
  C  C81  1  0.26750100  0.02190300  0.74078300  1
  C  C82  1  0.73258300  0.02088800  0.25944400  1
  C  C83  1  0.76750100  0.52190300  0.74078300  1
  C  C84  1  0.23258300  0.52088800  0.25944400  1
  C  C85  1  0.23198900  0.02202800  0.70561600  1
  C  C86  1  0.76809500  0.02080400  0.29465200  1
  C  C87  1  0.73198900  0.52202800  0.70561600  1
  C  C88  1  0.26809500  0.52080400  0.29465200  1
  C  C89  1  0.21432400  0.00021700  0.71426000  1
  C  C90  1  0.78566500  0.99898000  0.28582900  1
  C  C91  1  0.71432400  0.50021700  0.71426000  1
  C  C92  1  0.28566500  0.49898000  0.28582900  1
  C  C93  1  0.23248900  0.97839400  0.75852300  1
  C  C94  1  0.76737900  0.97731300  0.24136900  1
  C  C95  1  0.73248900  0.47839400  0.75852300  1
  C  C96  1  0.26737900  0.47731300  0.24136900  1
  C  C97  1  0.26800300  0.97852000  0.79399800  1
  C  C98  1  0.73186600  0.97758900  0.20592600  1
  C  C99  1  0.76800300  0.47852000  0.79399800  1
  C  C100  1  0.23186600  0.47758900  0.20592600  1
  C  C101  1  0.28566700  0.00022000  0.78521900  1
  C  C102  1  0.71429700  0.99934100  0.21483800  1
  C  C103  1  0.78566700  0.50022000  0.78521900  1
  C  C104  1  0.21429700  0.49934100  0.21483800  1
  C  C105  1  0.15867000  0.96957600  0.66065800  1
  C  C106  1  0.84122200  0.96814300  0.33872300  1
  C  C107  1  0.65867000  0.46957600  0.66065800  1
  C  C108  1  0.34122200  0.46814300  0.33872300  1
  C  C109  1  0.12315000  0.96956900  0.62511100  1
  C  C110  1  0.87674300  0.96800500  0.37419700  1
  C  C111  1  0.62315000  0.46956900  0.62511100  1
  C  C112  1  0.37674300  0.46800500  0.37419700  1
  C  C113  1  0.10524900  0.00028300  0.60569200  1
  C  C114  1  0.89476700  0.99862300  0.39435900  1
  C  C115  1  0.60524900  0.50028300  0.60569200  1
  C  C116  1  0.39476700  0.49862300  0.39435900  1
  C  C117  1  0.12316500  0.03097400  0.62199100  1
  C  C118  1  0.87696900  0.02935200  0.37881100  1
  C  C119  1  0.62316500  0.53097400  0.62199100  1
  C  C120  1  0.37696900  0.52935200  0.37881100  1
  C  C121  1  0.15868000  0.03092200  0.65720000  1
  C  C122  1  0.84145600  0.02943500  0.34356400  1
  C  C123  1  0.65868000  0.53092200  0.65720000  1
  C  C124  1  0.34145600  0.52943500  0.34356400  1
  C  C125  1  0.17658700  0.00023700  0.67674600  1
  C  C126  1  0.82341500  0.99884600  0.32332900  1
  C  C127  1  0.67658700  0.50023700  0.67674600  1
  C  C128  1  0.32341500  0.49884600  0.32332900  1
  C  C129  1  0.00080000  0.06750400  0.00074800  1
  C  C130  1  0.50080000  0.56750400  0.00074800  1
  C  C131  1  0.00080200  0.00010000  0.08252900  1
  C  C132  1  0.99922100  0.00012100  0.91752000  1
  C  C133  1  0.50080200  0.50010000  0.08252900  1
  C  C134  1  0.49922100  0.50012100  0.91752000  1
  C  C135  1  0.99921100  0.93269400  0.99928400  1
  C  C136  1  0.49921100  0.43269400  0.99928400  1
  C  C137  1  0.49996200  0.93275400  0.99896000  1
  C  C138  1  0.99996200  0.43275400  0.99896000  1
  C  C139  1  0.43243900  0.00025300  0.93148500  1
  C  C140  1  0.56749500  0.00012000  0.06851100  1
  C  C141  1  0.93243900  0.50025300  0.93148500  1
  C  C142  1  0.06749500  0.50012000  0.06851100  1
  C  C143  1  0.49997700  0.06752800  0.00099500  1
  C  C144  1  0.99997700  0.56752800  0.00099500  1
  C  C145  1  0.49766000  0.87702400  0.95963500  1
  C  C146  1  0.50243000  0.87713800  0.03866600  1
  C  C147  1  0.99766000  0.37702400  0.95963500  1
  C  C148  1  0.00243000  0.37713800  0.03866600  1
  C  C149  1  0.49762800  0.84155700  0.95970900  1
  C  C150  1  0.50261200  0.84167500  0.03889300  1
  C  C151  1  0.99762800  0.34155700  0.95970900  1
  C  C152  1  0.00261200  0.34167500  0.03889300  1
  C  C153  1  0.50016400  0.82363400  0.99938400  1
  C  C154  1  0.00016400  0.32363400  0.99938400  1
  C  C155  1  0.50001200  0.89503400  0.99907900  1
  C  C156  1  0.00001200  0.39503400  0.99907900  1
  C  C157  1  0.52212800  0.76796300  0.04791100  1
  C  C158  1  0.47849500  0.76775700  0.95142300  1
  C  C159  1  0.02212800  0.26796300  0.04791100  1
  C  C160  1  0.97849500  0.26775700  0.95142300  1
  C  C161  1  0.02232200  0.23250300  0.04807600  1
  C  C162  1  0.97847500  0.23229600  0.95163300  1
  C  C163  1  0.52232200  0.73250300  0.04807600  1
  C  C164  1  0.47847500  0.73229600  0.95163300  1
  C  C165  1  0.00044200  0.21441300  0.99995100  1
  C  C166  1  0.50044200  0.71441300  0.99995100  1
  C  C167  1  0.50026500  0.78584700  0.99957300  1
  C  C168  1  0.00026500  0.28584700  0.99957300  1
  C  C169  1  0.96986700  0.15856400  0.96662900  1
  C  C170  1  0.03128500  0.15872300  0.03388700  1
  C  C171  1  0.46986700  0.65856400  0.96662900  1
  C  C172  1  0.53128500  0.65872300  0.03388700  1
  C  C173  1  0.96992800  0.12309900  0.96693200  1
  C  C174  1  0.03139700  0.12325800  0.03398200  1
  C  C175  1  0.46992800  0.62309900  0.96693200  1
  C  C176  1  0.53139700  0.62325800  0.03398200  1
  C  C177  1  0.00070600  0.10522500  0.00055800  1
  C  C178  1  0.50070600  0.60522500  0.00055800  1
  C  C179  1  0.00053300  0.17662600  0.00015600  1
  C  C180  1  0.50053300  0.67662600  0.00015600  1
  C  C181  1  0.49830200  0.12324600  0.03637700  1
  C  C182  1  0.50153500  0.12315000  0.96529100  1
  C  C183  1  0.99830200  0.62324600  0.03637700  1
  C  C184  1  0.00153500  0.62315000  0.96529100  1
  C  C185  1  0.49809000  0.15871200  0.03605800  1
  C  C186  1  0.50163900  0.15861400  0.96535800  1
  C  C187  1  0.99809000  0.65871200  0.03605800  1
  C  C188  1  0.00163900  0.65861400  0.96535800  1
  C  C189  1  0.49983600  0.17663400  0.00064100  1
  C  C190  1  0.99983600  0.67663400  0.00064100  1
  C  C191  1  0.49994300  0.10524700  0.00089500  1
  C  C192  1  0.99994300  0.60524700  0.00089500  1
  C  C193  1  0.52131900  0.23238200  0.99566500  1
  C  C194  1  0.47812600  0.23238200  0.00512000  1
  C  C195  1  0.02131900  0.73238200  0.99566500  1
  C  C196  1  0.97812600  0.73238200  0.00512000  1
  C  C197  1  0.02137400  0.76784400  0.99578700  1
  C  C198  1  0.97790000  0.76784300  0.00462200  1
  C  C199  1  0.52137400  0.26784400  0.99578700  1
  C  C200  1  0.47790000  0.26784300  0.00462200  1
  C  C201  1  0.99959100  0.78581800  0.00010400  1
  C  C202  1  0.49959100  0.28581800  0.00010400  1
  C  C203  1  0.49976300  0.21440800  0.00048300  1
  C  C204  1  0.99976300  0.71440800  0.00048300  1
  C  C205  1  0.96872600  0.84148700  0.97127600  1
  C  C206  1  0.03016600  0.84163500  0.02828200  1
  C  C207  1  0.46872600  0.34148700  0.97127600  1
  C  C208  1  0.53016600  0.34163500  0.02828200  1
  C  C209  1  0.96860400  0.87695100  0.97085000  1
  C  C210  1  0.03010300  0.87710000  0.02829900  1
  C  C211  1  0.46860400  0.37695100  0.97085000  1
  C  C212  1  0.53010300  0.37710000  0.02829900  1
  C  C213  1  0.99930700  0.89497600  0.99947300  1
  C  C214  1  0.49930700  0.39497600  0.99947300  1
  C  C215  1  0.99949300  0.82359100  0.99988500  1
  C  C216  1  0.49949300  0.32359100  0.99988500  1
  I  I1  1  0.92392200  0.97773900  0.11674800  1
  I  I2  1  0.07609500  0.97809000  0.88315700  1
  I  I3  1  0.42392200  0.47773900  0.11674800  1
  I  I4  1  0.57609500  0.47809000  0.88315700  1
  I  I5  1  0.07038300  0.96296700  0.27247400  1
  I  I6  1  0.92963300  0.96337500  0.72735000  1
  I  I7  1  0.57038300  0.46296700  0.27247400  1
  I  I8  1  0.42963300  0.46337500  0.72735000  1
  I  I9  1  0.99541700  0.91952000  0.20582000  1
  I  I10  1  0.00459000  0.91995400  0.79371700  1
  I  I11  1  0.49541700  0.41952000  0.20582000  1
  I  I12  1  0.50459000  0.41995400  0.79371700  1
  O  O1  1  0.05150200  0.02999100  0.55276700  1
  O  O2  1  0.94862000  0.02817000  0.44926600  1
  O  O3  1  0.55150200  0.52999100  0.55276700  1
  O  O4  1  0.44862000  0.52817000  0.44926600  1
  O  O5  1  0.05142700  0.97064300  0.55086500  1
  O  O6  1  0.94849000  0.96882800  0.44718800  1
  O  O7  1  0.55142700  0.47064300  0.55086500  1
  O  O8  1  0.44849000  0.46882800  0.44718800  1
  O  O9  1  0.00068400  0.02837500  0.43860000  1
  O  O10  1  0.00084600  0.02983800  0.56320800  1
  O  O11  1  0.50068400  0.52837500  0.43860000  1
  O  O12  1  0.50084600  0.52983800  0.56320800  1
  O  O13  1  0.99924500  0.96897400  0.43687600  1
  O  O14  1  0.99926000  0.97044000  0.56139800  1
  O  O15  1  0.49924500  0.46897400  0.43687600  1
  O  O16  1  0.49926000  0.47044000  0.56139800  1
  O  O17  1  0.03060000  0.05147000  0.03172700  1
  O  O18  1  0.97106400  0.05131200  0.96991800  1
  O  O19  1  0.53060000  0.55147000  0.03172700  1
  O  O20  1  0.47106400  0.55131200  0.96991800  1
  O  O21  1  0.03061600  0.00088200  0.09314600  1
  O  O22  1  0.96940800  0.99930500  0.90690500  1
  O  O23  1  0.53061600  0.50088200  0.09314600  1
  O  O24  1  0.46940800  0.49930500  0.90690500  1
  O  O25  1  0.97101500  0.99937800  0.03292900  1
  O  O26  1  0.02900600  0.00091400  0.96711700  1
  O  O27  1  0.47101500  0.49937800  0.03292900  1
  O  O28  1  0.52900600  0.50091400  0.96711700  1
  O  O29  1  0.02894700  0.94888500  0.03000000  1
  O  O30  1  0.96941000  0.94872600  0.96842900  1
  O  O31  1  0.52894700  0.44888500  0.03000000  1
  O  O32  1  0.46941000  0.44872600  0.96842900  1
  O  O33  1  0.49892900  0.94882200  0.96194100  1
  O  O34  1  0.50095600  0.94890500  0.03590700  1
  O  O35  1  0.99892900  0.44882200  0.96194100  1
  O  O36  1  0.00095600  0.44890500  0.03590700  1
  O  O37  1  0.44825200  0.99963600  0.91129300  1
  O  O38  1  0.55168400  0.00097600  0.08869900  1
  O  O39  1  0.94825200  0.49963600  0.91129300  1
  O  O40  1  0.05168400  0.50097600  0.08869900  1
  O  O41  1  0.44879300  0.00091600  0.98378500  1
  O  O42  1  0.55113700  0.99944000  0.01620900  1
  O  O43  1  0.94879300  0.50091600  0.98378500  1
  O  O44  1  0.05113700  0.49944000  0.01620900  1
  O  O45  1  0.49915400  0.05138000  0.96420400  1
  O  O46  1  0.50083000  0.05146200  0.03784800  1
  O  O47  1  0.99915400  0.55138000  0.96420400  1
  O  O48  1  0.00083000  0.55146200  0.03784800  1
