# generated using pymatgen
data_Zn3H25C46(O4F)3
_symmetry_space_group_name_H-M   'P 1'
_cell_length_a   44.43109900
_cell_length_b   38.89779300
_cell_length_c   22.03833300
_cell_angle_alpha   90.00000000
_cell_angle_beta   60.99537000
_cell_angle_gamma   90.00000000
_symmetry_Int_Tables_number   1
_chemical_formula_structural   Zn3H25C46(O4F)3
_chemical_formula_sum   'Zn12 H100 C184 O48 F12'
_cell_volume   33311.22170685
_cell_formula_units_Z   4
loop_
 _symmetry_equiv_pos_site_id
 _symmetry_equiv_pos_as_xyz
  1  'x, y, z'
loop_
 _atom_site_type_symbol
 _atom_site_label
 _atom_site_symmetry_multiplicity
 _atom_site_fract_x
 _atom_site_fract_y
 _atom_site_fract_z
 _atom_site_occupancy
  Zn  Zn1  1  0.00019900  0.52991100  0.49965500  1
  Zn  Zn2  1  0.50019900  0.02991100  0.49965500  1
  Zn  Zn3  1  0.99999700  0.45204300  0.50007900  1
  Zn  Zn4  1  0.49999700  0.95204300  0.50007900  1
  Zn  Zn5  1  0.96094800  0.50312900  0.03398300  1
  Zn  Zn6  1  0.03874000  0.50330000  0.96652600  1
  Zn  Zn7  1  0.46094800  0.00312900  0.03398300  1
  Zn  Zn8  1  0.53874000  0.00330000  0.96652600  1
  Zn  Zn9  1  0.50183900  0.50335800  0.06674400  1
  Zn  Zn10  1  0.49829000  0.50315800  0.93318300  1
  Zn  Zn11  1  0.00183900  0.00335800  0.06674400  1
  Zn  Zn12  1  0.99829000  0.00315800  0.93318300  1
  H  H1  1  0.95896500  0.52906500  0.84332800  1
  H  H2  1  0.04110900  0.52789800  0.15688500  1
  H  H3  1  0.45896500  0.02906500  0.84332800  1
  H  H4  1  0.54110900  0.02789800  0.15688500  1
  H  H5  1  0.02981700  0.49501400  0.76559000  1
  H  H6  1  0.96977900  0.49491300  0.23505600  1
  H  H7  1  0.52981700  0.99501400  0.76559000  1
  H  H8  1  0.46977900  0.99491300  0.23505600  1
  H  H9  1  0.97206500  0.53920100  0.71859500  1
  H  H10  1  0.02756200  0.53817800  0.28223100  1
  H  H11  1  0.47206500  0.03920100  0.71859500  1
  H  H12  1  0.52756200  0.03817800  0.28223100  1
  H  H13  1  0.00439800  0.46811800  0.70394400  1
  H  H14  1  0.99622000  0.46674400  0.29508000  1
  H  H15  1  0.50439800  0.96811800  0.70394400  1
  H  H16  1  0.49622000  0.96674400  0.29508000  1
  H  H17  1  0.38808500  0.50215900  0.02207000  1
  H  H18  1  0.61199800  0.49928900  0.97767200  1
  H  H19  1  0.88808500  0.00215900  0.02207000  1
  H  H20  1  0.11199800  0.99928900  0.97767200  1
  H  H21  1  0.32583800  0.49914100  0.08770800  1
  H  H22  1  0.67424800  0.49655900  0.91187200  1
  H  H23  1  0.82583800  0.99914100  0.08770800  1
  H  H24  1  0.17424800  0.99655900  0.91187200  1
  H  H25  1  0.39268800  0.50117700  0.21160500  1
  H  H26  1  0.60748500  0.50402500  0.78821600  1
  H  H27  1  0.89268800  0.00117700  0.21160500  1
  H  H28  1  0.10748500  0.00402500  0.78821600  1
  H  H29  1  0.28026800  0.53605000  0.29781300  1
  H  H30  1  0.71974600  0.53849800  0.70556100  1
  H  H31  1  0.78026800  0.03605000  0.29781300  1
  H  H32  1  0.21974600  0.03849800  0.70556100  1
  H  H33  1  0.21798000  0.53265900  0.36159600  1
  H  H34  1  0.78205500  0.53553300  0.64172400  1
  H  H35  1  0.71798000  0.03265900  0.36159600  1
  H  H36  1  0.28205500  0.03553300  0.64172400  1
  H  H37  1  0.22032500  0.45415300  0.22351400  1
  H  H38  1  0.77997300  0.45313500  0.77217700  1
  H  H39  1  0.72032500  0.95415300  0.22351400  1
  H  H40  1  0.27997300  0.95313500  0.77217700  1
  H  H41  1  0.28276700  0.45652000  0.16186900  1
  H  H42  1  0.71752000  0.45514200  0.83377300  1
  H  H43  1  0.78276700  0.95652000  0.16186900  1
  H  H44  1  0.21752000  0.95514200  0.83377300  1
  H  H45  1  0.17333100  0.43715800  0.33170900  1
  H  H46  1  0.82713700  0.43825000  0.66257500  1
  H  H47  1  0.67333100  0.93715800  0.33170900  1
  H  H48  1  0.32713700  0.93825000  0.66257500  1
  H  H49  1  0.11093800  0.43584800  0.39076700  1
  H  H50  1  0.88952900  0.43721700  0.60364600  1
  H  H51  1  0.61093800  0.93584800  0.39076700  1
  H  H52  1  0.38952900  0.93721700  0.60364600  1
  H  H53  1  0.10881200  0.54564400  0.40527100  1
  H  H54  1  0.89108100  0.54723900  0.59975900  1
  H  H55  1  0.60881200  0.04564400  0.40527100  1
  H  H56  1  0.39108100  0.04723900  0.59975900  1
  H  H57  1  0.17090600  0.54687600  0.34501300  1
  H  H58  1  0.82897600  0.54815300  0.65988600  1
  H  H59  1  0.67090600  0.04687600  0.34501300  1
  H  H60  1  0.32897600  0.04815300  0.65988600  1
  H  H61  1  0.50227300  0.61286100  0.09344100  1
  H  H62  1  0.49778800  0.61304300  0.90376100  1
  H  H63  1  0.00227300  0.11286100  0.09344100  1
  H  H64  1  0.99778800  0.11304300  0.90376100  1
  H  H65  1  0.50194900  0.67506100  0.09385300  1
  H  H66  1  0.49830400  0.67524300  0.90351200  1
  H  H67  1  0.00194900  0.17506100  0.09385300  1
  H  H68  1  0.99830400  0.17524300  0.90351200  1
  H  H69  1  0.46261200  0.72226300  0.96470800  1
  H  H70  1  0.53786000  0.72195600  0.03270400  1
  H  H71  1  0.96261200  0.22226300  0.96470800  1
  H  H72  1  0.03786000  0.22195600  0.03270400  1
  H  H73  1  0.96339600  0.28451500  0.96308600  1
  H  H74  1  0.03736400  0.28420700  0.03441400  1
  H  H75  1  0.46339600  0.78451500  0.96308600  1
  H  H76  1  0.53736400  0.78420700  0.03441400  1
  H  H77  1  0.05514100  0.33119300  0.95637900  1
  H  H78  1  0.94581800  0.33144200  0.04125200  1
  H  H79  1  0.55514100  0.83119300  0.95637900  1
  H  H80  1  0.44581800  0.83144200  0.04125200  1
  H  H81  1  0.05527600  0.39339300  0.95728000  1
  H  H82  1  0.94592800  0.39364100  0.04068500  1
  H  H83  1  0.55527600  0.89339300  0.95728000  1
  H  H84  1  0.44592800  0.89364100  0.04068500  1
  H  H85  1  0.50277600  0.33082900  0.90178100  1
  H  H86  1  0.49694300  0.33065400  0.10093600  1
  H  H87  1  0.00277600  0.83082900  0.90178100  1
  H  H88  1  0.99694300  0.83065400  0.10093600  1
  H  H89  1  0.46136700  0.28397000  0.10849600  1
  H  H90  1  0.53796700  0.28381100  0.89429500  1
  H  H91  1  0.96136700  0.78397000  0.10849600  1
  H  H92  1  0.03796700  0.78381100  0.89429500  1
  H  H93  1  0.05391900  0.67505000  0.95765300  1
  H  H94  1  0.94464100  0.67537000  0.04532700  1
  H  H95  1  0.55391900  0.17505000  0.95765300  1
  H  H96  1  0.44464100  0.17537000  0.04532700  1
  H  H97  1  0.05398200  0.61265800  0.95678600  1
  H  H98  1  0.94424100  0.61296500  0.04611100  1
  H  H99  1  0.55398200  0.11265800  0.95678600  1
  H  H100  1  0.44424100  0.11296500  0.04611100  1
  C  C1  1  0.06748000  0.49019900  0.43788200  1
  C  C2  1  0.93270200  0.49184800  0.56187800  1
  C  C3  1  0.56748000  0.99019900  0.43788200  1
  C  C4  1  0.43270200  0.99184800  0.56187800  1
  C  C5  1  0.99781000  0.49171200  0.62061300  1
  C  C6  1  0.00239700  0.49018200  0.37909300  1
  C  C7  1  0.49781000  0.99171200  0.62061300  1
  C  C8  1  0.50239700  0.99018200  0.37909300  1
  C  C9  1  0.98085100  0.51680100  0.80048100  1
  C  C10  1  0.01907600  0.51587300  0.19983400  1
  C  C11  1  0.48085100  0.01680100  0.80048100  1
  C  C12  1  0.51907600  0.01587300  0.19983400  1
  C  C13  1  0.00614200  0.50380100  0.80959000  1
  C  C14  1  0.99357700  0.50333900  0.19089900  1
  C  C15  1  0.50614200  0.00380100  0.80959000  1
  C  C16  1  0.49357700  0.00333900  0.19089900  1
  C  C17  1  0.98348700  0.51776600  0.73153300  1
  C  C18  1  0.01640100  0.51669100  0.26879700  1
  C  C19  1  0.48348700  0.01776600  0.73153300  1
  C  C20  1  0.51640100  0.01669100  0.26879700  1
  C  C21  1  0.99653300  0.49127800  0.68808200  1
  C  C22  1  0.00369300  0.48994100  0.31161600  1
  C  C23  1  0.49653300  0.99127800  0.68808200  1
  C  C24  1  0.50369300  0.98994100  0.31161600  1
  C  C25  1  0.37577800  0.50135500  0.07803400  1
  C  C26  1  0.62432500  0.49979500  0.92169300  1
  C  C27  1  0.87577800  0.00135500  0.07803400  1
  C  C28  1  0.12432500  0.99979500  0.92169300  1
  C  C29  1  0.34038800  0.49934500  0.11527600  1
  C  C30  1  0.65972000  0.49794800  0.88433000  1
  C  C31  1  0.84038800  0.99934500  0.11527600  1
  C  C32  1  0.15972000  0.99794800  0.88433000  1
  C  C33  1  0.32368500  0.49833800  0.18690900  1
  C  C34  1  0.67645400  0.49862800  0.81268000  1
  C  C35  1  0.82368500  0.99833800  0.18690900  1
  C  C36  1  0.17645400  0.99862800  0.81268000  1
  C  C37  1  0.34289600  0.49916200  0.22097700  1
  C  C38  1  0.65726600  0.50095000  0.77870000  1
  C  C39  1  0.84289600  0.99916200  0.22097700  1
  C  C40  1  0.15726600  0.00095000  0.77870000  1
  C  C41  1  0.37831300  0.50100400  0.18369900  1
  C  C42  1  0.62184200  0.50262900  0.81608800  1
  C  C43  1  0.87831300  0.00100400  0.18369900  1
  C  C44  1  0.12184200  0.00262900  0.81608800  1
  C  C45  1  0.39498600  0.50213800  0.11202100  1
  C  C46  1  0.60514100  0.50210700  0.88779500  1
  C  C47  1  0.89498600  0.00213800  0.11202100  1
  C  C48  1  0.10514100  0.00210700  0.88779500  1
  C  C49  1  0.26732800  0.51749600  0.28198800  1
  C  C50  1  0.73275200  0.51919800  0.71963300  1
  C  C51  1  0.76732800  0.01749600  0.28198800  1
  C  C52  1  0.23275200  0.01919800  0.71963300  1
  C  C53  1  0.23188900  0.51598300  0.31741400  1
  C  C54  1  0.76820000  0.51790400  0.68422000  1
  C  C55  1  0.73188900  0.01598300  0.31741400  1
  C  C56  1  0.26820000  0.01790400  0.68422000  1
  C  C57  1  0.21454600  0.49312800  0.29728700  1
  C  C58  1  0.78562300  0.49409000  0.70221400  1
  C  C59  1  0.71454600  0.99312800  0.29728700  1
  C  C60  1  0.28562300  0.99409000  0.70221400  1
  C  C61  1  0.23322600  0.47177500  0.24120900  1
  C  C62  1  0.76701400  0.47155100  0.75612900  1
  C  C63  1  0.73322600  0.97177500  0.24120900  1
  C  C64  1  0.26701400  0.97155100  0.75612900  1
  C  C65  1  0.26867300  0.47347600  0.20550300  1
  C  C66  1  0.73155600  0.47302400  0.79183900  1
  C  C67  1  0.76867300  0.97347600  0.20550300  1
  C  C68  1  0.23155600  0.97302400  0.79183900  1
  C  C69  1  0.28596700  0.49623500  0.22582700  1
  C  C70  1  0.71418300  0.49675300  0.77365200  1
  C  C71  1  0.78596700  0.99623500  0.22582700  1
  C  C72  1  0.21418300  0.99675300  0.77365200  1
  C  C73  1  0.15935500  0.46115200  0.34703700  1
  C  C74  1  0.84098400  0.46233500  0.64963200  1
  C  C75  1  0.65935500  0.96115200  0.34703700  1
  C  C76  1  0.34098400  0.96233500  0.64963200  1
  C  C77  1  0.12383900  0.46039200  0.38119800  1
  C  C78  1  0.87650100  0.46175000  0.61554600  1
  C  C79  1  0.62383900  0.96039200  0.38119800  1
  C  C80  1  0.37650100  0.96175000  0.61554600  1
  C  C81  1  0.10523700  0.49062900  0.40252300  1
  C  C82  1  0.89494400  0.49213600  0.59720700  1
  C  C83  1  0.60523700  0.99062900  0.40252300  1
  C  C84  1  0.39494400  0.99213600  0.59720700  1
  C  C85  1  0.12259900  0.52156100  0.38958300  1
  C  C86  1  0.87741900  0.52305200  0.61307100  1
  C  C87  1  0.62259900  0.02156100  0.38958300  1
  C  C88  1  0.37741900  0.02305200  0.61307100  1
  C  C89  1  0.15803900  0.52227600  0.35580100  1
  C  C90  1  0.84197500  0.52360200  0.64677900  1
  C  C91  1  0.65803900  0.02227600  0.35580100  1
  C  C92  1  0.34197500  0.02360200  0.64677900  1
  C  C93  1  0.17671600  0.49211100  0.33414300  1
  C  C94  1  0.82345900  0.49327800  0.66543800  1
  C  C95  1  0.67671600  0.99211100  0.33414300  1
  C  C96  1  0.32345900  0.99327800  0.66543800  1
  C  C97  1  0.00067900  0.43584900  0.99915600  1
  C  C98  1  0.50067900  0.93584900  0.99915600  1
  C  C99  1  0.00346300  0.50352700  0.87830400  1
  C  C100  1  0.99623300  0.50321800  0.12221600  1
  C  C101  1  0.50346300  0.00352700  0.87830400  1
  C  C102  1  0.49623300  0.00321800  0.12221600  1
  C  C103  1  0.99901500  0.57054000  0.00133700  1
  C  C104  1  0.49901500  0.07054000  0.00133700  1
  C  C105  1  0.50011700  0.43576000  0.00142300  1
  C  C106  1  0.00011700  0.93576000  0.00142300  1
  C  C107  1  0.43270600  0.50324000  0.07239600  1
  C  C108  1  0.56742100  0.50316500  0.92748700  1
  C  C109  1  0.93270600  0.00324000  0.07239600  1
  C  C110  1  0.06742100  0.00316500  0.92748700  1
  C  C111  1  0.50000900  0.57062200  0.99850300  1
  C  C112  1  0.00000900  0.07062200  0.99850300  1
  C  C113  1  0.50137400  0.62624100  0.05139300  1
  C  C114  1  0.49871900  0.62634200  0.94585400  1
  C  C115  1  0.00137400  0.12624100  0.05139300  1
  C  C116  1  0.99871900  0.12634200  0.94585400  1
  C  C117  1  0.50151200  0.66168500  0.05132300  1
  C  C118  1  0.49869200  0.66178700  0.94601500  1
  C  C119  1  0.00151200  0.16168500  0.05132300  1
  C  C120  1  0.99869200  0.16178700  0.94601500  1
  C  C121  1  0.50013700  0.67972900  0.99868500  1
  C  C122  1  0.00013700  0.17972900  0.99868500  1
  C  C123  1  0.50002400  0.60833600  0.99859400  1
  C  C124  1  0.00002400  0.10833600  0.99859400  1
  C  C125  1  0.47951800  0.73560100  0.97917300  1
  C  C126  1  0.52101500  0.73542900  0.01825700  1
  C  C127  1  0.97951800  0.23560100  0.97917300  1
  C  C128  1  0.02101500  0.23542900  0.01825700  1
  C  C129  1  0.97950600  0.27104100  0.97944500  1
  C  C130  1  0.02119300  0.27086900  0.01803100  1
  C  C131  1  0.47950600  0.77104100  0.97944500  1
  C  C132  1  0.52119300  0.77086900  0.01803100  1
  C  C133  1  0.00039100  0.28895300  0.99875200  1
  C  C134  1  0.50039100  0.78895300  0.99875200  1
  C  C135  1  0.50022300  0.71751700  0.99870700  1
  C  C136  1  0.00022300  0.21751700  0.99870700  1
  C  C137  1  0.03093800  0.34466400  0.97591800  1
  C  C138  1  0.97007500  0.34480400  0.02177200  1
  C  C139  1  0.53093800  0.84466400  0.97591800  1
  C  C140  1  0.47007500  0.84480400  0.02177200  1
  C  C141  1  0.03103500  0.38010900  0.97584400  1
  C  C142  1  0.97011900  0.38024800  0.02203600  1
  C  C143  1  0.53103500  0.88010900  0.97584400  1
  C  C144  1  0.47011900  0.88024800  0.02203600  1
  C  C145  1  0.00061100  0.39813500  0.99899800  1
  C  C146  1  0.50061100  0.89813500  0.99899800  1
  C  C147  1  0.00047000  0.32674100  0.99880500  1
  C  C148  1  0.50047000  0.82674100  0.99880500  1
  C  C149  1  0.50198500  0.37965400  0.94531700  1
  C  C150  1  0.49805700  0.37955900  0.05739000  1
  C  C151  1  0.00198500  0.87965400  0.94531700  1
  C  C152  1  0.99805700  0.87955900  0.05739000  1
  C  C153  1  0.50191700  0.34422700  0.94553500  1
  C  C154  1  0.49789500  0.34413300  0.05717700  1
  C  C155  1  0.00191700  0.84422700  0.94553500  1
  C  C156  1  0.99789500  0.84413300  0.05717700  1
  C  C157  1  0.49983700  0.32620900  0.00136600  1
  C  C158  1  0.99983700  0.82620900  0.00136600  1
  C  C159  1  0.50006800  0.39781500  0.00136200  1
  C  C160  1  0.00006800  0.89781500  0.00136200  1
  C  C161  1  0.47846700  0.27052300  0.06127300  1
  C  C162  1  0.52076200  0.27043700  0.94153600  1
  C  C163  1  0.97846700  0.77052300  0.06127300  1
  C  C164  1  0.02076200  0.77043700  0.94153600  1
  C  C165  1  0.97823600  0.73510000  0.06130500  1
  C  C166  1  0.02071800  0.73501500  0.94155700  1
  C  C167  1  0.47823600  0.23510000  0.06130500  1
  C  C168  1  0.52071800  0.23501500  0.94155700  1
  C  C169  1  0.99941100  0.71713400  0.00144600  1
  C  C170  1  0.49941100  0.21713400  0.00144600  1
  C  C171  1  0.49968700  0.28845000  0.00139300  1
  C  C172  1  0.99968700  0.78845000  0.00139300  1
  C  C173  1  0.02980000  0.66148400  0.97643200  1
  C  C174  1  0.96868500  0.66166100  0.02653900  1
  C  C175  1  0.52980000  0.16148400  0.97643200  1
  C  C176  1  0.46868500  0.16166100  0.02653900  1
  C  C177  1  0.02974000  0.62605900  0.97642700  1
  C  C178  1  0.96855100  0.62623200  0.02650200  1
  C  C179  1  0.52974000  0.12605900  0.97642700  1
  C  C180  1  0.46855100  0.12623200  0.02650200  1
  C  C181  1  0.99909800  0.60821700  0.00144100  1
  C  C182  1  0.49909800  0.10821700  0.00144100  1
  C  C183  1  0.99929300  0.67946100  0.00147900  1
  C  C184  1  0.49929300  0.17946100  0.00147900  1
  O  O1  1  0.05125200  0.51976800  0.45463700  1
  O  O2  1  0.94879100  0.52146500  0.54781800  1
  O  O3  1  0.55125200  0.01976800  0.45463700  1
  O  O4  1  0.44879100  0.02146500  0.54781800  1
  O  O5  1  0.05145600  0.46050500  0.45078400  1
  O  O6  1  0.94887000  0.46217300  0.54622000  1
  O  O7  1  0.55145600  0.96050500  0.45078400  1
  O  O8  1  0.44887000  0.96217300  0.54622000  1
  O  O9  1  0.99735300  0.52143000  0.59297600  1
  O  O10  1  0.00138400  0.51986000  0.40832000  1
  O  O11  1  0.49735300  0.02143000  0.59297600  1
  O  O12  1  0.50138400  0.01986000  0.40832000  1
  O  O13  1  0.99947200  0.46210000  0.59076700  1
  O  O14  1  0.00216700  0.46049000  0.40737100  1
  O  O15  1  0.49947200  0.96210000  0.59076700  1
  O  O16  1  0.50216700  0.96049000  0.40737100  1
  O  O17  1  0.97116700  0.45202400  0.02296300  1
  O  O18  1  0.03022600  0.45189700  0.97557900  1
  O  O19  1  0.47116700  0.95202400  0.02296300  1
  O  O20  1  0.53022600  0.95189700  0.97557900  1
  O  O21  1  0.97277400  0.50442100  0.93295700  1
  O  O22  1  0.02693600  0.50267200  0.06756200  1
  O  O23  1  0.47277400  0.00442100  0.93295700  1
  O  O24  1  0.52693600  0.00267200  0.06756200  1
  O  O25  1  0.03203900  0.50228900  0.88193300  1
  O  O26  1  0.96763200  0.50350900  0.11861000  1
  O  O27  1  0.53203900  0.00228900  0.88193300  1
  O  O28  1  0.46763200  0.00350900  0.11861000  1
  O  O29  1  0.96939800  0.55451500  0.02603900  1
  O  O30  1  0.02859100  0.55439100  0.97646700  1
  O  O31  1  0.46939800  0.05451500  0.02603900  1
  O  O32  1  0.52859100  0.05439100  0.97646700  1
  O  O33  1  0.50060900  0.45198200  0.05311200  1
  O  O34  1  0.49959100  0.45208600  0.94983400  1
  O  O35  1  0.00060900  0.95198200  0.05311200  1
  O  O36  1  0.99959100  0.95208600  0.94983400  1
  O  O37  1  0.45008200  0.50258000  0.10642000  1
  O  O38  1  0.55004800  0.50406200  0.89346400  1
  O  O39  1  0.95008200  0.00258000  0.10642000  1
  O  O40  1  0.05004800  0.00406200  0.89346400  1
  O  O41  1  0.44759600  0.50407100  0.00441500  1
  O  O42  1  0.55252700  0.50253000  0.99547300  1
  O  O43  1  0.94759600  0.00407100  0.00441500  1
  O  O44  1  0.05252700  0.00253000  0.99547300  1
  O  O45  1  0.50063000  0.55445300  0.05015900  1
  O  O46  1  0.49942300  0.55455500  0.94675000  1
  O  O47  1  0.00063000  0.05445300  0.05015900  1
  O  O48  1  0.99942300  0.05455500  0.94675000  1
  F  F1  1  0.50403300  0.39597000  0.88910100  1
  F  F2  1  0.49611100  0.39577800  0.11360700  1
  F  F3  1  0.00403300  0.89597000  0.88910100  1
  F  F4  1  0.99611100  0.89577800  0.11360700  1
  F  F5  1  0.95781500  0.71816800  0.12117500  1
  F  F6  1  0.04101100  0.71800600  0.88171000  1
  F  F7  1  0.45781500  0.21816800  0.12117500  1
  F  F8  1  0.54101100  0.21800600  0.88171000  1
  F  F9  1  0.32739900  0.49660800  0.29103800  1
  F  F10  1  0.67280100  0.50007300  0.70847200  1
  F  F11  1  0.82739900  0.99660800  0.29103800  1
  F  F12  1  0.17280100  0.00007300  0.70847200  1
