# Generated by REPEAT Assigner based on pymatgen
data_DB0-m2_o14_o19_f0_nbo.sym.69_sqe
_audit_creation_date              2022-05-24
_audit_creation_method            REPEAT_Assigner
_cell_length_a                    23.405837
_cell_length_b                    30.458096
_cell_length_c                    19.231529
_cell_angle_alpha                 90.000000
_cell_angle_beta                  127.472405
_cell_angle_gamma                 90.000000
_cell_volume                      10880.975316
_symmetry_space_group_name_H-M    P1
_symmetry_Int_Tables_number       1
loop_
    _symmetry_equiv_pos_site_id
    _symmetry_equiv_pos_as_xyz
    1  x,y,z
loop_
    _atom_site_type_symbol
    _atom_site_label
    _atom_site_fract_x
    _atom_site_fract_y
    _atom_site_fract_z
    _atom_type_partial_charge
    O   O1    0.674909  0.790317  0.872491  -0.629835
    O   O2    0.309544  0.254427  0.152581  -0.630106
    O   O3    0.339041  0.783620  0.146856  -0.583957
    O   O4    0.699523  0.249256  0.865423  -0.615356
    O   O5    0.174909  0.290317  0.872491  -0.629822
    O   O6    0.809544  0.754427  0.152581  -0.630089
    O   O7    0.839041  0.283620  0.146856  -0.583951
    O   O8    0.199523  0.749256  0.865423  -0.615347
    O   O9    0.762990  0.839427  0.974016  -0.627219
    O   O10   0.282170  0.200420  0.051101  -0.616387
    O   O11   0.251025  0.833348  0.047307  -0.580518
    O   O12   0.728097  0.194845  0.966720  -0.621202
    O   O13   0.262990  0.339427  0.974016  -0.627216
    O   O14   0.782170  0.700420  0.051101  -0.616380
    O   O15   0.751025  0.333348  0.047307  -0.580521
    O   O16   0.228097  0.694845  0.966720  -0.621192
    C   C1    0.706067  0.829314  0.893557  0.811341
    C   C2    0.308385  0.212980  0.131186  0.751504
    C   C3    0.308128  0.822650  0.126896  0.665782
    C   C4    0.700078  0.207764  0.886176  0.797467
    C   C5    0.206067  0.329314  0.893557  0.811268
    C   C6    0.808385  0.712980  0.131186  0.751535
    C   C7    0.808128  0.322650  0.126896  0.665798
    C   C8    0.200078  0.707764  0.886176  0.797433
    O   O17   0.654659  0.743860  0.978513  -0.620258
    O   O18   0.374730  0.281927  0.080363  -0.592951
    O   O19   0.356347  0.737596  0.038078  -0.547130
    O   O20   0.637781  0.277060  0.942042  -0.576308
    O   O21   0.154659  0.243860  0.978513  -0.620297
    O   O22   0.874730  0.781927  0.080363  -0.592932
    O   O23   0.856347  0.237596  0.038078  -0.547129
    O   O24   0.137781  0.777060  0.942042  -0.576293
    O   O25   0.698006  0.811749  0.046846  -0.603593
    O   O26   0.302736  0.246681  0.945425  -0.597810
    O   O27   0.313029  0.805765  0.971173  -0.582828
    O   O28   0.711124  0.240995  0.075933  -0.565671
    O   O29   0.198006  0.311749  0.046846  -0.603593
    O   O30   0.802736  0.746681  0.945425  -0.597795
    O   O31   0.813029  0.305765  0.971173  -0.582831
    O   O32   0.211124  0.740995  0.075933  -0.565667
    C   C9    0.650364  0.779632  0.013839  0.840429
    C   C10   0.365796  0.260872  0.014464  0.782880
    C   C11   0.362108  0.774470  0.006705  0.758906
    C   C12   0.648509  0.257282  0.010209  0.755165
    C   C13   0.150364  0.279632  0.013839  0.840553
    C   C14   0.865796  0.760872  0.014464  0.782853
    C   C15   0.862108  0.274470  0.006705  0.758889
    C   C16   0.148509  0.757282  0.010209  0.755143
    Cu  Cu1   0.723252  0.740646  0.952492  0.994912
    Cu  Cu2   0.291632  0.301633  0.072662  0.986550
    Cu  Cu3   0.288938  0.734453  0.065960  0.942470
    Cu  Cu4   0.720010  0.296088  0.947241  0.961464
    Cu  Cu5   0.223252  0.240646  0.952492  0.994880
    Cu  Cu6   0.791632  0.801633  0.072662  0.986595
    Cu  Cu7   0.788938  0.234453  0.065960  0.942482
    Cu  Cu8   0.220010  0.796088  0.947241  0.961441
    C   C17   0.590056  0.783756  0.015312  -0.211804
    C   C18   0.427655  0.254924  0.016637  -0.184592
    C   C19   0.425106  0.780680  0.011345  -0.214857
    C   C20   0.588965  0.253527  0.013226  -0.166611
    C   C21   0.090056  0.283756  0.015312  -0.212014
    C   C22   0.927655  0.754924  0.016637  -0.184577
    C   C23   0.925106  0.280680  0.011345  -0.214803
    C   C24   0.088965  0.753527  0.013226  -0.166604
    C   C25   0.538778  0.785228  0.015624  0.041514
    C   C26   0.479361  0.251956  0.017376  0.052737
    C   C27   0.477885  0.784111  0.014397  0.103016
    C   C28   0.538839  0.251663  0.015742  0.068036
    C   C29   0.038778  0.285228  0.015624  0.041677
    C   C30   0.979361  0.751956  0.017376  0.052735
    C   C31   0.977885  0.284111  0.014397  0.102923
    C   C32   0.038839  0.751663  0.015742  0.068034
    C   C33   0.764124  0.858906  0.805209  -0.373720
    C   C34   0.218232  0.152580  0.136129  -0.328082
    C   C35   0.296366  0.819394  0.266261  -0.374671
    C   C36   0.763874  0.172125  0.809307  -0.303288
    C   C37   0.264124  0.358906  0.805209  -0.373740
    C   C38   0.718232  0.652580  0.136129  -0.328075
    C   C39   0.796366  0.319394  0.266261  -0.374662
    C   C40   0.263874  0.672125  0.809307  -0.303285
    H   H1    0.796254  0.839296  0.863431  0.195650
    H   H2    0.194331  0.179123  0.089659  0.200571
    H   H3    0.270481  0.795448  0.215042  0.219726
    H   H4    0.785751  0.201160  0.848964  0.155445
    H   H5    0.296255  0.339296  0.863431  0.195685
    H   H6    0.694331  0.679123  0.089659  0.200551
    H   H7    0.770481  0.295448  0.215042  0.219727
    H   H8    0.285751  0.701160  0.848964  0.155446
    C   C41   0.789175  0.868890  0.757147  0.192916
    C   C42   0.171818  0.122539  0.131840  0.107649
    C   C43   0.291889  0.815621  0.334928  0.185377
    C   C44   0.799972  0.151898  0.781051  0.153441
    C   C45   0.289175  0.368890  0.757147  0.192902
    C   C46   0.671818  0.622539  0.131840  0.107685
    C   C47   0.791889  0.315621  0.334928  0.185357
    C   C48   0.299972  0.651898  0.781051  0.153436
    C   C49   0.741952  0.888138  0.676372  -0.183406
    C   C50   0.200944  0.086611  0.187153  -0.076615
    C   C51   0.320671  0.848789  0.396246  -0.155744
    C   C52   0.776055  0.111304  0.742206  -0.154524
    C   C53   0.241952  0.388138  0.676372  -0.183393
    C   C54   0.700944  0.586611  0.187153  -0.076668
    C   C55   0.820671  0.348789  0.396246  -0.155699
    C   C56   0.276055  0.611304  0.742206  -0.154531
    H   H9    0.755257  0.891247  0.631795  0.135739
    H   H10   0.168553  0.060408  0.183706  0.110677
    H   H11   0.315095  0.848288  0.448012  0.119503
    H   H12   0.807424  0.091547  0.730019  0.117198
    H   H13   0.255257  0.391247  0.631795  0.135732
    H   H14   0.668553  0.560408  0.183706  0.110687
    H   H15   0.815095  0.348288  0.448012  0.119495
    H   H16   0.307424  0.591547  0.730019  0.117204
    C   C57   0.677395  0.904308  0.651037  -0.242709
    C   C58   0.274194  0.082867  0.249272  -0.327976
    C   C59   0.356110  0.883479  0.392579  -0.266855
    C   C60   0.711310  0.095316  0.716770  -0.232844
    C   C61   0.177395  0.404308  0.651037  -0.242711
    C   C62   0.774194  0.582867  0.249272  -0.327909
    C   C63   0.856110  0.383479  0.392579  -0.266909
    C   C64   0.211310  0.595316  0.716770  -0.232824
    H   H17   0.642424  0.918157  0.586209  0.149742
    H   H18   0.293729  0.054034  0.290196  0.173140
    H   H19   0.378810  0.907483  0.444164  0.164039
    H   H20   0.696435  0.062976  0.688165  0.141429
    H   H21   0.142424  0.418157  0.586209  0.149746
    H   H22   0.793729  0.554034  0.290196  0.173131
    H   H23   0.878810  0.407483  0.444164  0.164044
    H   H24   0.196435  0.562976  0.688165  0.141416
    C   C65   0.657821  0.901389  0.705818  0.178169
    C   C66   0.320408  0.114336  0.256759  0.227633
    C   C67   0.362313  0.886763  0.325617  0.173572
    C   C68   0.668696  0.119430  0.730278  0.176080
    C   C69   0.157821  0.401389  0.705818  0.178162
    C   C70   0.820408  0.614336  0.256759  0.227540
    C   C71   0.862314  0.386763  0.325617  0.173622
    C   C72   0.168696  0.619430  0.730278  0.176052
    C   C73   0.697961  0.874812  0.779501  0.216372
    C   C74   0.292550  0.148763  0.197510  0.151822
    C   C75   0.333108  0.854168  0.262302  0.183061
    C   C76   0.698429  0.155662  0.785035  0.166518
    C   C77   0.197961  0.374812  0.779501  0.216378
    C   C78   0.792550  0.648763  0.197510  0.151843
    C   C79   0.833108  0.354168  0.262302  0.183056
    C   C80   0.198429  0.655662  0.785035  0.166544
    C   C81   0.671116  0.863924  0.825554  -0.317931
    C   C82   0.338638  0.179039  0.199692  -0.254450
    C   C83   0.340692  0.856539  0.195535  -0.239693
    C   C84   0.663056  0.174632  0.815652  -0.294206
    C   C85   0.171116  0.363924  0.825554  -0.317891
    C   C86   0.838638  0.679039  0.199692  -0.254496
    C   C87   0.840692  0.356539  0.195535  -0.239707
    C   C88   0.163056  0.674632  0.815652  -0.294230
    C   C89   0.606095  0.882568  0.799867  0.185681
    C   C90   0.413185  0.174982  0.263375  0.153538
    C   C91   0.379343  0.891174  0.194251  0.157500
    C   C92   0.594957  0.159024  0.784687  0.186250
    C   C93   0.106095  0.382568  0.799867  0.185624
    C   C94   0.913185  0.674982  0.263375  0.153546
    C   C95   0.879343  0.391174  0.194251  0.157527
    C   C96   0.094957  0.659024  0.784687  0.186273
    H   H25   0.523450  0.928383  0.714044  0.193239
    H   H26   0.495941  0.136349  0.371646  0.193497
    H   H27   0.435885  0.950682  0.257823  0.209786
    H   H28   0.509796  0.115432  0.694614  0.209486
    H   H29   0.023450  0.428383  0.714044  0.193246
    H   H30   0.995941  0.636349  0.371646  0.193467
    H   H31   0.935885  0.450682  0.257824  0.209760
    H   H32   0.009796  0.615432  0.694614  0.209494
    C   C97   0.571239  0.912269  0.731523  -0.204003
    C   C98   0.439221  0.140529  0.321952  -0.201170
    C   C99   0.407046  0.923275  0.257635  -0.243523
    C   C100  0.563393  0.126078  0.722518  -0.227662
    C   C101  0.071239  0.412269  0.731523  -0.203996
    C   C102  0.939221  0.640529  0.321952  -0.201195
    C   C103  0.907046  0.423275  0.257635  -0.243476
    C   C104  0.063393  0.626078  0.722518  -0.227706
    C   C105  0.596466  0.922339  0.684918  -0.212225
    C   C106  0.394230  0.110594  0.319722  -0.199502
    C   C107  0.398348  0.921778  0.321991  -0.170527
    C   C108  0.598834  0.106398  0.694290  -0.176251
    C   C109  0.096466  0.422339  0.684918  -0.212199
    C   C110  0.894230  0.610594  0.319722  -0.199321
    C   C111  0.898348  0.421778  0.321991  -0.170627
    C   C112  0.098834  0.606398  0.694290  -0.176248
    O   O33   0.006582  0.551336  0.613188  -0.581515
    O   O34   0.001548  0.464286  0.427339  -0.571905
    O   O35   0.979852  0.552697  0.391420  -0.571761
    O   O36   0.989412  0.462958  0.577727  -0.580290
    O   O37   0.506582  0.051336  0.613188  -0.581510
    O   O38   0.501548  0.964286  0.427339  -0.571906
    O   O39   0.479852  0.052697  0.391420  -0.571773
    O   O40   0.489412  0.962958  0.577727  -0.580320
    O   O41   0.075174  0.570534  0.567774  -0.541640
    O   O42   0.893054  0.480295  0.402055  -0.586497
    O   O43   0.909671  0.568884  0.436536  -0.569178
    O   O44   0.096410  0.482281  0.602866  -0.534887
    O   O45   0.575174  0.070534  0.567774  -0.541648
    O   O46   0.393054  0.980295  0.402055  -0.586514
    O   O47   0.409671  0.068884  0.436536  -0.569220
    O   O48   0.596410  0.982281  0.602866  -0.534902
    C   C113  0.059281  0.573969  0.622726  0.682952
    C   C114  0.932607  0.456644  0.388035  0.724585
    C   C115  0.928053  0.574971  0.384263  0.727963
    C   C116  0.058832  0.456895  0.617383  0.698229
    C   C117  0.559281  0.073969  0.622726  0.682909
    C   C118  0.432607  0.956644  0.388035  0.724488
    C   C119  0.428053  0.074971  0.384263  0.728152
    C   C120  0.558832  0.956895  0.617383  0.698285
    Cu  Cu9   0.941368  0.515865  0.508262  0.937209
    Cu  Cu10  0.046469  0.517676  0.496356  0.901750
    Cu  Cu11  0.441368  0.015865  0.508262  0.937237
    Cu  Cu12  0.546469  0.017676  0.496356  0.901758
    C   C121  0.573276  0.871911  0.845664  0.082416
    C   C122  0.567760  0.911967  0.889457  -0.130632
    C   C123  0.494281  0.933834  0.838471  0.133522
    C   C124  0.435567  0.900010  0.802664  -0.047597
    C   C125  0.435524  0.870912  0.739278  0.126926
    C   C126  0.504644  0.844570  0.787861  -0.101058
    H   H33   0.609804  0.850412  0.901587  0.031866
    H   H34   0.608634  0.936597  0.904079  0.007034
    H   H35   0.581376  0.900828  0.952840  0.035755
    H   H36   0.484295  0.954399  0.784703  -0.046811
    H   H37   0.493155  0.955716  0.883706  -0.029515
    H   H38   0.382831  0.916855  0.767838  -0.007659
    H   H39   0.444918  0.880044  0.856976  0.007704
    H   H40   0.428637  0.890751  0.686461  -0.037320
    H   H41   0.389539  0.847846  0.708899  -0.039167
    H   H42   0.506667  0.825834  0.739960  0.007874
    H   H43   0.503459  0.820586  0.830326  0.034438
    C   C127  0.466047  0.206490  0.269058  0.062268
    C   C128  0.507054  0.233796  0.353153  -0.043626
    C   C129  0.580795  0.216232  0.427283  0.024782
    C   C130  0.623506  0.205738  0.394392  -0.052161
    C   C131  0.586415  0.169445  0.327460  0.146305
    C   C132  0.512783  0.184424  0.248268  -0.133883
    H   H44   0.436587  0.231409  0.217390  0.064724
    H   H45   0.473773  0.236964  0.376116  -0.003270
    H   H46   0.514534  0.267140  0.336697  0.013258
    H   H47   0.576526  0.186920  0.457763  -0.018622
    H   H48   0.609757  0.241941  0.478464  -0.002663
    H   H49   0.678089  0.194641  0.450017  -0.003470
    H   H50   0.627870  0.235415  0.364504  0.040521
    H   H51   0.582418  0.139646  0.357078  -0.050927
    H   H52   0.619393  0.161098  0.305668  -0.028558
    H   H53   0.483259  0.155996  0.204395  0.017486
    H   H54   0.521153  0.208506  0.211973  0.012419
    C   C133  0.392603  0.894063  0.126470  0.102172
    C   C134  0.345078  0.928676  0.056843  -0.009360
    C   C135  0.380798  0.973047  0.075027  0.069038
    C   C136  0.451787  0.967643  0.090618  -0.034395
    C   C137  0.502332  0.941922  0.173927  0.162214
    C   C138  0.472650  0.896312  0.166754  -0.172415
    H   H55   0.376013  0.863189  0.089579  0.047654
    H   H56   0.294992  0.932519  0.050531  -0.016812
    H   H57   0.330066  0.916550  0.993327  -0.001066
    H   H58   0.388805  0.989009  0.132051  -0.043711
    H   H59   0.345338  0.994343  0.016937  -0.013524
    H   H60   0.475253  0.000461  0.097554  -0.004093
    H   H61   0.443701  0.950094  0.034705  0.008412
    H   H62   0.512866  0.960197  0.230317  -0.055049
    H   H63   0.554489  0.938260  0.185115  -0.033522
    H   H64   0.504855  0.880739  0.232420  0.016457
    H   H65   0.480189  0.876453  0.124555  0.030169
    C   C139  0.553838  0.177921  0.815294  0.084473
    C   C140  0.484516  0.201324  0.742065  -0.116670
    C   C141  0.415859  0.174655  0.698755  0.134149
    C   C142  0.413308  0.152502  0.766913  -0.028151
    C   C143  0.474872  0.120437  0.817555  0.099017
    C   C144  0.545944  0.144883  0.868801  -0.052671
    H   H66   0.585243  0.204481  0.861991  0.023211
    H   H67   0.489845  0.212541  0.691395  -0.000185
    H   H68   0.478917  0.230908  0.771105  0.028810
    H   H69   0.410877  0.150034  0.653105  -0.050878
    H   H70   0.369308  0.197283  0.660038  -0.024072
    H   H71   0.361675  0.134545  0.733987  -0.008613
    H   H72   0.417573  0.177390  0.811977  -0.009600
    H   H73   0.471852  0.096070  0.772781  -0.043651
    H   H74   0.470692  0.102532  0.864497  -0.020924
    H   H75   0.590715  0.120863  0.899242  -0.004273
    H   H76   0.551112  0.163085  0.922294  0.008444
    C   C145  0.073276  0.371911  0.845664  0.082508
    C   C146  0.067760  0.411967  0.889457  -0.130674
    C   C147  0.994281  0.433834  0.838471  0.133540
    C   C148  0.935567  0.400010  0.802664  -0.047595
    C   C149  0.935524  0.370912  0.739278  0.126924
    C   C150  0.004644  0.344570  0.787861  -0.101120
    H   H77   0.109804  0.350412  0.901587  0.031850
    H   H78   0.108633  0.436597  0.904079  0.007040
    H   H79   0.081376  0.400828  0.952840  0.035764
    H   H80   0.984295  0.454399  0.784703  -0.046818
    H   H81   0.993154  0.455716  0.883706  -0.029516
    H   H82   0.882831  0.416855  0.767838  -0.007660
    H   H83   0.944918  0.380044  0.856976  0.007703
    H   H84   0.928637  0.390751  0.686461  -0.037318
    H   H85   0.889539  0.347846  0.708898  -0.039160
    H   H86   0.006667  0.325833  0.739960  0.007886
    H   H87   0.003459  0.320586  0.830326  0.034461
    C   C151  0.966047  0.706490  0.269058  0.062276
    C   C152  0.007054  0.733796  0.353153  -0.043580
    C   C153  0.080795  0.716232  0.427283  0.024718
    C   C154  0.123506  0.705738  0.394392  -0.052135
    C   C155  0.086415  0.669445  0.327460  0.146220
    C   C156  0.012783  0.684424  0.248268  -0.133805
    H   H88   0.936587  0.731409  0.217390  0.064696
    H   H89   0.973773  0.736964  0.376116  -0.003283
    H   H90   0.014534  0.767140  0.336697  0.013250
    H   H91   0.076526  0.686920  0.457763  -0.018593
    H   H92   0.109757  0.741941  0.478464  -0.002653
    H   H93   0.178089  0.694641  0.450017  -0.003467
    H   H94   0.127870  0.735415  0.364504  0.040519
    H   H95   0.082418  0.639646  0.357078  -0.050889
    H   H96   0.119393  0.661098  0.305668  -0.028547
    H   H97   0.983259  0.655996  0.204395  0.017470
    H   H98   0.021153  0.708506  0.211973  0.012403
    C   C157  0.892603  0.394063  0.126470  0.102098
    C   C158  0.845079  0.428676  0.056843  -0.009323
    C   C159  0.880798  0.473047  0.075027  0.068992
    C   C160  0.951787  0.467643  0.090618  -0.034264
    C   C161  0.002332  0.441922  0.173927  0.162235
    C   C162  0.972650  0.396312  0.166754  -0.172417
    H   H99   0.876013  0.363189  0.089579  0.047674
    H   H100  0.794992  0.432519  0.050531  -0.016822
    H   H101  0.830066  0.416550  0.993327  -0.001069
    H   H102  0.888805  0.489009  0.132051  -0.043699
    H   H103  0.845338  0.494343  0.016937  -0.013525
    H   H104  0.975253  0.500461  0.097554  -0.004135
    H   H105  0.943702  0.450094  0.034705  0.008372
    H   H106  0.012866  0.460197  0.230317  -0.055045
    H   H107  0.054490  0.438260  0.185116  -0.033546
    H   H108  0.004855  0.380739  0.232420  0.016458
    H   H109  0.980189  0.376453  0.124555  0.030171
    C   C163  0.053838  0.677921  0.815294  0.084582
    C   C164  0.984516  0.701324  0.742065  -0.116724
    C   C165  0.915859  0.674655  0.698755  0.134144
    C   C166  0.913308  0.652502  0.766913  -0.028149
    C   C167  0.974872  0.620437  0.817555  0.099029
    C   C168  0.045944  0.644883  0.868801  -0.052708
    H   H110  0.085243  0.704481  0.861991  0.023170
    H   H111  0.989845  0.712541  0.691395  -0.000169
    H   H112  0.978917  0.730908  0.771105  0.028816
    H   H113  0.910877  0.650034  0.653105  -0.050880
    H   H114  0.869308  0.697283  0.660038  -0.024065
    H   H115  0.861675  0.634545  0.733987  -0.008613
    H   H116  0.917573  0.677390  0.811977  -0.009602
    H   H117  0.971852  0.596070  0.772781  -0.043651
    H   H118  0.970692  0.602532  0.864497  -0.020925
    H   H119  0.090715  0.620863  0.899242  -0.004272
    H   H120  0.051112  0.663085  0.922294  0.008451
    C   C169  0.862656  0.856632  0.783414  -0.076318
    C   C170  0.902195  0.896156  0.781950  0.064527
    C   C171  0.927217  0.927244  0.856934  0.063058
    C   C172  0.979749  0.903673  0.942765  0.025578
    C   C173  0.942523  0.865039  0.948941  -0.032135
    C   C174  0.912701  0.833909  0.871694  0.098838
    H   H121  0.853301  0.833217  0.733269  0.012320
    H   H122  0.868712  0.914485  0.719515  -0.031216
    H   H123  0.950012  0.884121  0.788581  -0.010311
    H   H124  0.880724  0.939336  0.853177  -0.015861
    H   H125  0.954701  0.955663  0.852921  -0.034336
    H   H126  0.998762  0.926549  0.997765  -0.015453
    H   H127  0.026613  0.892052  0.946841  -0.012583
    H   H128  0.899686  0.877481  0.951926  0.015279
    H   H129  0.982321  0.847209  0.010703  -0.017272
    H   H130  0.884897  0.805587  0.874818  -0.036306
    H   H131  0.958873  0.820595  0.876056  0.003585
    C   C175  0.091944  0.129448  0.062258  0.008580
    C   C176  0.043085  0.090561  0.044284  0.020994
    C   C177  0.025707  0.086644  0.108716  0.001702
    C   C178  0.997953  0.129679  0.116357  0.070264
    C   C179  0.054652  0.164480  0.147524  0.019219
    C   C180  0.065912  0.171235  0.078765  0.091504
    H   H132  0.084700  0.134777  0.000279  -0.005117
    H   H133  0.066075  0.059401  0.041469  -0.018264
    H   H134  0.991395  0.095548  0.978290  -0.001352
    H   H135  0.073242  0.076683  0.174634  -0.004872
    H   H136  0.983553  0.061238  0.084361  -0.013079
    H   H137  0.986968  0.126151  0.164620  -0.023927
    H   H138  0.947534  0.139031  0.051891  -0.034265
    H   H139  0.105823  0.154461  0.210510  -0.014540
    H   H140  0.035917  0.195711  0.157130  -0.028064
    H   H141  0.104623  0.198411  0.100022  -0.041485
    H   H142  0.014160  0.181156  0.016728  -0.023528
    C   C181  0.252985  0.778906  0.343902  -0.026593
    C   C182  0.212468  0.745919  0.268373  0.002424
    C   C183  0.261324  0.711744  0.270834  0.089775
    C   C184  0.306951  0.689076  0.358764  -0.085553
    C   C185  0.351814  0.723034  0.429310  0.094047
    C   C186  0.302442  0.754366  0.430774  0.061237
    H   H143  0.211421  0.795193  0.345492  -0.001862
    H   H144  0.179730  0.763079  0.204470  -0.043581
    H   H145  0.174029  0.728101  0.273758  0.029096
    H   H146  0.297428  0.726576  0.258390  0.006691
    H   H147  0.227309  0.686896  0.219268  -0.034471
    H   H148  0.342999  0.665114  0.359536  -0.000977
    H   H149  0.271982  0.671509  0.370442  0.016036
    H   H150  0.385789  0.741184  0.416766  -0.026245
    H   H151  0.387049  0.706327  0.493689  -0.028608
    H   H152  0.335477  0.777051  0.486833  -0.043160
    H   H153  0.268634  0.735230  0.442213  -0.026518
    C   C187  0.867782  0.169365  0.797175  -0.075154
    C   C188  0.861160  0.171384  0.713094  0.015114
    C   C189  0.810655  0.207726  0.653250  -0.108262
    C   C190  0.840370  0.251403  0.698988  0.046818
    C   C191  0.845975  0.251746  0.781558  -0.039123
    C   C192  0.893294  0.214008  0.841746  0.137661
    H   H154  0.911237  0.145587  0.841327  0.030354
    H   H155  0.842558  0.139981  0.676764  -0.001562
    H   H156  0.915190  0.178026  0.730957  0.006958
    H   H157  0.756189  0.202502  0.635029  0.050528
    H   H158  0.806869  0.207741  0.592931  0.038446
    H   H159  0.803623  0.278022  0.654833  -0.003814
    H   H160  0.894270  0.256888  0.715663  0.006800
    H   H161  0.791187  0.249888  0.763294  0.004326
    H   H162  0.870532  0.283251  0.816191  -0.014291
    H   H163  0.897523  0.213700  0.902083  -0.008211
    H   H164  0.948361  0.219501  0.862036  -0.019538
    C   C193  0.362657  0.356632  0.783414  -0.076309
    C   C194  0.402195  0.396156  0.781951  0.064532
    C   C195  0.427217  0.427244  0.856934  0.063038
    C   C196  0.479749  0.403673  0.942766  0.025601
    C   C197  0.442523  0.365039  0.948941  -0.032131
    C   C198  0.412701  0.333909  0.871694  0.098841
    H   H165  0.353302  0.333217  0.733269  0.012323
    H   H166  0.368712  0.414485  0.719516  -0.031217
    H   H167  0.450012  0.384121  0.788581  -0.010315
    H   H168  0.380724  0.439336  0.853177  -0.015856
    H   H169  0.454701  0.455664  0.852922  -0.034334
    H   H170  0.498762  0.426549  0.997765  -0.015456
    H   H171  0.526613  0.392052  0.946842  -0.012592
    H   H172  0.399686  0.377481  0.951926  0.015267
    H   H173  0.482322  0.347209  0.010703  -0.017271
    H   H174  0.384897  0.305588  0.874819  -0.036319
    H   H175  0.458873  0.320595  0.876056  0.003587
    C   C199  0.591944  0.629448  0.062258  0.008575
    C   C200  0.543085  0.590561  0.044283  0.020979
    C   C201  0.525707  0.586644  0.108716  0.001702
    C   C202  0.497953  0.629679  0.116357  0.070276
    C   C203  0.554652  0.664480  0.147524  0.019183
    C   C204  0.565912  0.671235  0.078765  0.091534
    H   H176  0.584700  0.634777  0.000279  -0.005125
    H   H177  0.566075  0.559401  0.041469  -0.018254
    H   H178  0.491395  0.595548  0.978290  -0.001345
    H   H179  0.573242  0.576683  0.174634  -0.004871
    H   H180  0.483553  0.561238  0.084361  -0.013081
    H   H181  0.486968  0.626151  0.164620  -0.023926
    H   H182  0.447534  0.639031  0.051891  -0.034270
    H   H183  0.605823  0.654461  0.210510  -0.014534
    H   H184  0.535917  0.695711  0.157130  -0.028056
    H   H185  0.604623  0.698411  0.100022  -0.041501
    H   H186  0.514160  0.681156  0.016728  -0.023525
    C   C205  0.752985  0.278906  0.343902  -0.026584
    C   C206  0.712468  0.245919  0.268373  0.002442
    C   C207  0.761324  0.211744  0.270834  0.089770
    C   C208  0.806951  0.189076  0.358764  -0.085551
    C   C209  0.851814  0.223034  0.429310  0.094047
    C   C210  0.802442  0.254366  0.430774  0.061224
    H   H187  0.711421  0.295193  0.345492  -0.001866
    H   H188  0.679730  0.263079  0.204470  -0.043586
    H   H189  0.674029  0.228101  0.273758  0.029087
    H   H190  0.797428  0.226576  0.258390  0.006693
    H   H191  0.727309  0.186896  0.219268  -0.034470
    H   H192  0.842999  0.165114  0.359536  -0.000978
    H   H193  0.771982  0.171509  0.370442  0.016033
    H   H194  0.885789  0.241184  0.416766  -0.026245
    H   H195  0.887049  0.206327  0.493689  -0.028608
    H   H196  0.835477  0.277051  0.486833  -0.043159
    H   H197  0.768634  0.235230  0.442213  -0.026513
    C   C211  0.367782  0.669365  0.797175  -0.075155
    C   C212  0.361160  0.671384  0.713093  0.015135
    C   C213  0.310655  0.707726  0.653250  -0.108269
    C   C214  0.340370  0.751404  0.698989  0.046854
    C   C215  0.345975  0.751746  0.781558  -0.039156
    C   C216  0.393294  0.714008  0.841746  0.137676
    H   H198  0.411237  0.645587  0.841327  0.030349
    H   H199  0.342558  0.639981  0.676764  -0.001567
    H   H200  0.415190  0.678026  0.730957  0.006954
    H   H201  0.256189  0.702502  0.635029  0.050523
    H   H202  0.306869  0.707741  0.592931  0.038443
    H   H203  0.303623  0.778022  0.654833  -0.003815
    H   H204  0.394270  0.756888  0.715663  0.006788
    H   H205  0.291187  0.749888  0.763294  0.004326
    H   H206  0.370532  0.783252  0.816191  -0.014280
    H   H207  0.397523  0.713700  0.902083  -0.008214
    H   H208  0.448361  0.719501  0.862036  -0.019546
