data_DB0-m3_o12_o29_f0_pcu.sym.103_repeat
_audit_creation_date              2024-02-20
_audit_creation_method            'Materials Studio'
_symmetry_space_group_name_H-M    'P1'
_symmetry_Int_Tables_number       1
_symmetry_cell_setting            triclinic
loop_
_symmetry_equiv_pos_as_xyz
  x,y,z
_cell_length_a                    10.0050
_cell_length_b                    11.2482
_cell_length_c                    27.6600
_cell_angle_alpha                 89.9797
_cell_angle_beta                  80.7841
_cell_angle_gamma                 92.4465
loop_
_atom_site_label
_atom_site_type_symbol
_atom_site_fract_x
_atom_site_fract_y
_atom_site_fract_z
_atom_site_U_iso_or_equiv
_atom_site_adp_type
_atom_site_occupancy
O1     O     0.43630   0.67417   0.50411   0.00000  Uiso   1.00
O2     O     0.58548   0.29262   0.49480   0.00000  Uiso   1.00
O3     O     0.66577   0.64287   0.49029   0.00000  Uiso   1.00
O4     O     0.35603   0.32393   0.50872   0.00000  Uiso   1.00
C1     C     0.56332   0.71338   0.49650   0.00000  Uiso   1.00
C2     C     0.45847   0.25341   0.50246   0.00000  Uiso   1.00
O5     O     0.39848   0.49875   0.57831   0.00000  Uiso   1.00
O6     O     0.62335   0.46822   0.42064   0.00000  Uiso   1.00
O7     O     0.62771   0.46706   0.56448   0.00000  Uiso   1.00
O8     O     0.39407   0.49960   0.43449   0.00000  Uiso   1.00
C3     C     0.51344   0.48282   0.59402   0.00000  Uiso   1.00
C4     C     0.50832   0.48405   0.40494   0.00000  Uiso   1.00
Zn1    Zn    0.35968   0.50418   0.50866   0.00000  Uiso   1.00
Zn2    Zn    0.66211   0.46261   0.49030   0.00000  Uiso   1.00
C5     C     0.59710   0.55737   0.81850   0.00000  Uiso   1.00
C6     C     0.43385   0.40556   0.18005   0.00000  Uiso   1.00
O9     O     0.68145   0.63247   0.78909   0.00000  Uiso   1.00
O10    O     0.36453   0.31970   0.20866   0.00000  Uiso   1.00
N1     N     0.51163   0.48277   0.79910   0.00000  Uiso   1.00
N2     N     0.50665   0.48969   0.20016   0.00000  Uiso   1.00
C7     C     0.42373   0.40885   0.82801   0.00000  Uiso   1.00
C8     C     0.57922   0.57546   0.17222   0.00000  Uiso   1.00
C9     C     0.39710   0.50822   0.72876   0.00000  Uiso   1.00
C10    C     0.38845   0.50232   0.28392   0.00000  Uiso   1.00
C11    C     0.39733   0.50800   0.67893   0.00000  Uiso   1.00
C12    C     0.38863   0.50104   0.33377   0.00000  Uiso   1.00
C13    C     0.62980   0.45778   0.66570   0.00000  Uiso   1.00
C14    C     0.62633   0.46989   0.31960   0.00000  Uiso   1.00
C15    C     0.62912   0.45749   0.71563   0.00000  Uiso   1.00
C16    C     0.62588   0.47147   0.26977   0.00000  Uiso   1.00
C17    C     0.51275   0.48272   0.74739   0.00000  Uiso   1.00
C18    C     0.50705   0.48789   0.25173   0.00000  Uiso   1.00
C19    C     0.50662   0.48538   0.89908   0.00000  Uiso   1.00
C20    C     0.50619   0.49176   0.10053   0.00000  Uiso   1.00
C21    C     0.59656   0.55871   0.86846   0.00000  Uiso   1.00
C22    C     0.43307   0.40530   0.13019   0.00000  Uiso   1.00
C23    C     0.68663   0.63312   0.88778   0.00000  Uiso   1.00
C24    C     0.36105   0.31711   0.10987   0.00000  Uiso   1.00
C25    C     0.41722   0.41079   0.87881   0.00000  Uiso   1.00
C26    C     0.57896   0.57915   0.12174   0.00000  Uiso   1.00
C27    C     0.51373   0.48284   0.64705   0.00000  Uiso   1.00
C28    C     0.50768   0.48489   0.35192   0.00000  Uiso   1.00
H1     H     0.72198   0.43732   0.64165   0.00000  Uiso   1.00
H2     H     0.72077   0.45681   0.33270   0.00000  Uiso   1.00
H3     H     0.72001   0.43619   0.72973   0.00000  Uiso   1.00
H4     H     0.71908   0.45885   0.24490   0.00000  Uiso   1.00
H5     H     0.76048   0.68939   0.86455   0.00000  Uiso   1.00
H6     H     0.30574   0.24651   0.13206   0.00000  Uiso   1.00
C29    C     0.58528   0.57356   0.02017   0.00000  Uiso   1.00
C30    C     0.42057   0.40909   0.97981   0.00000  Uiso   1.00
C31    C     0.42745   0.40500   0.02995   0.00000  Uiso   1.00
C32    C     0.59264   0.56668   0.96925   0.00000  Uiso   1.00
C33    C     0.50622   0.49021   0.05013   0.00000  Uiso   1.00
C34    C     0.50652   0.48710   0.94947   0.00000  Uiso   1.00
C35    C     0.65325   0.66379   0.04205   0.00000  Uiso   1.00
C36    C     0.32706   0.33856   0.95934   0.00000  Uiso   1.00
C37    C     0.64914   0.66821   0.09191   0.00000  Uiso   1.00
C38    C     0.32338   0.34011   0.90989   0.00000  Uiso   1.00
O11    O     0.65085   0.65701   0.19410   0.00000  Uiso   1.00
O12    O     0.34668   0.33051   0.80673   0.00000  Uiso   1.00
C39    C     0.68531   0.63701   0.93738   0.00000  Uiso   1.00
C40    C     0.35825   0.31654   0.06050   0.00000  Uiso   1.00
H7     H     0.29448   0.51310   0.35814   0.00000  Uiso   1.00
H8     H     0.30536   0.52856   0.66544   0.00000  Uiso   1.00
H9     H     0.29499   0.51602   0.27017   0.00000  Uiso   1.00
H10    H     0.30582   0.52956   0.75317   0.00000  Uiso   1.00
H11    H     0.70595   0.73791   0.02177   0.00000  Uiso   1.00
H12    H     0.24824   0.28485   0.98106   0.00000  Uiso   1.00
H13    H     0.76283   0.69398   0.94911   0.00000  Uiso   1.00
H14    H     0.30407   0.24172   0.04746   0.00000  Uiso   1.00
H15    H     0.63299   0.07849   0.49219   0.00000  Uiso   1.00
H16    H     0.38880   0.88830   0.50675   0.00000  Uiso   1.00
C41    C     0.59319   0.84217   0.49470   0.00000  Uiso   1.00
C42    C     0.42860   0.12462   0.50426   0.00000  Uiso   1.00
C43    C     0.49424   0.91921   0.50050   0.00000  Uiso   1.00
C44    C     0.52755   0.04757   0.49844   0.00000  Uiso   1.00
H17    H     0.32372   0.09197   0.51051   0.00000  Uiso   1.00
H18    H     0.69808   0.87482   0.48847   0.00000  Uiso   1.00
H19    H     0.12770   0.41151   0.46844   0.00000  Uiso   1.00
H20    H     0.89410   0.55526   0.53052   0.00000  Uiso   1.00
N3     N     0.86075   0.43467   0.47792   0.00000  Uiso   1.00
N4     N     0.16104   0.53211   0.52104   0.00000  Uiso   1.00
C45    C     0.93770   0.49259   0.50332   0.00000  Uiso   1.00
C46    C     0.08409   0.47419   0.49564   0.00000  Uiso   1.00
H21    H     0.11370   0.59031   0.54619   0.00000  Uiso   1.00
H22    H     0.90809   0.37646   0.45277   0.00000  Uiso   1.00
N5     N     0.71756   0.76531   0.11101   0.00000  Uiso   1.00
C47    C     0.63727   0.85691   0.12468   0.00000  Uiso   1.00
O13    O     0.51443   0.84054   0.13232   0.00000  Uiso   1.00
C48    C     0.69768   0.97865   0.13054   0.00000  Uiso   1.00
H23    H     0.81101   0.79079   0.09169   0.00000  Uiso   1.00
H24    H     0.80993   0.97829   0.12368   0.00000  Uiso   1.00
H25    H     0.66375   0.00956   0.16842   0.00000  Uiso   1.00
H26    H     0.66310   0.04045   0.10431   0.00000  Uiso   1.00
N6     N     0.22104   0.26961   0.89260   0.00000  Uiso   1.00
C49    C     0.10988   0.32992   0.88793   0.00000  Uiso   1.00
O14    O     0.11660   0.43832   0.88581   0.00000  Uiso   1.00
C50    C     0.97801   0.26485   0.88544   0.00000  Uiso   1.00
H27    H     0.19992   0.18677   0.90847   0.00000  Uiso   1.00
H28    H     0.98924   0.16729   0.88647   0.00000  Uiso   1.00
H29    H     0.94271   0.28885   0.85084   0.00000  Uiso   1.00
H30    H     0.90188   0.29087   0.91690   0.00000  Uiso   1.00
