# generated using pymatgen
data_ZnH14C27NO5
_symmetry_space_group_name_H-M   'P 1'
_cell_length_a   9.18028800
_cell_length_b   10.82022400
_cell_length_c   15.79915300
_cell_angle_alpha   90.00000000
_cell_angle_beta   96.06634600
_cell_angle_gamma   90.00000000
_symmetry_Int_Tables_number   1
_chemical_formula_structural   ZnH14C27NO5
_chemical_formula_sum   'Zn2 H28 C54 N2 O10'
_cell_volume   1560.58547581
_cell_formula_units_Z   2
loop_
 _symmetry_equiv_pos_site_id
 _symmetry_equiv_pos_as_xyz
  1  'x, y, z'
loop_
 _atom_site_type_symbol
 _atom_site_label
 _atom_site_symmetry_multiplicity
 _atom_site_fract_x
 _atom_site_fract_y
 _atom_site_fract_z
 _atom_site_occupancy
  Zn  Zn1  1  0.16344100  0.49796400  0.50525100  1
  Zn  Zn2  1  0.83656600  0.49797300  0.49475400  1
  H  H1  1  0.00004400  0.22134500  0.00001500  1
  H  H2  1  0.00001300  0.77562600  0.00000000  1
  H  H3  1  0.99277700  0.08712600  0.63312300  1
  H  H4  1  0.92930500  0.90452000  0.35933100  1
  H  H5  1  0.00725100  0.08712800  0.36688400  1
  H  H6  1  0.07073000  0.90452000  0.64067900  1
  H  H7  1  0.07119900  0.41462800  0.77291600  1
  H  H8  1  0.07340200  0.58782200  0.23862600  1
  H  H9  1  0.92874900  0.41461800  0.22708400  1
  H  H10  1  0.92658500  0.58783500  0.76137600  1
  H  H11  1  0.08493000  0.30750100  0.90310500  1
  H  H12  1  0.08880600  0.69654000  0.11060700  1
  H  H13  1  0.91501800  0.30747700  0.09689400  1
  H  H14  1  0.91117900  0.69655500  0.88939500  1
  H  H15  1  0.38234900  0.67580000  0.43748800  1
  H  H16  1  0.61584900  0.31543100  0.55565400  1
  H  H17  1  0.61764900  0.67576500  0.56257600  1
  H  H18  1  0.38416500  0.31546300  0.44428800  1
  H  H19  1  0.68521900  0.48100100  0.19310000  1
  H  H20  1  0.62684100  0.33117500  0.07872600  1
  H  H21  1  0.41626100  0.19160400  0.08213200  1
  H  H22  1  0.26034500  0.20694500  0.19889700  1
  H  H23  1  0.31286300  0.36024100  0.31035800  1
  H  H24  1  0.31480500  0.48083900  0.80691300  1
  H  H25  1  0.37317000  0.33095200  0.92124800  1
  H  H26  1  0.58371700  0.19135600  0.91779600  1
  H  H27  1  0.73961300  0.20673200  0.80102300  1
  H  H28  1  0.68710800  0.36008700  0.68960200  1
  C  C1  1  0.01394600  0.06210800  0.92371100  1
  C  C2  1  0.00032900  0.93539200  0.07743400  1
  C  C3  1  0.98606900  0.06210300  0.07629700  1
  C  C4  1  0.99968300  0.93539700  0.92257200  1
  C  C5  1  0.00001800  0.12367000  0.00000700  1
  C  C6  1  0.00000800  0.87371800  0.00000200  1
  C  C7  1  0.02404400  0.06215200  0.77082100  1
  C  C8  1  0.98201600  0.93313800  0.22930700  1
  C  C9  1  0.97597100  0.06214800  0.22918700  1
  C  C10  1  0.01800500  0.93314200  0.77070100  1
  C  C11  1  0.01448800  0.12959700  0.69478000  1
  C  C12  1  0.96312300  0.86395500  0.30232000  1
  C  C13  1  0.98552500  0.12959600  0.30522600  1
  C  C14  1  0.03690400  0.86395700  0.69768900  1
  C  C15  1  0.02388300  0.25658800  0.69615200  1
  C  C16  1  0.98733600  0.73827200  0.30366900  1
  C  C17  1  0.97610600  0.25658600  0.30385200  1
  C  C18  1  0.01268400  0.73827400  0.69633800  1
  C  C19  1  0.05367400  0.31618600  0.77202800  1
  C  C20  1  0.03850000  0.68303900  0.23487400  1
  C  C21  1  0.94629100  0.31617800  0.22797400  1
  C  C22  1  0.96150200  0.68304700  0.76513000  1
  C  C23  1  0.05744300  0.25268600  0.84702300  1
  C  C24  1  0.04460500  0.74693900  0.16070500  1
  C  C25  1  0.94252900  0.25267400  0.15298100  1
  C  C26  1  0.95539400  0.74694800  0.83929900  1
  C  C27  1  0.03094400  0.12583800  0.84786900  1
  C  C28  1  0.00636400  0.87133500  0.15485400  1
  C  C29  1  0.96906000  0.12583100  0.15213800  1
  C  C30  1  0.99364700  0.87134100  0.84515100  1
  C  C31  1  0.01235400  0.66431600  0.61898800  1
  C  C32  1  0.98570600  0.33110300  0.38128800  1
  C  C33  1  0.98766300  0.66431600  0.38101900  1
  C  C34  1  0.01428900  0.33110100  0.61871500  1
  C  C35  1  0.43591200  0.59185000  0.46634300  1
  C  C36  1  0.56451200  0.40403900  0.53393100  1
  C  C37  1  0.56409000  0.59183100  0.53369300  1
  C  C38  1  0.43549800  0.40405800  0.46604400  1
  C  C39  1  0.52189700  0.49791300  0.42291100  1
  C  C40  1  0.47810900  0.49785700  0.57709400  1
  C  C41  1  0.54817900  0.51660000  0.33145100  1
  C  C42  1  0.50989500  0.42496200  0.26380400  1
  C  C43  1  0.59314800  0.41962100  0.19589500  1
  C  C44  1  0.56028700  0.33551300  0.13113700  1
  C  C45  1  0.44235600  0.25739200  0.13297000  1
  C  C46  1  0.35549000  0.26558600  0.19863500  1
  C  C47  1  0.38802700  0.34995500  0.26328500  1
  C  C48  1  0.45182300  0.51648900  0.66855900  1
  C  C49  1  0.49010200  0.42481400  0.73618300  1
  C  C50  1  0.40686100  0.41945000  0.80409700  1
  C  C51  1  0.43971600  0.33530600  0.86883400  1
  C  C52  1  0.55762800  0.25717200  0.86697500  1
  C  C53  1  0.64448100  0.26538600  0.80130600  1
  C  C54  1  0.61195200  0.34979100  0.73667700  1
  N  N1  1  0.64418500  0.49818400  0.49009200  1
  N  N2  1  0.35582100  0.49816600  0.50991400  1
  O  O1  1  0.13694200  0.62789500  0.59265800  1
  O  O2  1  0.86216600  0.36916700  0.40687100  1
  O  O3  1  0.86307300  0.62790300  0.40734900  1
  O  O4  1  0.13783200  0.36915800  0.59313300  1
  O  O5  1  0.88509400  0.62081900  0.58797000  1
  O  O6  1  0.11469700  0.37357900  0.41259400  1
  O  O7  1  0.11492000  0.62081200  0.41203600  1
  O  O8  1  0.88530100  0.37358500  0.58741000  1
  O  O9  1  0.60572900  0.61271100  0.31241700  1
  O  O10  1  0.39427000  0.61258700  0.68761700  1
