# Generated by REPEAT Assigner based on pymatgen
data_DB0-m29_o93_o143_f0_pts.sym.10
_audit_creation_date              2022-05-24
_audit_creation_method            REPEAT_Assigner
_cell_length_a                    15.048911
_cell_length_b                    17.004973
_cell_length_c                    11.794435
_cell_angle_alpha                 71.827590
_cell_angle_beta                  100.956749
_cell_angle_gamma                 108.864834
_cell_volume                      2700.287042
_symmetry_space_group_name_H-M    P1
_symmetry_Int_Tables_number       1
loop_
    _symmetry_equiv_pos_site_id
    _symmetry_equiv_pos_as_xyz
    1  x,y,z
loop_
    _atom_site_type_symbol
    _atom_site_label
    _atom_site_fract_x
    _atom_site_fract_y
    _atom_site_fract_z
    _atom_type_partial_charge
    C   C1   0.808173  0.014910  0.191791  -0.074842
    H   H1   0.798400  0.019761  0.277563  0.154598
    C   C2   0.896148  0.018075  0.170706  -0.245589
    H   H2   0.954749  0.026707  0.239023  0.142752
    C   C3   0.909487  0.007714  0.064687  0.372423
    C   C4   0.833982  0.997734  0.976775  -0.130059
    H   H3   0.843324  0.992877  0.890974  0.064905
    C   C5   0.744936  0.995228  0.996699  0.004068
    C   C6   0.731830  0.001131  0.107408  -0.038233
    N   N1   0.000683  0.008222  0.048972  -0.191963
    N   N2   0.003600  0.993180  0.953312  -0.089693
    C   C7   0.107936  0.986075  0.829282  -0.492696
    H   H4   0.049416  0.979510  0.760435  0.175256
    C   C8   0.195660  0.989744  0.806800  0.551505
    C   C9   0.271935  0.000570  0.892430  -0.247431
    C   C10  0.258881  0.004224  0.004599  0.017731
    C   C11  0.169949  0.001540  0.025393  -0.205329
    H   H5   0.160370  0.004569  0.112154  0.109003
    C   C12  0.094629  0.993734  0.936977  0.403421
    O   O1   0.545824  0.117253  0.636982  -0.577119
    C   C13  0.483825  0.126286  0.542655  0.603168
    O   O2   0.431746  0.085144  0.859385  -0.501123
    O   O3   0.406049  0.063557  0.536093  -0.488392
    O   O4   0.377583  0.957982  0.809580  -0.507139
    C   C14  0.364878  0.013161  0.857464  0.632168
    Fe  Fe1  0.503531  0.001737  0.749579  1.345305
    O   O5   0.588168  0.003082  0.902940  -0.419379
    O   O6   0.685007  0.983144  0.796076  -0.438361
    C   C15  0.669036  0.991396  0.896736  0.508916
    O   O7   0.506223  0.925301  0.651427  -0.405427
    O   O8   0.494034  0.829052  0.833927  -0.457569
    C   C16  0.501060  0.846570  0.718923  0.470639
    O   O9   0.496928  0.074781  0.350026  -0.404448
    O   O10  0.506646  0.170451  0.166992  -0.466952
    C   C17  0.500364  0.153103  0.282157  0.477140
    O   O11  0.416917  0.998268  0.097116  -0.417631
    O   O12  0.317921  0.011997  0.207092  -0.467801
    C   C18  0.334745  0.006810  0.104903  0.559329
    O   O13  0.595906  0.935581  0.465514  -0.507910
    O   O14  0.626999  0.041898  0.193805  -0.559151
    C   C19  0.638939  0.988179  0.142650  0.628992
    O   O15  0.456454  0.882833  0.363332  -0.586465
    C   C20  0.517772  0.873326  0.458340  0.634047
    O   O16  0.571540  0.916922  0.138325  -0.495765
    Fe  Fe2  0.500309  0.998574  0.251695  1.368536
    C   C21  0.505752  0.789272  0.546842  0.042805
    C   C22  0.501778  0.720265  0.505974  -0.219662
    H   H6   0.504320  0.730826  0.411305  0.157563
    C   C23  0.496236  0.639481  0.584080  0.132854
    C   C24  0.491955  0.627682  0.704273  -0.150585
    H   H7   0.489295  0.565713  0.768029  0.125599
    C   C25  0.494031  0.695634  0.745700  -0.125420
    H   H8   0.490623  0.683583  0.840482  0.144232
    C   C26  0.501401  0.777274  0.668457  0.027846
    C   C27  0.441615  0.484934  0.586377  -0.131827
    C   C28  0.443824  0.417501  0.546560  -0.110401
    C   C29  0.502040  0.431580  0.460215  0.063313
    C   C30  0.557903  0.514288  0.414271  -0.139076
    C   C31  0.555725  0.581710  0.454116  -0.103522
    C   C32  0.497492  0.567649  0.540439  0.057115
    C   C33  0.507535  0.371559  0.296393  -0.155009
    H   H9   0.509803  0.433443  0.232592  0.125378
    C   C34  0.505917  0.303716  0.255040  -0.115968
    H   H10  0.509263  0.315754  0.160245  0.142927
    C   C35  0.499273  0.222229  0.332429  0.002825
    C   C36  0.494962  0.210220  0.454036  0.064047
    C   C37  0.498378  0.279109  0.494822  -0.220208
    H   H11  0.495956  0.268585  0.589511  0.155773
    C   C38  0.503414  0.359779  0.416618  0.127334
    H   H12  0.393843  0.472299  0.651878  0.114776
    H   H13  0.397445  0.354043  0.581747  0.096953
    H   H14  0.605678  0.526913  0.348777  0.120773
    H   H15  0.602170  0.645141  0.418971  0.099110
    O   O17  0.207779  0.987121  0.696252  -0.461840
    H   H16  0.214532  0.046895  0.645236  0.324864
