# generated using pymatgen
data_ZnH10C20NO6
_symmetry_space_group_name_H-M   'P 1'
_cell_length_a   10.89640100
_cell_length_b   10.87803700
_cell_length_c   13.45430300
_cell_angle_alpha   90.00000000
_cell_angle_beta   90.00000000
_cell_angle_gamma   90.00000000
_symmetry_Int_Tables_number   1
_chemical_formula_structural   ZnH10C20NO6
_chemical_formula_sum   'Zn2 H20 C40 N2 O12'
_cell_volume   1594.75808699
_cell_formula_units_Z   2
loop_
 _symmetry_equiv_pos_site_id
 _symmetry_equiv_pos_as_xyz
  1  'x, y, z'
loop_
 _atom_site_type_symbol
 _atom_site_label
 _atom_site_symmetry_multiplicity
 _atom_site_fract_x
 _atom_site_fract_y
 _atom_site_fract_z
 _atom_site_occupancy
  Zn  Zn1  1  0.48704600  0.49785900  0.88544500  1
  Zn  Zn2  1  0.50704500  0.49716700  0.10905100  1
  H  H1  1  0.09063100  0.68921400  0.98003600  1
  H  H2  1  0.09081400  0.30564400  0.97852400  1
  H  H3  1  0.90340400  0.68951400  0.01657800  1
  H  H4  1  0.90357500  0.30574400  0.01496800  1
  H  H5  1  0.40958700  0.89041500  0.04479900  1
  H  H6  1  0.40959200  0.10472900  0.04441700  1
  H  H7  1  0.58500000  0.89037100  0.94940800  1
  H  H8  1  0.58499800  0.10453600  0.94904800  1
  H  H9  1  0.31884400  0.49501500  0.24024300  1
  H  H10  1  0.28993300  0.50055400  0.74229700  1
  H  H11  1  0.67236100  0.49525800  0.75240700  1
  H  H12  1  0.70128400  0.49985800  0.25434400  1
  H  H13  1  0.29986900  0.49559700  0.41388000  1
  H  H14  1  0.29018600  0.50011900  0.56628800  1
  H  H15  1  0.93756200  0.61578800  0.80498700  1
  H  H16  1  0.01342800  0.68712900  0.70075200  1
  H  H17  1  0.02060200  0.52295500  0.71694300  1
  H  H18  1  0.99443400  0.30698400  0.26243000  1
  H  H19  1  0.05821700  0.39726100  0.36256600  1
  H  H20  1  0.99526400  0.47265800  0.25341100  1
  C  C1  1  0.25518600  0.78027200  0.01108500  1
  C  C2  1  0.25528700  0.21467000  0.00996300  1
  C  C3  1  0.31205500  0.88937700  0.03133400  1
  C  C4  1  0.31209300  0.10569900  0.03079400  1
  C  C5  1  0.24802900  0.99753300  0.02493100  1
  C  C6  1  0.13006300  0.77750500  0.99684200  1
  C  C7  1  0.13019000  0.21742500  0.99566100  1
  C  C8  1  0.06107400  0.88591600  0.00165700  1
  C  C9  1  0.06114100  0.10910700  0.00101400  1
  C  C10  1  0.12274700  0.99751900  0.00913300  1
  C  C11  1  0.86413100  0.77770700  0.99919400  1
  C  C12  1  0.86426200  0.21746200  0.99794300  1
  C  C13  1  0.93326000  0.88595600  0.99375900  1
  C  C14  1  0.93332900  0.10911500  0.99309900  1
  C  C15  1  0.87170000  0.99752400  0.98546500  1
  C  C16  1  0.73909900  0.78050400  0.98450600  1
  C  C17  1  0.73919500  0.21461700  0.98338500  1
  C  C18  1  0.68244100  0.88939300  0.96330600  1
  C  C19  1  0.68247400  0.10559000  0.96277500  1
  C  C20  1  0.74649100  0.99750000  0.96932800  1
  C  C21  1  0.33119900  0.66994200  0.00425500  1
  C  C22  1  0.33123900  0.32502400  0.00335500  1
  C  C23  1  0.66301600  0.67031000  0.99111100  1
  C  C24  1  0.66304400  0.32477000  0.99021700  1
  C  C25  1  0.61528100  0.49695300  0.29382000  1
  C  C26  1  0.59064900  0.49797300  0.70752000  1
  C  C27  1  0.40185300  0.49537800  0.28408100  1
  C  C28  1  0.37686500  0.49989800  0.70362800  1
  C  C29  1  0.39197400  0.49577800  0.38559600  1
  C  C30  1  0.37872600  0.49962800  0.60129200  1
  C  C31  1  0.49621300  0.49646800  0.44496400  1
  C  C32  1  0.48971400  0.49863600  0.54926800  1
  C  C33  1  0.60974100  0.49510800  0.39756500  1
  C  C34  1  0.59723000  0.49961700  0.60428800  1
  C  C35  1  0.71048600  0.49879300  0.55642200  1
  C  C36  1  0.71668900  0.49516300  0.45376900  1
  C  C37  1  0.82577900  0.49811600  0.61329300  1
  C  C38  1  0.96134600  0.60498600  0.72533400  1
  C  C39  1  0.83805400  0.49411700  0.40586100  1
  C  C40  1  0.98534300  0.39377100  0.30505100  1
  N  N1  1  0.51192400  0.49655500  0.23936600  1
  N  N2  1  0.48206800  0.49845900  0.75513200  1
  O  O1  1  0.38031900  0.62887100  0.08665500  1
  O  O2  1  0.36111400  0.62812600  0.91582500  1
  O  O3  1  0.36109200  0.36734000  0.91506400  1
  O  O4  1  0.38036600  0.36564000  0.08587300  1
  O  O5  1  0.61375600  0.62989800  0.90851900  1
  O  O6  1  0.63293000  0.62828700  0.07948700  1
  O  O7  1  0.63298700  0.36637400  0.07872100  1
  O  O8  1  0.61368600  0.36553600  0.90776500  1
  O  O9  1  0.89500300  0.41029600  0.60677900  1
  O  O10  1  0.85501600  0.59607900  0.67060300  1
  O  O11  1  0.90880300  0.57963700  0.41857600  1
  O  O12  1  0.87211600  0.39737100  0.34949500  1
