# Generated by REPEAT Assigner based on pymatgen
data_DB0-m3_o13_o18_f0_pcu.sym.44
_audit_creation_date              2022-05-24
_audit_creation_method            REPEAT_Assigner
_cell_length_a                    11.896112
_cell_length_b                    13.292130
_cell_length_c                    16.069309
_cell_angle_alpha                 88.388280
_cell_angle_beta                  111.458799
_cell_angle_gamma                 91.173907
_cell_volume                      2363.739768
_symmetry_space_group_name_H-M    P1
_symmetry_Int_Tables_number       1
loop_
    _symmetry_equiv_pos_site_id
    _symmetry_equiv_pos_as_xyz
    1  x,y,z
loop_
    _atom_site_type_symbol
    _atom_site_label
    _atom_site_fract_x
    _atom_site_fract_y
    _atom_site_fract_z
    _atom_type_partial_charge
    O   O1   0.593744  0.351068  0.511650  -0.582072
    O   O2   0.405011  0.651761  0.487969  -0.582419
    O   O3   0.395841  0.352010  0.499637  -0.649577
    O   O4   0.602915  0.650820  0.499982  -0.649014
    C   C1   0.494635  0.303230  0.507780  0.722485
    C   C2   0.504120  0.699599  0.491838  0.721672
    O   O5   0.648888  0.504463  0.638529  -0.668552
    O   O6   0.349868  0.498370  0.361091  -0.669569
    O   O7   0.450267  0.505522  0.626218  -0.610086
    O   O8   0.548489  0.497310  0.373401  -0.610428
    C   C3   0.566171  0.506054  0.674323  0.679611
    C   C4   0.432584  0.496782  0.325296  0.683357
    Zn  Zn1  0.630430  0.500277  0.508259  1.009510
    Zn  Zn2  0.368325  0.502553  0.491361  1.010409
    C   C5   0.605814  0.507653  0.772315  -0.062976
    C   C6   0.392939  0.495260  0.227302  -0.069344
    C   C7   0.764675  0.511936  0.914671  -0.331898
    C   C8   0.234072  0.491191  0.084939  -0.333643
    C   C9   0.727343  0.511344  0.823253  -0.028994
    C   C10  0.271406  0.491688  0.176360  -0.023796
    C   C11  0.522223  0.504645  0.813892  -0.178636
    C   C12  0.476530  0.498258  0.185725  -0.175718
    C   C13  0.558920  0.504955  0.907212  0.001437
    C   C14  0.439829  0.498099  0.092401  0.000245
    C   C15  0.681713  0.508631  0.956222  0.338411
    C   C16  0.317033  0.494504  0.043389  0.341878
    C   C17  0.477462  0.501488  0.952896  0.062348
    C   C18  0.521285  0.501622  0.046716  0.059917
    C   C19  0.645765  0.505348  0.092588  -0.171789
    C   C20  0.352980  0.497867  0.907021  -0.170857
    C   C21  0.723825  0.508869  0.047700  -0.315844
    C   C22  0.274919  0.494368  0.951909  -0.318436
    H   H1   0.819883  0.511692  0.085598  0.147099
    H   H2   0.178857  0.491637  0.914009  0.147725
    H   H3   0.569593  0.501195  0.228950  0.117954
    H   H4   0.429166  0.501534  0.770673  0.118856
    H   H5   0.204105  0.489233  0.206856  0.093857
    H   H6   0.794643  0.513813  0.792756  0.095457
    H   H7   0.860312  0.514794  0.953976  0.146683
    H   H8   0.138432  0.488411  0.045633  0.146268
    H   H9   0.688333  0.505678  0.164066  0.150048
    H   H10  0.310409  0.497667  0.835540  0.149376
    C   C23  0.508660  0.811732  0.488010  -0.151800
    C   C24  0.490093  0.191096  0.511603  -0.154182
    C   C25  0.370822  0.047243  0.522879  -0.235855
    C   C26  0.627926  0.955585  0.476728  -0.235610
    C   C27  0.389861  0.149102  0.523276  -0.090881
    C   C28  0.608890  0.853726  0.476335  -0.092482
    C   C29  0.577093  0.125693  0.503293  0.019531
    C   C30  0.421657  0.877135  0.496316  0.019649
    C   C31  0.551442  0.021331  0.495283  0.110987
    C   C32  0.447308  0.981497  0.504325  0.110432
    H   H11  0.674614  0.807370  0.464283  0.087091
    H   H12  0.324137  0.195458  0.535328  0.087317
    H   H13  0.293545  0.022938  0.538108  0.155328
    H   H14  0.705201  0.979890  0.461496  0.155564
    N   N1   0.803966  0.496646  0.520823  -0.099394
    N   N2   0.194789  0.506183  0.478797  -0.101574
    C   C33  0.994887  0.557397  0.394455  -0.323318
    C   C34  0.003869  0.445431  0.605164  -0.320053
    C   C35  0.114366  0.548741  0.404163  0.110159
    C   C36  0.884390  0.454088  0.595457  0.107476
    C   C37  0.159738  0.471461  0.545197  -0.060641
    C   C38  0.839018  0.531368  0.454423  -0.062367
    C   C39  0.040843  0.479805  0.537617  0.235979
    C   C40  0.957912  0.523023  0.462003  0.240088
    H   H15  0.773634  0.564845  0.394722  0.130434
    H   H16  0.225122  0.437984  0.604897  0.130416
    H   H17  0.855194  0.425112  0.647810  0.119055
    H   H18  0.143561  0.577717  0.351809  0.118555
    H   H19  0.931338  0.591916  0.334411  0.157180
    H   H20  0.067418  0.410912  0.665208  0.156404
    C   C41  0.299428  0.838539  0.492496  -0.044140
    C   C42  0.302594  0.808940  0.585624  0.004584
    C   C43  0.176074  0.782926  0.581852  0.202149
    C   C44  0.180103  0.748334  0.673583  -0.251820
    H   H21  0.266084  0.776100  0.445714  0.015644
    H   H22  0.227917  0.894377  0.460845  0.000076
    H   H23  0.338954  0.872323  0.631548  -0.013246
    H   H24  0.361907  0.743227  0.612082  0.019383
    H   H25  0.137441  0.721803  0.533823  -0.070010
    H   H26  0.118120  0.850249  0.559963  -0.027229
    H   H27  0.236059  0.679888  0.695523  0.042071
    H   H28  0.087084  0.730628  0.670285  0.028186
    H   H29  0.219151  0.808882  0.722274  0.061798
    C   C45  0.699318  0.164291  0.507105  -0.041549
    C   C46  0.696135  0.193894  0.413974  0.002991
    C   C47  0.822645  0.219936  0.417736  0.197219
    C   C48  0.818595  0.254528  0.326000  -0.250171
    H   H30  0.770832  0.108454  0.538749  -0.000245
    H   H31  0.732667  0.226728  0.553887  0.014769
    H   H32  0.636801  0.259595  0.387515  0.019736
    H   H33  0.659790  0.130505  0.368053  -0.012424
    H   H34  0.880621  0.152626  0.439628  -0.025933
    H   H35  0.861262  0.281068  0.465759  -0.068059
    H   H36  0.779558  0.193973  0.277314  0.061571
    H   H37  0.911607  0.272251  0.329291  0.028094
    H   H38  0.762620  0.322963  0.304059  0.042113
