# generated using pymatgen
data_ZnH9C15N(ClO2)2
_symmetry_space_group_name_H-M   'P 1'
_cell_length_a   12.34508200
_cell_length_b   14.16801200
_cell_length_c   6.49607300
_cell_angle_alpha   90.00000000
_cell_angle_beta   80.05134300
_cell_angle_gamma   90.00000000
_symmetry_Int_Tables_number   1
_chemical_formula_structural   ZnH9C15N(ClO2)2
_chemical_formula_sum   'Zn2 H18 C30 N2 Cl4 O8'
_cell_volume   1119.11236079
_cell_formula_units_Z   2
loop_
 _symmetry_equiv_pos_site_id
 _symmetry_equiv_pos_as_xyz
  1  'x, y, z'
loop_
 _atom_site_type_symbol
 _atom_site_label
 _atom_site_symmetry_multiplicity
 _atom_site_fract_x
 _atom_site_fract_y
 _atom_site_fract_z
 _atom_site_occupancy
  Zn  Zn1  1  0.50738000  0.10031800  0.52730300  1
  Zn  Zn2  1  0.49518800  0.89060100  0.47111600  1
  H  H1  1  0.15506000  0.09185800  0.44420700  1
  H  H2  1  0.92859400  0.01162900  0.47558800  1
  H  H3  1  0.96375300  0.13458500  0.46070900  1
  H  H4  1  0.77766300  0.08562400  0.36428000  1
  H  H5  1  0.86492100  0.16279000  0.18786700  1
  H  H6  1  0.13898600  0.82832500  0.80963600  1
  H  H7  1  0.22504200  0.90634800  0.63346200  1
  H  H8  1  0.03869800  0.85572400  0.53921300  1
  H  H9  1  0.07348700  0.97872400  0.52230300  1
  H  H10  1  0.84713800  0.89870200  0.55542000  1
  H  H11  1  0.61835800  0.42779100  0.73311000  1
  H  H12  1  0.63894400  0.57976900  0.61969500  1
  H  H13  1  0.36967400  0.41027600  0.34982800  1
  H  H14  1  0.33616500  0.56791200  0.38339100  1
  H  H15  1  0.33034400  0.40604900  0.63164400  1
  H  H16  1  0.33708100  0.56586300  0.66215600  1
  H  H17  1  0.56763100  0.39330000  0.18719100  1
  H  H18  1  0.51534600  0.54534800  0.14610000  1
  C  C1  1  0.25003700  0.02782700  0.17557400  1
  C  C2  1  0.15359500  0.06041200  0.29294100  1
  C  C3  1  0.05497100  0.04877400  0.22286400  1
  C  C4  1  0.95083800  0.07134200  0.36733700  1
  C  C5  1  0.85627700  0.09020500  0.25247700  1
  C  C6  1  0.24802700  0.98518200  0.98584700  1
  C  C7  1  0.14908800  0.96783900  0.92191400  1
  C  C8  1  0.05302300  0.00255300  0.03633700  1
  C  C9  1  0.94964000  0.98835300  0.96246800  1
  C  C10  1  0.85364700  0.02318600  0.07689400  1
  C  C11  1  0.75464300  0.00574800  0.01347500  1
  C  C12  1  0.14666400  0.90106100  0.74575000  1
  C  C13  1  0.05162400  0.91930100  0.63156600  1
  C  C14  1  0.94755000  0.94198800  0.77618700  1
  C  C15  1  0.84879800  0.93034600  0.70642000  1
  C  C16  1  0.75241500  0.96303400  0.82393900  1
  C  C17  1  0.34684000  0.01716000  0.27527000  1
  C  C18  1  0.34728500  0.98502400  0.82802300  1
  C  C19  1  0.65544800  0.97371500  0.72457500  1
  C  C20  1  0.65559600  0.00583800  0.17169300  1
  C  C21  1  0.58260900  0.43707300  0.32101100  1
  C  C22  1  0.56224700  0.53992200  0.27662700  1
  C  C23  1  0.53880800  0.45638800  0.70373100  1
  C  C24  1  0.55052800  0.56094300  0.65689900  1
  C  C25  1  0.50543200  0.40736300  0.51770600  1
  C  C26  1  0.49617200  0.58389800  0.47072000  1
  C  C27  1  0.38121800  0.54306300  0.50679600  1
  C  C28  1  0.38927200  0.43641100  0.50008700  1
  C  C29  1  0.49158600  0.68646900  0.44724200  1
  C  C30  1  0.51024200  0.30483100  0.54194700  1
  N  N1  1  0.48942100  0.76795600  0.43684800  1
  N  N2  1  0.51265200  0.22340400  0.55413900  1
  Cl  Cl1  1  0.69017500  0.59956100  0.20909100  1
  Cl  Cl2  1  0.72093700  0.42224300  0.35820600  1
  Cl  Cl3  1  0.43572200  0.43829200  0.92762700  1
  Cl  Cl4  1  0.48645400  0.62638000  0.87839600  1
  O  O1  1  0.37993900  0.93088700  0.30457800  1
  O  O2  1  0.38785200  0.09186100  0.35272300  1
  O  O3  1  0.39003300  0.06798400  0.77289700  1
  O  O4  1  0.37782900  0.90685900  0.72596300  1
  O  O5  1  0.62243400  0.05997900  0.69495600  1
  O  O6  1  0.61449300  0.89906800  0.64687300  1
  O  O7  1  0.61269700  0.92288500  0.22645100  1
  O  O8  1  0.62487400  0.08407000  0.27333500  1
