# generated using pymatgen
data_ZnH14C20N3O4
_symmetry_space_group_name_H-M   'P 1'
_cell_length_a   12.04285800
_cell_length_b   13.09966400
_cell_length_c   19.32815000
_cell_angle_alpha   89.99871300
_cell_angle_beta   85.79503600
_cell_angle_gamma   91.20585300
_symmetry_Int_Tables_number   1
_chemical_formula_structural   ZnH14C20N3O4
_chemical_formula_sum   'Zn2 H28 C40 N6 O8'
_cell_volume   3040.27341965
_cell_formula_units_Z   2
loop_
 _symmetry_equiv_pos_site_id
 _symmetry_equiv_pos_as_xyz
  1  'x, y, z'
loop_
 _atom_site_type_symbol
 _atom_site_label
 _atom_site_symmetry_multiplicity
 _atom_site_fract_x
 _atom_site_fract_y
 _atom_site_fract_z
 _atom_site_occupancy
  Zn  Zn1  1  0.37302600  0.50324300  0.50442600  1
  Zn  Zn2  1  0.62592800  0.49217100  0.49817000  1
  H  H1  1  0.31417900  0.52794400  0.73198800  1
  H  H2  1  0.67505800  0.43691900  0.27171600  1
  H  H3  1  0.31819400  0.52851800  0.85740000  1
  H  H4  1  0.67296500  0.43947200  0.14611600  1
  H  H5  1  0.66800100  0.47145000  0.83672900  1
  H  H6  1  0.34823900  0.56852500  0.16500100  1
  H  H7  1  0.66395600  0.47152100  0.71272200  1
  H  H8  1  0.35274700  0.56848200  0.28934700  1
  H  H9  1  0.64385100  0.15782400  0.47008700  1
  H  H10  1  0.35411900  0.83755600  0.53137300  1
  H  H11  1  0.30217900  0.18871600  0.54278300  1
  H  H12  1  0.69169000  0.80698800  0.45109200  1
  H  H13  1  0.71632700  0.99136300  0.44926800  1
  H  H14  1  0.27898300  0.00425400  0.54683600  1
  H  H15  1  0.21881400  0.61381200  0.58620800  1
  H  H16  1  0.77890300  0.36913000  0.42503900  1
  H  H17  1  0.97234400  0.34086100  0.40907400  1
  H  H18  1  0.02476800  0.63517400  0.60676500  1
  H  H19  1  0.08998900  0.40108500  0.32218500  1
  H  H20  1  0.18202100  0.50570300  0.34193400  1
  H  H21  1  0.23740700  0.38888500  0.30436900  1
  H  H22  1  0.27371100  0.37049600  0.41824900  1
  H  H23  1  0.14742200  0.30129700  0.41910200  1
  H  H24  1  0.92544300  0.76287500  0.56809100  1
  H  H25  1  0.84749900  0.73088300  0.49457400  1
  H  H26  1  0.77937300  0.78751500  0.57164600  1
  H  H27  1  0.72485600  0.62136900  0.58684400  1
  H  H28  1  0.84352100  0.62003900  0.63441300  1
  C  C1  1  0.51094800  0.69750300  0.49811100  1
  C  C2  1  0.48771200  0.29792100  0.50388700  1
  C  C3  1  0.48872500  0.49996600  0.63712000  1
  C  C4  1  0.51063900  0.49627300  0.36552000  1
  C  C5  1  0.39216200  0.51537600  0.75465600  1
  C  C6  1  0.60327300  0.46635000  0.24850600  1
  C  C7  1  0.39467700  0.51593000  0.82604300  1
  C  C8  1  0.60178400  0.46768000  0.17706900  1
  C  C9  1  0.49346300  0.50000300  0.85651600  1
  C  C10  1  0.50969900  0.50286000  0.14610600  1
  C  C11  1  0.58946100  0.48382600  0.81473900  1
  C  C12  1  0.42052100  0.53874500  0.18740700  1
  C  C13  1  0.58711700  0.48419600  0.74367600  1
  C  C14  1  0.42245100  0.53778500  0.25849100  1
  C  C15  1  0.48861000  0.49984700  0.71306300  1
  C  C16  1  0.51262800  0.49991200  0.28958600  1
  C  C17  1  0.50574500  0.50221500  0.07033700  1
  C  C18  1  0.49735300  0.50045800  0.93229400  1
  C  C19  1  0.47522700  0.18635400  0.50647400  1
  C  C20  1  0.52223900  0.80913000  0.49364800  1
  C  C21  1  0.63670500  0.95805300  0.46765500  1
  C  C22  1  0.35925600  0.03755100  0.52982200  1
  C  C23  1  0.62288600  0.85346200  0.46953400  1
  C  C24  1  0.37274800  0.14221200  0.52729000  1
  C  C25  1  0.43375100  0.87088500  0.51308200  1
  C  C26  1  0.56370900  0.12453700  0.48734600  1
  C  C27  1  0.44745000  0.97592800  0.51046700  1
  C  C28  1  0.54932500  0.01958000  0.48870700  1
  C  C29  1  0.94678900  0.40152200  0.44380400  1
  C  C30  1  0.05123600  0.58402400  0.56556300  1
  C  C31  1  0.83431300  0.41635500  0.45346700  1
  C  C32  1  0.16385600  0.57098400  0.55473900  1
  C  C33  1  0.86225500  0.54658700  0.53362900  1
  C  C34  1  0.13692000  0.45061900  0.46775800  1
  C  C35  1  0.97764200  0.53138700  0.52598100  1
  C  C36  1  0.02106900  0.46114100  0.47857700  1
  C  C37  1  0.18461800  0.37918300  0.41310800  1
  C  C38  1  0.17223300  0.42144800  0.34088800  1
  C  C39  1  0.81567700  0.62817500  0.58132800  1
  C  C40  1  0.84432700  0.73393100  0.55197000  1
  N  N1  1  0.59159300  0.47567900  0.96113000  1
  N  N2  1  0.41151100  0.52702300  0.04150300  1
  N  N3  1  0.59573600  0.47632500  0.02929100  1
  N  N4  1  0.40726300  0.52606900  0.97335000  1
  N  N5  1  0.20645800  0.50652300  0.50621700  1
  N  N6  1  0.79244300  0.48840500  0.49677100  1
  O  O1  1  0.41084800  0.65479800  0.50306400  1
  O  O2  1  0.58780500  0.34061900  0.49951700  1
  O  O3  1  0.60269400  0.64483400  0.49572800  1
  O  O4  1  0.39645600  0.35069500  0.50656000  1
  O  O5  1  0.39417500  0.50556800  0.60754400  1
  O  O6  1  0.60513800  0.48976900  0.39505700  1
  O  O7  1  0.58523400  0.49386900  0.60168600  1
  O  O8  1  0.41351400  0.50200000  0.40080300  1
