data_DB0-m3_o96_o6_f0_fsc.sym.45_repeat
_audit_creation_date              2024-02-23
_audit_creation_method            'Materials Studio'
_symmetry_space_group_name_H-M    'P1'
_symmetry_Int_Tables_number       1
_symmetry_cell_setting            triclinic
loop_
_symmetry_equiv_pos_as_xyz
  x,y,z
_cell_length_a                    13.1038
_cell_length_b                    13.7780
_cell_length_c                    15.9452
_cell_angle_alpha                 94.5572
_cell_angle_beta                  90.0463
_cell_angle_gamma                 90.6407
loop_
_atom_site_label
_atom_site_type_symbol
_atom_site_fract_x
_atom_site_fract_y
_atom_site_fract_z
_atom_site_U_iso_or_equiv
_atom_site_adp_type
_atom_site_occupancy
C1     C     0.82766   0.06389   0.22177   0.00000  Uiso   1.00
C2     C     0.17238   0.93595   0.77807   0.00000  Uiso   1.00
C3     C     0.77351   0.11496   0.16790   0.00000  Uiso   1.00
C4     C     0.22654   0.88488   0.83194   0.00000  Uiso   1.00
C5     C     0.82445   0.10840   0.09219   0.00000  Uiso   1.00
C6     C     0.17559   0.89144   0.90765   0.00000  Uiso   1.00
N1     N     0.91148   0.05782   0.09944   0.00000  Uiso   1.00
N2     N     0.08856   0.94202   0.90039   0.00000  Uiso   1.00
C7     C     0.91427   0.03215   0.17971   0.00000  Uiso   1.00
C8     C     0.08578   0.96769   0.82013   0.00000  Uiso   1.00
C9     C     0.78645   0.13832   0.02076   0.00000  Uiso   1.00
C10    C     0.21360   0.86153   0.97908   0.00000  Uiso   1.00
C11    C     0.82343   0.10631   0.93603   0.00000  Uiso   1.00
C12    C     0.17662   0.89354   0.06380   0.00000  Uiso   1.00
C13    C     0.76300   0.09703   0.86475   0.00000  Uiso   1.00
C14    C     0.23705   0.90281   0.13509   0.00000  Uiso   1.00
C15    C     0.82115   0.05783   0.80034   0.00000  Uiso   1.00
C16    C     0.17889   0.94201   0.19950   0.00000  Uiso   1.00
C17    C     0.91771   0.04558   0.83341   0.00000  Uiso   1.00
C18    C     0.08234   0.95426   0.16643   0.00000  Uiso   1.00
N3     N     0.91842   0.07606   0.91616   0.00000  Uiso   1.00
N4     N     0.08162   0.92378   0.08368   0.00000  Uiso   1.00
C19    C     0.00838   0.01296   0.78571   0.00000  Uiso   1.00
C20    C     0.99167   0.98688   0.21413   0.00000  Uiso   1.00
H1     H     0.71457   0.17590   0.02370   0.00000  Uiso   1.00
H2     H     0.28547   0.82394   0.97614   0.00000  Uiso   1.00
H3     H     0.00964   0.02254   0.71898   0.00000  Uiso   1.00
H4     H     0.99041   0.97730   0.28085   0.00000  Uiso   1.00
H5     H     0.98165   0.08140   0.95587   0.00000  Uiso   1.00
H6     H     0.01840   0.91844   0.04397   0.00000  Uiso   1.00
C21    C     0.33760   0.88025   0.14639   0.00000  Uiso   1.00
C22    C     0.66245   0.11959   0.85345   0.00000  Uiso   1.00
C23    C     0.37886   0.89842   0.22589   0.00000  Uiso   1.00
C24    C     0.62118   0.10142   0.77395   0.00000  Uiso   1.00
C25    C     0.32187   0.94189   0.29199   0.00000  Uiso   1.00
C26    C     0.67818   0.05795   0.70785   0.00000  Uiso   1.00
C27    C     0.21980   0.96460   0.27909   0.00000  Uiso   1.00
C28    C     0.78025   0.03524   0.72075   0.00000  Uiso   1.00
C29    C     0.78848   0.04193   0.29819   0.00000  Uiso   1.00
C30    C     0.21157   0.95791   0.70164   0.00000  Uiso   1.00
C31    C     0.69312   0.07795   0.31971   0.00000  Uiso   1.00
C32    C     0.30692   0.92188   0.68013   0.00000  Uiso   1.00
C33    C     0.64231   0.13782   0.26749   0.00000  Uiso   1.00
C34    C     0.35774   0.86202   0.73235   0.00000  Uiso   1.00
C35    C     0.68122   0.15528   0.18994   0.00000  Uiso   1.00
C36    C     0.31883   0.84456   0.80990   0.00000  Uiso   1.00
H7     H     0.38402   0.84887   0.09551   0.00000  Uiso   1.00
H8     H     0.61603   0.15097   0.90432   0.00000  Uiso   1.00
H9     H     0.17422   0.99804   0.32970   0.00000  Uiso   1.00
H10    H     0.82582   0.00180   0.67014   0.00000  Uiso   1.00
H11    H     0.82741   0.99444   0.33813   0.00000  Uiso   1.00
H12    H     0.17264   0.00540   0.66170   0.00000  Uiso   1.00
H13    H     0.56737   0.16517   0.28391   0.00000  Uiso   1.00
H14    H     0.43267   0.83467   0.71593   0.00000  Uiso   1.00
H15    H     0.63752   0.19669   0.14811   0.00000  Uiso   1.00
H16    H     0.36253   0.80315   0.85173   0.00000  Uiso   1.00
H17    H     0.45815   0.88155   0.23566   0.00000  Uiso   1.00
H18    H     0.54190   0.11829   0.76418   0.00000  Uiso   1.00
O1     O     0.37260   0.05134   0.41081   0.00000  Uiso   1.00
O2     O     0.62744   0.94850   0.58903   0.00000  Uiso   1.00
O3     O     0.43512   0.89530   0.39752   0.00000  Uiso   1.00
O4     O     0.56492   0.10454   0.60232   0.00000  Uiso   1.00
C37    C     0.37462   0.96289   0.37310   0.00000  Uiso   1.00
C38    C     0.62542   0.03695   0.62674   0.00000  Uiso   1.00
O5     O     0.63754   0.95576   0.40883   0.00000  Uiso   1.00
O6     O     0.36251   0.04408   0.59101   0.00000  Uiso   1.00
O7     O     0.57523   0.11178   0.42772   0.00000  Uiso   1.00
O8     O     0.42482   0.88805   0.57212   0.00000  Uiso   1.00
C39    C     0.63777   0.04784   0.39243   0.00000  Uiso   1.00
C40    C     0.36228   0.95200   0.60741   0.00000  Uiso   1.00
Zn1    Zn    0.54015   0.89879   0.49011   0.00000  Uiso   1.00
Zn2    Zn    0.45990   0.10104   0.50973   0.00000  Uiso   1.00
C41    C     0.56987   0.42945   0.51413   0.00000  Uiso   1.00
C42    C     0.43017   0.57040   0.48575   0.00000  Uiso   1.00
H19    H     0.62257   0.37195   0.52471   0.00000  Uiso   1.00
H20    H     0.37748   0.62789   0.47514   0.00000  Uiso   1.00
C43    C     0.46699   0.40608   0.51036   0.00000  Uiso   1.00
C44    C     0.53306   0.59376   0.48953   0.00000  Uiso   1.00
C45    C     0.39631   0.47635   0.49583   0.00000  Uiso   1.00
C46    C     0.60374   0.52350   0.50408   0.00000  Uiso   1.00
C47    C     0.43738   0.30606   0.51686   0.00000  Uiso   1.00
C48    C     0.56267   0.69379   0.48299   0.00000  Uiso   1.00
N5     N     0.57744   0.77645   0.47997   0.00000  Uiso   1.00
N6     N     0.42260   0.22339   0.51987   0.00000  Uiso   1.00
C49    C     0.71467   0.55064   0.50880   0.00000  Uiso   1.00
O9     O     0.77411   0.47020   0.52281   0.00000  Uiso   1.00
H21    H     0.72734   0.60745   0.56117   0.00000  Uiso   1.00
H22    H     0.73891   0.57970   0.44894   0.00000  Uiso   1.00
H23    H     0.80514   0.48643   0.57887   0.00000  Uiso   1.00
C50    C     0.28537   0.44921   0.49110   0.00000  Uiso   1.00
O10    O     0.22589   0.52976   0.47752   0.00000  Uiso   1.00
H24    H     0.26153   0.42024   0.55110   0.00000  Uiso   1.00
H25    H     0.27228   0.39235   0.43884   0.00000  Uiso   1.00
H26    H     0.18514   0.54096   0.52957   0.00000  Uiso   1.00
