# generated using pymatgen
data_FeH10C26N2ClO8
_symmetry_space_group_name_H-M   'P 1'
_cell_length_a   16.12041200
_cell_length_b   9.42677300
_cell_length_c   19.16693100
_cell_angle_alpha   85.71556800
_cell_angle_beta   83.73586500
_cell_angle_gamma   108.62782400
_symmetry_Int_Tables_number   1
_chemical_formula_structural   FeH10C26N2ClO8
_chemical_formula_sum   'Fe2 H20 C52 N4 Cl2 O16'
_cell_volume   2724.98748349
_cell_formula_units_Z   2
loop_
 _symmetry_equiv_pos_site_id
 _symmetry_equiv_pos_as_xyz
  1  'x, y, z'
loop_
 _atom_site_type_symbol
 _atom_site_label
 _atom_site_symmetry_multiplicity
 _atom_site_fract_x
 _atom_site_fract_y
 _atom_site_fract_z
 _atom_site_occupancy
  Fe  Fe1  1  0.51063600  0.01151100  0.09987900  1
  Fe  Fe2  1  0.49435000  0.97290700  0.84499200  1
  H  H1  1  0.92409600  0.94225000  0.85809700  1
  H  H2  1  0.16478000  0.88368400  0.88994900  1
  H  H3  1  0.02705600  0.90903900  0.90360300  1
  H  H4  1  0.21885800  0.08047700  0.11647500  1
  H  H5  1  0.07907100  0.11845400  0.12734900  1
  H  H6  1  0.94543000  0.17023400  0.13634500  1
  H  H7  1  0.81041200  0.16354100  0.09387800  1
  H  H8  1  0.48453900  0.50426100  0.82189300  1
  H  H9  1  0.49372200  0.25912000  0.64404800  1
  H  H10  1  0.50600200  0.72045100  0.61608000  1
  H  H11  1  0.48403700  0.25159100  0.33215400  1
  H  H12  1  0.50794800  0.46813900  0.12643700  1
  H  H13  1  0.41321400  0.97068900  0.38712400  1
  H  H14  1  0.56532100  0.12083400  0.40100700  1
  H  H15  1  0.68988700  0.04110200  0.35573000  1
  H  H16  1  0.66246700  0.80794300  0.29912300  1
  H  H17  1  0.74181600  0.04911500  0.64518000  1
  H  H18  1  0.74547300  0.80089700  0.61675700  1
  H  H19  1  0.77633600  0.62988700  0.70585400  1
  H  H20  1  0.80141000  0.70528800  0.82374900  1
  C  C1  1  0.87711200  0.96704100  0.89512900  1
  C  C2  1  0.25759100  0.94115500  0.96362300  1
  C  C3  1  0.17683600  0.92373800  0.94047200  1
  C  C4  1  0.11322500  0.96715700  0.97864300  1
  C  C5  1  0.03579500  0.95881900  0.95201000  1
  C  C6  1  0.97325300  0.01191400  0.98724600  1
  C  C7  1  0.79915800  0.96348700  0.87149700  1
  C  C8  1  0.73389200  0.99285700  0.91446600  1
  C  C9  1  0.89440400  0.00917900  0.96138900  1
  C  C10  1  0.83126800  0.05068700  0.00269400  1
  C  C11  1  0.74807900  0.03119400  0.98192700  1
  C  C12  1  0.27150000  0.99323800  0.02911900  1
  C  C13  1  0.20680100  0.03477500  0.06704800  1
  C  C14  1  0.12870900  0.02405500  0.04143200  1
  C  C15  1  0.06678100  0.07316000  0.07786900  1
  C  C16  1  0.98994200  0.06770700  0.05096000  1
  C  C17  1  0.93082800  0.12162900  0.08793700  1
  C  C18  1  0.85241500  0.11350300  0.06426000  1
  C  C19  1  0.67262400  0.02506000  0.03500600  1
  C  C20  1  0.50951800  0.73743000  0.15933500  1
  C  C21  1  0.35641800  0.02642500  0.05618900  1
  C  C22  1  0.49474100  0.20921700  0.19717200  1
  C  C23  1  0.50103100  0.76685100  0.74987000  1
  C  C24  1  0.64675100  0.95683900  0.89139200  1
  C  C25  1  0.48766500  0.23716900  0.78634300  1
  C  C26  1  0.32915200  0.92737100  0.91261900  1
  C  C27  1  0.48948600  0.36722000  0.73807400  1
  C  C28  1  0.49415200  0.36192400  0.66566500  1
  C  C29  1  0.49796400  0.48782600  0.62135300  1
  C  C30  1  0.50065700  0.61975600  0.64960800  1
  C  C31  1  0.49474300  0.62465900  0.72140100  1
  C  C32  1  0.48742400  0.49787800  0.76568800  1
  C  C33  1  0.49818300  0.48617700  0.40466200  1
  C  C34  1  0.49835500  0.48495300  0.54480300  1
  C  C35  1  0.49179700  0.35326300  0.29866400  1
  C  C36  1  0.49848100  0.34923600  0.22675900  1
  C  C37  1  0.50594100  0.47578600  0.18249900  1
  C  C38  1  0.50696500  0.60829000  0.20944900  1
  C  C39  1  0.50663400  0.61549300  0.28198000  1
  C  C40  1  0.49858000  0.48638200  0.32717000  1
  C  C41  1  0.52273400  0.76059600  0.30972100  1
  C  C42  1  0.45278900  0.80653100  0.33415000  1
  C  C43  1  0.46809800  0.93602000  0.36691500  1
  C  C44  1  0.55327300  0.02018100  0.37469000  1
  C  C45  1  0.62319300  0.97541600  0.34938800  1
  C  C46  1  0.60785400  0.84520000  0.31729000  1
  C  C47  1  0.78392300  0.91874800  0.80134900  1
  C  C48  1  0.76767200  0.01537100  0.75097500  1
  C  C49  1  0.75382200  0.97288600  0.68475200  1
  C  C50  1  0.75632000  0.83405900  0.66868800  1
  C  C51  1  0.77377800  0.73834600  0.71858200  1
  C  C52  1  0.78807800  0.78097300  0.78470000  1
  N  N1  1  0.49133000  0.60386300  0.50579400  1
  N  N2  1  0.49106000  0.60420300  0.43699700  1
  N  N3  1  0.50433500  0.36604900  0.44396800  1
  N  N4  1  0.50432800  0.36517400  0.51313500  1
  Cl  Cl1  1  0.34445800  0.69700200  0.32636400  1
  Cl  Cl2  1  0.77092200  0.19628300  0.76903700  1
  O  O1  1  0.60276000  0.05330100  0.01673100  1
  O  O2  1  0.51774300  0.72665900  0.09122400  1
  O  O3  1  0.67069300  0.97424700  0.10098400  1
  O  O4  1  0.50132900  0.86188200  0.18109100  1
  O  O5  1  0.39351700  0.92213000  0.06605000  1
  O  O6  1  0.39300100  0.16073400  0.07495200  1
  O  O7  1  0.54092200  0.21409900  0.13560400  1
  O  O8  1  0.44184100  0.07990100  0.23035200  1
  O  O9  1  0.46013000  0.76648400  0.81304300  1
  O  O10  1  0.55138700  0.89442600  0.71345900  1
  O  O11  1  0.61424100  0.06383500  0.87409000  1
  O  O12  1  0.60330300  0.81668700  0.88362600  1
  O  O13  1  0.31923700  0.92459600  0.84562100  1
  O  O14  1  0.50018900  0.11730500  0.76259300  1
  O  O15  1  0.40685700  0.93896600  0.93062800  1
  O  O16  1  0.47594200  0.24205300  0.85483700  1
