# generated using pymatgen
data_ZnH13C27NO6
_symmetry_space_group_name_H-M   'P 1'
_cell_length_a   8.51570300
_cell_length_b   11.25650800
_cell_length_c   17.48727100
_cell_angle_alpha   90.54375200
_cell_angle_beta   92.63092800
_cell_angle_gamma   80.79965100
_symmetry_Int_Tables_number   1
_chemical_formula_structural   ZnH13C27NO6
_chemical_formula_sum   'Zn2 H26 C54 N2 O12'
_cell_volume   1652.96577500
_cell_formula_units_Z   2
loop_
 _symmetry_equiv_pos_site_id
 _symmetry_equiv_pos_as_xyz
  1  'x, y, z'
loop_
 _atom_site_type_symbol
 _atom_site_label
 _atom_site_symmetry_multiplicity
 _atom_site_fract_x
 _atom_site_fract_y
 _atom_site_fract_z
 _atom_site_occupancy
  Zn  Zn1  1  0.49495500  0.49250000  0.91501300  1
  Zn  Zn2  1  0.50406300  0.50785700  0.08513900  1
  H  H1  1  0.00884000  0.58540500  0.97788500  1
  H  H2  1  0.99018300  0.41495200  0.02226900  1
  H  H3  1  0.65155100  0.88813900  0.00734900  1
  H  H4  1  0.34747200  0.11222200  0.99279900  1
  H  H5  1  0.28445500  0.91597900  0.99356700  1
  H  H6  1  0.71457000  0.08438100  0.00658500  1
  H  H7  1  0.47962500  0.67206400  0.81367400  1
  H  H8  1  0.51851800  0.32837500  0.18639600  1
  H  H9  1  0.47230500  0.90159300  0.57763900  1
  H  H10  1  0.51225700  0.10016400  0.42203900  1
  H  H11  1  0.49751900  0.90576500  0.44364700  1
  H  H12  1  0.52544500  0.09184200  0.55740000  1
  H  H13  1  0.49898500  0.30112600  0.80613000  1
  H  H14  1  0.50094200  0.69917800  0.19429000  1
  H  H15  1  0.23035500  0.79139800  0.74347600  1
  H  H16  1  0.24872200  0.94607000  0.72492800  1
  H  H17  1  0.34103400  0.87332000  0.81102800  1
  H  H18  1  0.26530500  0.27398900  0.24027200  1
  H  H19  1  0.27502700  0.11597300  0.26024900  1
  H  H20  1  0.37761100  0.16207000  0.18015500  1
  H  H21  1  0.74721900  0.19365500  0.74727000  1
  H  H22  1  0.74248800  0.04087100  0.71639800  1
  H  H23  1  0.63796700  0.09832100  0.80018100  1
  H  H24  1  0.75033800  0.74070800  0.26530000  1
  H  H25  1  0.75243200  0.89338800  0.29653300  1
  H  H26  1  0.64825900  0.86470400  0.20732500  1
  C  C1  1  0.09468900  0.74961900  0.99145100  1
  C  C2  1  0.90433600  0.25074100  0.00870200  1
  C  C3  1  0.97622300  0.68040500  0.98606300  1
  C  C4  1  0.02280000  0.31995200  0.01409000  1
  C  C5  1  0.81987200  0.72910200  0.99472600  1
  C  C6  1  0.17914800  0.27125700  0.00542500  1
  C  C7  1  0.77567900  0.85085100  0.00203600  1
  C  C8  1  0.22334400  0.14950800  0.99811300  1
  C  C9  1  0.88910900  0.92474000  0.00039600  1
  C  C10  1  0.10991500  0.07561900  0.99975600  1
  C  C11  1  0.04961500  0.87496300  0.99688700  1
  C  C12  1  0.94941000  0.12539600  0.00326600  1
  C  C13  1  0.83958300  0.04828900  0.00334600  1
  C  C14  1  0.15944200  0.95207100  0.99680600  1
  C  C15  1  0.29709000  0.35019900  0.00271800  1
  C  C16  1  0.70192200  0.65016200  0.99743300  1
  C  C17  1  0.25881900  0.67981200  0.99416300  1
  C  C18  1  0.74020900  0.32055200  0.00598900  1
  C  C19  1  0.48181900  0.59242600  0.77889300  1
  C  C20  1  0.51095600  0.40848400  0.22106100  1
  C  C21  1  0.49669800  0.38342400  0.77480800  1
  C  C22  1  0.50744100  0.61632400  0.22556700  1
  C  C23  1  0.47418300  0.70681000  0.66324900  1
  C  C24  1  0.50196300  0.29567500  0.33612100  1
  C  C25  1  0.48068700  0.59782700  0.69994800  1
  C  C26  1  0.50487900  0.40371700  0.29979500  1
  C  C27  1  0.49156000  0.49299900  0.65793000  1
  C  C28  1  0.50517800  0.50733900  0.34217100  1
  C  C29  1  0.50043600  0.38467900  0.69548100  1
  C  C30  1  0.50897000  0.61434500  0.30502900  1
  C  C31  1  0.51057700  0.27914900  0.65348600  1
  C  C32  1  0.50982700  0.71872800  0.34728500  1
  C  C33  1  0.48176300  0.81747500  0.54717600  1
  C  C34  1  0.51047300  0.18335100  0.45278000  1
  C  C35  1  0.48310900  0.70983200  0.58440700  1
  C  C36  1  0.50617900  0.29122900  0.41539900  1
  C  C37  1  0.49143900  0.60494300  0.54217000  1
  C  C38  1  0.50351600  0.39557000  0.45782400  1
  C  C39  1  0.49388100  0.82013100  0.46926100  1
  C  C40  1  0.51561500  0.17889600  0.53126800  1
  C  C41  1  0.49897600  0.71616700  0.42627900  1
  C  C42  1  0.50799800  0.28319100  0.57409600  1
  C  C43  1  0.49451200  0.49658500  0.57900800  1
  C  C44  1  0.50167500  0.50381000  0.42104700  1
  C  C45  1  0.50154100  0.39179400  0.53695700  1
  C  C46  1  0.49659900  0.60842300  0.46313900  1
  C  C47  1  0.45851900  0.81851800  0.70794400  1
  C  C48  1  0.31048400  0.85982200  0.74956000  1
  C  C49  1  0.48730700  0.18787000  0.29034400  1
  C  C50  1  0.34243300  0.18475700  0.23947500  1
  C  C51  1  0.52728100  0.16341200  0.69304600  1
  C  C52  1  0.67264800  0.12143400  0.74247500  1
  C  C53  1  0.53173700  0.82944200  0.30861400  1
  C  C54  1  0.67968100  0.83239600  0.26663500  1
  N  N1  1  0.48930100  0.48662800  0.81470800  1
  N  N2  1  0.50969600  0.51371800  0.18544400  1
  O  O1  1  0.34526000  0.39472400  0.06726100  1
  O  O2  1  0.65374200  0.60564700  0.93288300  1
  O  O3  1  0.34485600  0.37650000  0.93573000  1
  O  O4  1  0.65416200  0.62386100  0.06442700  1
  O  O5  1  0.31087200  0.62635200  0.93060400  1
  O  O6  1  0.68815100  0.37400800  0.06954900  1
  O  O7  1  0.32301600  0.64357000  0.06179600  1
  O  O8  1  0.67602000  0.35680000  0.93835600  1
  O  O9  1  0.56693100  0.87737100  0.71150400  1
  O  O10  1  0.59428500  0.10185500  0.29255300  1
  O  O11  1  0.42379300  0.10052400  0.68454600  1
  O  O12  1  0.42973900  0.91856300  0.31033400  1
