# generated using pymatgen
data_Cu3H32(C14O3)4
_symmetry_space_group_name_H-M   'P 1'
_cell_length_a   18.54256400
_cell_length_b   18.94444300
_cell_length_c   18.78723200
_cell_angle_alpha   110.07492400
_cell_angle_beta   109.20872600
_cell_angle_gamma   109.03523000
_symmetry_Int_Tables_number   1
_chemical_formula_structural   Cu3H32(C14O3)4
_chemical_formula_sum   'Cu6 H64 C112 O24'
_cell_volume   5085.90964333
_cell_formula_units_Z   2
loop_
 _symmetry_equiv_pos_site_id
 _symmetry_equiv_pos_as_xyz
  1  'x, y, z'
loop_
 _atom_site_type_symbol
 _atom_site_label
 _atom_site_symmetry_multiplicity
 _atom_site_fract_x
 _atom_site_fract_y
 _atom_site_fract_z
 _atom_site_occupancy
  Cu  Cu1  1  0.00529500  0.94856000  0.43733300  1
  Cu  Cu2  1  0.00788300  0.06491200  0.56886900  1
  Cu  Cu3  1  0.44527700  0.50158100  0.43729700  1
  Cu  Cu4  1  0.56804700  0.50197800  0.56104200  1
  Cu  Cu5  1  0.43273700  0.93371100  0.99429200  1
  Cu  Cu6  1  0.56166700  0.05224500  0.00355800  1
  H  H1  1  0.65660400  0.66576700  0.20307500  1
  H  H2  1  0.96647500  0.92708100  0.66235500  1
  H  H3  1  0.97202000  0.94421100  0.79664200  1
  H  H4  1  0.84519000  0.84883100  0.79643500  1
  H  H5  1  0.71601500  0.73279600  0.66182600  1
  H  H6  1  0.58193500  0.54489100  0.33740900  1
  H  H7  1  0.56244300  0.53978700  0.20284700  1
  H  H8  1  0.77370600  0.79354700  0.33748200  1
  H  H9  1  0.39075100  0.60460700  0.00253200  1
  H  H10  1  0.37907700  0.72340400  0.09600200  1
  H  H11  1  0.50588100  0.87056000  0.18830900  1
  H  H12  1  0.65685500  0.77996200  0.09468400  1
  H  H13  1  0.53018300  0.63300800  0.00302100  1
  H  H14  1  0.73474500  0.87319000  0.26772300  1
  H  H15  1  0.74667600  0.13373200  0.26403400  1
  H  H16  1  0.80654500  0.21632600  0.43578300  1
  H  H17  1  0.92725400  0.36599800  0.53597200  1
  H  H18  1  0.07333500  0.40532600  0.55022000  1
  H  H19  1  0.09891500  0.29384200  0.46537100  1
  H  H20  1  0.97897800  0.14441900  0.36556900  1
  H  H21  1  0.00263600  0.72677100  0.59879200  1
  H  H22  1  0.26543300  0.11821800  0.63924700  1
  H  H23  1  0.41134800  0.24273700  0.73162100  1
  H  H24  1  0.51420200  0.25989500  0.86652300  1
  H  H25  1  0.47459700  0.15079300  0.90466300  1
  H  H26  1  0.26720900  0.83129000  0.78272500  1
  H  H27  1  0.11870600  0.71436500  0.69490100  1
  H  H28  1  0.03697500  0.85469200  0.58742900  1
  H  H29  1  0.25040100  0.17768400  0.85216000  1
  H  H30  1  0.38381400  0.31852000  0.96144200  1
  H  H31  1  0.48086200  0.34122200  0.10230300  1
  H  H32  1  0.31296600  0.08003700  0.02288400  1
  H  H33  1  0.21600900  0.05844200  0.88286400  1
  H  H34  1  0.43498700  0.33318000  0.21443800  1
  H  H35  1  0.55669900  0.15201800  0.27121000  1
  H  H36  1  0.70598800  0.30275800  0.41832200  1
  H  H37  1  0.78009600  0.31422900  0.56008100  1
  H  H38  1  0.69820700  0.28470300  0.63569200  1
  H  H39  1  0.54157400  0.24264400  0.56873900  1
  H  H40  1  0.46743300  0.23120500  0.42712500  1
  H  H41  1  0.26055800  0.12176300  0.12796300  1
  H  H42  1  0.21768200  0.23241100  0.17155100  1
  H  H43  1  0.21738800  0.28495000  0.31029200  1
  H  H44  1  0.30534100  0.11761200  0.36324800  1
  H  H45  1  0.30437900  0.06436100  0.22374600  1
  H  H46  1  0.16091900  0.11125900  0.38025700  1
  H  H47  1  0.35378300  0.40782400  0.62692700  1
  H  H48  1  0.21761600  0.41840800  0.62845900  1
  H  H49  1  0.20826500  0.48730900  0.75904600  1
  H  H50  1  0.22391800  0.43271300  0.86144600  1
  H  H51  1  0.25020300  0.30929200  0.83275600  1
  H  H52  1  0.25944300  0.24058800  0.70221800  1
  H  H53  1  0.11386500  0.46939300  0.38953600  1
  H  H54  1  0.17725000  0.62585400  0.44522200  1
  H  H55  1  0.32204200  0.72742300  0.57676600  1
  H  H56  1  0.33835600  0.51669200  0.60044400  1
  H  H57  1  0.19514800  0.41503000  0.46696900  1
  H  H58  1  0.37052600  0.75360000  0.73639200  1
  H  H59  1  0.63970500  0.74333400  0.76916700  1
  H  H60  1  0.73116700  0.91082000  0.83901800  1
  H  H61  1  0.87768600  0.00916000  0.96848600  1
  H  H62  1  0.90145300  0.02445200  0.11094600  1
  H  H63  1  0.77853600  0.94014800  0.12326000  1
  H  H64  1  0.63125500  0.84160400  0.99366200  1
  C  C1  1  0.88379500  0.01219400  0.39402000  1
  C  C2  1  0.89028300  0.88431200  0.50069500  1
  C  C3  1  0.12886700  0.00037700  0.61152300  1
  C  C4  1  0.12411100  0.12961400  0.50686400  1
  C  C5  1  0.90853400  0.88338800  0.65791800  1
  C  C6  1  0.91328400  0.89309600  0.73551300  1
  C  C7  1  0.84272500  0.83942700  0.73540000  1
  C  C8  1  0.76962600  0.77224500  0.65762000  1
  C  C9  1  0.76581700  0.75828100  0.57832800  1
  C  C10  1  0.83285600  0.81885800  0.57845800  1
  C  C11  1  0.69564300  0.68551500  0.49958800  1
  C  C12  1  0.69024200  0.67726000  0.42105100  1
  C  C13  1  0.75034100  0.74429200  0.42114800  1
  C  C14  1  0.82379200  0.81430500  0.49992200  1
  C  C15  1  0.62511300  0.60232900  0.34166000  1
  C  C16  1  0.61406100  0.59791100  0.26397600  1
  C  C17  1  0.66706400  0.66801600  0.26410200  1
  C  C18  1  0.73494400  0.74048400  0.34180800  1
  C  C19  1  0.43979200  0.73611500  0.09486500  1
  C  C20  1  0.51084400  0.81883000  0.14622600  1
  C  C21  1  0.58818500  0.83571100  0.14399700  1
  C  C22  1  0.59552000  0.76817100  0.09413800  1
  C  C23  1  0.52447100  0.68546300  0.04280900  1
  C  C24  1  0.44638800  0.66950200  0.04266600  1
  C  C25  1  0.73722800  0.93030600  0.26605900  1
  C  C26  1  0.81030100  0.00975500  0.32966100  1
  C  C27  1  0.81109100  0.08339600  0.33062900  1
  C  C28  1  0.74218700  0.07558500  0.26442600  1
  C  C29  1  0.66987200  0.99582600  0.19855200  1
  C  C30  1  0.66547200  0.92243300  0.20289500  1
  C  C31  1  0.87115800  0.23293900  0.44316500  1
  C  C32  1  0.93880600  0.31705700  0.49929200  1
  C  C33  1  0.02072300  0.33901300  0.50738700  1
  C  C34  1  0.03511600  0.27660400  0.46002500  1
  C  C35  1  0.96774600  0.19230500  0.40445300  1
  C  C36  1  0.88553300  0.17018200  0.39607500  1
  C  C37  1  0.30927700  0.12285500  0.69732800  1
  C  C38  1  0.39253900  0.19324700  0.74862900  1
  C  C39  1  0.45023700  0.20242200  0.82353500  1
  C  C40  1  0.42735200  0.13798300  0.84345200  1
  C  C41  1  0.34589200  0.06251100  0.78785700  1
  C  C42  1  0.28399900  0.05959100  0.71909200  1
  C  C43  1  0.32406500  0.99175800  0.80107600  1
  C  C44  1  0.23968900  0.91943200  0.74412500  1
  C  C45  1  0.17528300  0.92321200  0.68407500  1
  C  C46  1  0.19708900  0.99454600  0.67306000  1
  C  C47  1  0.21862200  0.84207900  0.74473500  1
  C  C48  1  0.13402900  0.77366200  0.69308800  1
  C  C49  1  0.06921600  0.78041300  0.63907300  1
  C  C50  1  0.08969900  0.85412100  0.63348400  1
  C  C51  1  0.50733100  0.38156000  0.38180100  1
  C  C52  1  0.62671700  0.61835800  0.49917000  1
  C  C53  1  0.50346700  0.61921800  0.61646300  1
  C  C54  1  0.38668400  0.38415400  0.49780900  1
  C  C55  1  0.48746000  0.10851400  0.10686500  1
  C  C56  1  0.60541100  0.99340300  0.12439600  1
  C  C57  1  0.50642200  0.87744800  0.88994100  1
  C  C58  1  0.38838800  0.99282700  0.87425900  1
  C  C59  1  0.36869500  0.26603600  0.97488900  1
  C  C60  1  0.42349500  0.27846100  0.05383000  1
  C  C61  1  0.40461400  0.21159700  0.07141800  1
  C  C62  1  0.33021000  0.13220200  0.00920900  1
  C  C63  1  0.27479500  0.12027700  0.93082400  1
  C  C64  1  0.29384700  0.18721800  0.91373300  1
  C  C65  1  0.46353600  0.29489600  0.22844600  1
  C  C66  1  0.50391300  0.31056900  0.31293300  1
  C  C67  1  0.53791500  0.25810900  0.32821700  1
  C  C68  1  0.52997100  0.19226600  0.25921100  1
  C  C69  1  0.48934900  0.17700100  0.17541900  1
  C  C70  1  0.45579300  0.22885100  0.15973700  1
  C  C71  1  0.66975700  0.28997800  0.45142000  1
  C  C72  1  0.71143000  0.29636400  0.53098800  1
  C  C73  1  0.66553400  0.27974900  0.57334600  1
  C  C74  1  0.57779100  0.25623200  0.53585300  1
  C  C75  1  0.53610900  0.24980800  0.45628800  1
  C  C76  1  0.58231600  0.26813100  0.41448200  1
  C  C77  1  0.23811200  0.20809800  0.21429700  1
  C  C78  1  0.23911600  0.23840800  0.29280600  1
  C  C79  1  0.26566600  0.20783200  0.34779500  1
  C  C80  1  0.28704600  0.14374700  0.32175200  1
  C  C81  1  0.28634000  0.11365200  0.24337700  1
  C  C82  1  0.26198400  0.14593100  0.18973500  1
  C  C83  1  0.20279900  0.17614300  0.43576700  1
  C  C84  1  0.19249900  0.19884200  0.50870700  1
  C  C85  1  0.24554600  0.28505700  0.57747400  1
  C  C86  1  0.30991700  0.34246400  0.57254900  1
  C  C87  1  0.31807100  0.31940100  0.49895100  1
  C  C88  1  0.26218600  0.23603300  0.42891400  1
  C  C89  1  0.22347400  0.39308800  0.67228200  1
  C  C90  1  0.21856200  0.43228700  0.74602800  1
  C  C91  1  0.22743300  0.40183200  0.80342800  1
  C  C92  1  0.24202800  0.33264900  0.78726000  1
  C  C93  1  0.24687400  0.29355100  0.71343000  1
  C  C94  1  0.23543700  0.32194700  0.65416600  1
  C  C95  1  0.21296800  0.60179600  0.47901700  1
  C  C96  1  0.29426700  0.65880400  0.55307800  1
  C  C97  1  0.34057000  0.62830400  0.59595500  1
  C  C98  1  0.30366400  0.54067200  0.56578200  1
  C  C99  1  0.22282100  0.48365100  0.49128100  1
  C  C100  1  0.17741600  0.51414400  0.44782000  1
  C  C101  1  0.43013600  0.75168900  0.74418200  1
  C  C102  1  0.50818900  0.81154800  0.82162200  1
  C  C103  1  0.58478100  0.80951700  0.82967800  1
  C  C104  1  0.58034500  0.74566300  0.76178700  1
  C  C105  1  0.50219400  0.68538700  0.68485200  1
  C  C106  1  0.42632600  0.68948200  0.67543600  1
  C  C107  1  0.74098300  0.91731600  0.90142300  1
  C  C108  1  0.82341600  0.97271600  0.97415600  1
  C  C109  1  0.83674400  0.98128400  0.05394900  1
  C  C110  1  0.76765400  0.93418100  0.06087500  1
  C  C111  1  0.68505200  0.87904000  0.98821800  1
  C  C112  1  0.67117500  0.87107700  0.90835100  1
  O  O1  1  0.91372300  0.96176400  0.36413800  1
  O  O2  1  0.91373800  0.06042100  0.47777800  1
  O  O3  1  0.92191900  0.86402100  0.44826700  1
  O  O4  1  0.91572500  0.96478100  0.55426900  1
  O  O5  1  0.10203500  0.95594800  0.52826700  1
  O  O6  1  0.09656000  0.04844400  0.64179500  1
  O  O7  1  0.09456300  0.04901600  0.44939000  1
  O  O8  1  0.09444300  0.14954500  0.56088100  1
  O  O9  1  0.45889200  0.41530900  0.35757500  1
  O  O10  1  0.55755800  0.40867700  0.46410700  1
  O  O11  1  0.54419300  0.59333100  0.44935000  1
  O  O12  1  0.65017100  0.58627100  0.54885000  1
  O  O13  1  0.45333800  0.59273700  0.53423000  1
  O  O14  1  0.55659400  0.59004300  0.64121000  1
  O  O15  1  0.36294300  0.41495000  0.44702100  1
  O  O16  1  0.46919300  0.41223300  0.55130000  1
  O  O17  1  0.45319100  0.03008400  0.09624100  1
  O  O18  1  0.52720400  0.12982100  0.06454000  1
  O  O19  1  0.52590500  0.92483100  0.07127000  1
  O  O20  1  0.63122300  0.06108000  0.11338500  1
  O  O21  1  0.43287900  0.85631200  0.89385500  1
  O  O22  1  0.57570200  0.95602200  0.94090700  1
  O  O23  1  0.36023600  0.96173200  0.91904400  1
  O  O24  1  0.47126000  0.02414000  0.89216000  1
