data_DB0-m3_o11_o29_f0_pcu.sym.90_repeat
_audit_creation_date              2024-02-23
_audit_creation_method            'Materials Studio'
_symmetry_space_group_name_H-M    'P1'
_symmetry_Int_Tables_number       1
_symmetry_cell_setting            triclinic
loop_
_symmetry_equiv_pos_as_xyz
  x,y,z
_cell_length_a                    27.5974
_cell_length_b                    11.1375
_cell_length_c                    9.9016
_cell_angle_alpha                 89.9974
_cell_angle_beta                  89.9930
_cell_angle_gamma                 89.9937
loop_
_atom_site_label
_atom_site_type_symbol
_atom_site_fract_x
_atom_site_fract_y
_atom_site_fract_z
_atom_site_U_iso_or_equiv
_atom_site_adp_type
_atom_site_occupancy
O1     O     0.50163   0.32262   0.60577   0.00000  Uiso   1.00
O2     O     0.49938   0.32313   0.37312   0.00000  Uiso   1.00
C1     C     0.50024   0.26685   0.48967   0.00000  Uiso   1.00
O3     O     0.43012   0.50261   0.61766   0.00000  Uiso   1.00
O4     O     0.42730   0.50264   0.38502   0.00000  Uiso   1.00
C2     C     0.40604   0.50295   0.50344   0.00000  Uiso   1.00
Zn1    Zn    0.50280   0.50069   0.64639   0.00000  Uiso   1.00
Zn2    Zn    0.49884   0.50269   0.33924   0.00000  Uiso   1.00
O5     O     0.50298   0.68009   0.61275   0.00000  Uiso   1.00
O6     O     0.50001   0.68111   0.37933   0.00000  Uiso   1.00
O7     O     0.57436   0.49937   0.60089   0.00000  Uiso   1.00
O8     O     0.57156   0.50138   0.36768   0.00000  Uiso   1.00
C3     C     0.50153   0.73653   0.49637   0.00000  Uiso   1.00
C4     C     0.59561   0.49996   0.48225   0.00000  Uiso   1.00
C5     C     0.17721   0.39804   0.50900   0.00000  Uiso   1.00
O9     O     0.20239   0.29510   0.49954   0.00000  Uiso   1.00
N1     N     0.20109   0.50254   0.51994   0.00000  Uiso   1.00
C6     C     0.17710   0.60725   0.53070   0.00000  Uiso   1.00
C7     C     0.27891   0.53076   0.63025   0.00000  Uiso   1.00
C8     C     0.32888   0.52959   0.62688   0.00000  Uiso   1.00
C9     C     0.32650   0.47673   0.39310   0.00000  Uiso   1.00
C10    C     0.27657   0.47547   0.39755   0.00000  Uiso   1.00
C11    C     0.25268   0.50295   0.51589   0.00000  Uiso   1.00
C12    C     0.10145   0.50218   0.51737   0.00000  Uiso   1.00
C13    C     0.12723   0.39654   0.50645   0.00000  Uiso   1.00
C14    C     0.10306   0.28951   0.49105   0.00000  Uiso   1.00
C15    C     0.12647   0.60895   0.53555   0.00000  Uiso   1.00
C16    C     0.35294   0.50312   0.50800   0.00000  Uiso   1.00
H1     H     0.34443   0.45514   0.29918   0.00000  Uiso   1.00
H2     H     0.25618   0.45411   0.30750   0.00000  Uiso   1.00
H3     H     0.12244   0.20578   0.48014   0.00000  Uiso   1.00
C17    C     0.64872   0.49845   0.47834   0.00000  Uiso   1.00
C18    C     0.97577   0.39080   0.50117   0.00000  Uiso   1.00
C19    C     0.97541   0.60645   0.48924   0.00000  Uiso   1.00
C20    C     0.95063   0.49823   0.49083   0.00000  Uiso   1.00
C21    C     0.94934   0.28481   0.51376   0.00000  Uiso   1.00
C22    C     0.89959   0.28567   0.51059   0.00000  Uiso   1.00
C23    C     0.87488   0.39176   0.49359   0.00000  Uiso   1.00
C24    C     0.90034   0.49758   0.48299   0.00000  Uiso   1.00
C25    C     0.87495   0.60286   0.46547   0.00000  Uiso   1.00
C26    C     0.82485   0.60095   0.45891   0.00000  Uiso   1.00
N2     N     0.80065   0.49670   0.47230   0.00000  Uiso   1.00
C27    C     0.82477   0.39279   0.48963   0.00000  Uiso   1.00
C28    C     0.72457   0.47046   0.59127   0.00000  Uiso   1.00
C29    C     0.67467   0.47235   0.59416   0.00000  Uiso   1.00
C30    C     0.67330   0.52350   0.35986   0.00000  Uiso   1.00
C31    C     0.72331   0.52386   0.35797   0.00000  Uiso   1.00
C32    C     0.74903   0.49680   0.47356   0.00000  Uiso   1.00
O10    O     0.79980   0.28975   0.50163   0.00000  Uiso   1.00
C33    C     0.02651   0.39186   0.49988   0.00000  Uiso   1.00
C34    C     0.05107   0.50043   0.50932   0.00000  Uiso   1.00
C35    C     0.02555   0.60735   0.50948   0.00000  Uiso   1.00
C36    C     0.05342   0.28676   0.48838   0.00000  Uiso   1.00
H4     H     0.65639   0.45186   0.68789   0.00000  Uiso   1.00
H5     H     0.74452   0.44986   0.68232   0.00000  Uiso   1.00
H6     H     0.88059   0.20145   0.52184   0.00000  Uiso   1.00
H7     H     0.96571   0.19872   0.53192   0.00000  Uiso   1.00
H8     H     0.03753   0.19998   0.47117   0.00000  Uiso   1.00
O11    O     0.20296   0.70930   0.52653   0.00000  Uiso   1.00
C37    C     0.09996   0.71413   0.55406   0.00000  Uiso   1.00
H9     H     0.34874   0.55116   0.71775   0.00000  Uiso   1.00
H10    H     0.26033   0.55209   0.72333   0.00000  Uiso   1.00
C38    C     0.94932   0.71153   0.46635   0.00000  Uiso   1.00
C39    C     0.89974   0.70946   0.45438   0.00000  Uiso   1.00
O12    O     0.79995   0.70371   0.44335   0.00000  Uiso   1.00
C40    C     0.05057   0.71288   0.53588   0.00000  Uiso   1.00
H11    H     0.96627   0.79763   0.45201   0.00000  Uiso   1.00
H12    H     0.65382   0.54473   0.26824   0.00000  Uiso   1.00
H13    H     0.88094   0.79314   0.43703   0.00000  Uiso   1.00
H14    H     0.74230   0.54427   0.26526   0.00000  Uiso   1.00
H15    H     0.03222   0.79634   0.55529   0.00000  Uiso   1.00
C41    C     0.49972   0.93398   0.38635   0.00000  Uiso   1.00
C42    C     0.50202   0.86810   0.49960   0.00000  Uiso   1.00
H16    H     0.49776   0.88883   0.28960   0.00000  Uiso   1.00
H17    H     0.50448   0.90837   0.59842   0.00000  Uiso   1.00
C43    C     0.49995   0.06708   0.38367   0.00000  Uiso   1.00
C44    C     0.49991   0.13541   0.49478   0.00000  Uiso   1.00
H18    H     0.49988   0.10999   0.28545   0.00000  Uiso   1.00
H19    H     0.49953   0.09691   0.59469   0.00000  Uiso   1.00
C45    C     0.51936   0.58791   0.92059   0.00000  Uiso   1.00
N3     N     0.50629   0.49790   0.84816   0.00000  Uiso   1.00
H20    H     0.52996   0.67101   0.87201   0.00000  Uiso   1.00
H21    H     0.50222   0.41728   0.89722   0.00000  Uiso   1.00
C46    C     0.52306   0.57865   0.06926   0.00000  Uiso   1.00
N4     N     0.49613   0.50655   0.13743   0.00000  Uiso   1.00
H22    H     0.54779   0.63783   0.12211   0.00000  Uiso   1.00
H23    H     0.46892   0.46330   0.08603   0.00000  Uiso   1.00
C47    C     0.12067   0.82771   0.60317   0.00000  Uiso   1.00
H24    H     0.10493   0.91201   0.57036   0.00000  Uiso   1.00
O13    O     0.14990   0.82837   0.69555   0.00000  Uiso   1.00
