# Generated by REPEAT Assigner based on pymatgen
data_DB0-m2_o35_o35_f0_pts.sym.24
_audit_creation_date              2022-05-24
_audit_creation_method            REPEAT_Assigner
_cell_length_a                    15.967231
_cell_length_b                    15.956476
_cell_length_c                    30.027996
_cell_angle_alpha                 90.000000
_cell_angle_beta                  90.000000
_cell_angle_gamma                 90.000000
_cell_volume                      7650.555353
_symmetry_space_group_name_H-M    P1
_symmetry_Int_Tables_number       1
loop_
    _symmetry_equiv_pos_site_id
    _symmetry_equiv_pos_as_xyz
    1  x,y,z
loop_
    _atom_site_type_symbol
    _atom_site_label
    _atom_site_fract_x
    _atom_site_fract_y
    _atom_site_fract_z
    _atom_type_partial_charge
    O   O1    0.929698  0.583161  0.952210  -0.570486
    O   O2    0.072056  0.412516  0.045309  -0.592540
    O   O3    0.412237  0.930099  0.454915  -0.604651
    O   O4    0.587885  0.070528  0.545052  -0.603295
    O   O5    0.071833  0.412560  0.954840  -0.581339
    O   O6    0.930120  0.588103  0.045066  -0.603827
    O   O7    0.582621  0.071617  0.452120  -0.579841
    O   O8    0.417345  0.928997  0.547846  -0.580188
    O   O9    0.928960  0.414091  0.045305  -0.604995
    O   O10   0.072814  0.581931  0.952398  -0.619411
    O   O11   0.413833  0.072207  0.545291  -0.611926
    O   O12   0.586263  0.928415  0.454743  -0.611166
    O   O13   0.072908  0.581611  0.047937  -0.612086
    O   O14   0.928659  0.418729  0.952156  -0.593819
    O   O15   0.581530  0.927464  0.547813  -0.593831
    O   O16   0.418462  0.073177  0.452223  -0.592144
    C   C1    0.000649  0.130979  0.193999  -0.113954
    C   C2    0.999773  0.869049  0.805839  -0.111383
    C   C3    0.869138  0.000768  0.694031  -0.112194
    C   C4    0.130659  0.999921  0.306128  -0.110355
    C   C5    0.999086  0.868964  0.194332  -0.108608
    C   C6    0.001076  0.131068  0.805929  -0.111553
    C   C7    0.130961  0.999594  0.693838  -0.117644
    C   C8    0.868888  0.000818  0.306045  -0.110477
    C   C9    0.999818  0.000217  0.250126  0.609779
    C   C10   0.000203  0.000123  0.749914  0.598198
    C   C11   0.001691  0.195860  0.160144  0.055190
    C   C12   0.998963  0.803840  0.839517  0.056863
    C   C13   0.803892  0.001695  0.660393  0.055828
    C   C14   0.195772  0.999232  0.339823  0.057051
    C   C15   0.998118  0.803595  0.160754  0.055937
    C   C16   0.002176  0.196286  0.839604  0.056485
    C   C17   0.196090  0.998641  0.660150  0.059458
    C   C18   0.803737  0.001752  0.339707  0.055334
    Cu  Cu1   0.918815  0.501004  0.999926  0.963532
    Cu  Cu2   0.082952  0.499514  0.000084  0.977060
    Cu  Cu3   0.499261  0.918198  0.500033  0.971427
    Cu  Cu4   0.500789  0.082422  0.499973  0.969791
    C   C19   0.001534  0.612693  0.938496  0.682377
    C   C20   0.000297  0.387849  0.061586  0.694060
    C   C21   0.387482  0.001810  0.438512  0.687990
    C   C22   0.612632  0.998829  0.561457  0.688368
    C   C23   0.000085  0.387838  0.938434  0.712577
    C   C24   0.001638  0.612724  0.061578  0.668254
    C   C25   0.612165  0.999795  0.438336  0.690886
    C   C26   0.387769  0.000811  0.561608  0.691008
    C   C27   0.067509  0.200761  0.128300  -0.042635
    C   C28   0.933056  0.798294  0.871274  -0.046284
    C   C29   0.798489  0.067541  0.628564  -0.048138
    C   C30   0.201910  0.932855  0.371282  -0.050150
    C   C31   0.933103  0.799017  0.128433  -0.042224
    C   C32   0.067923  0.201391  0.871480  -0.042420
    C   C33   0.202460  0.931877  0.628909  -0.048661
    C   C34   0.796763  0.069034  0.370572  -0.043472
    C   C35   0.066454  0.746013  0.841135  -0.063010
    C   C36   0.934553  0.254075  0.158467  -0.063472
    C   C37   0.747399  0.933102  0.342203  -0.059965
    C   C38   0.252969  0.066879  0.657991  -0.056565
    C   C39   0.935113  0.254614  0.841078  -0.064273
    C   C40   0.064830  0.744837  0.159697  -0.067683
    C   C41   0.252893  0.067292  0.341751  -0.052876
    C   C42   0.746031  0.934230  0.658816  -0.055581
    C   C43   0.065994  0.267012  0.098327  -0.214041
    C   C44   0.935201  0.732211  0.901320  -0.204015
    C   C45   0.732827  0.065098  0.598288  -0.201066
    C   C46   0.267937  0.935074  0.401328  -0.198794
    C   C47   0.935667  0.733375  0.098124  -0.217162
    C   C48   0.065924  0.267348  0.901611  -0.189716
    C   C49   0.268637  0.933882  0.598944  -0.204030
    C   C50   0.730422  0.067191  0.400438  -0.200546
    C   C51   0.067206  0.685993  0.874990  -0.226245
    C   C52   0.934268  0.314076  0.124617  -0.211072
    C   C53   0.687314  0.932785  0.375997  -0.212061
    C   C54   0.313105  0.067294  0.624232  -0.219175
    C   C55   0.934668  0.314785  0.874850  -0.199524
    C   C56   0.065975  0.685040  0.125735  -0.230743
    C   C57   0.313214  0.067799  0.375436  -0.221216
    C   C58   0.685879  0.933579  0.625051  -0.223166
    H   H1    0.115869  0.275430  0.074682  0.135630
    H   H2    0.885557  0.723417  0.925076  0.116275
    H   H3    0.724569  0.114579  0.574377  0.128483
    H   H4    0.276954  0.884996  0.424806  0.129520
    H   H5    0.886746  0.725605  0.073867  0.134881
    H   H6    0.115486  0.275588  0.925458  0.121760
    H   H7    0.278044  0.883668  0.575577  0.122526
    H   H8    0.720430  0.117943  0.423405  0.122333
    H   H9    0.116601  0.640975  0.879105  0.149418
    H   H10   0.885344  0.359601  0.120489  0.132206
    H   H11   0.643341  0.882674  0.380820  0.138098
    H   H12   0.357638  0.117021  0.619716  0.140207
    H   H13   0.885678  0.360282  0.878793  0.134746
    H   H14   0.114802  0.639282  0.122047  0.146759
    H   H15   0.357899  0.117452  0.379658  0.140654
    H   H16   0.640574  0.884400  0.621113  0.141715
    C   C59   0.000061  0.321572  0.095666  0.002028
    C   C60   0.001499  0.678183  0.904009  0.012613
    C   C61   0.678468  0.998969  0.595777  0.002861
    C   C62   0.321599  0.001717  0.404210  -0.000020
    C   C63   0.001354  0.678457  0.095964  0.030757
    C   C64   0.000084  0.322018  0.904093  -0.033946
    C   C65   0.321880  0.000774  0.595828  0.004051
    C   C66   0.677896  0.999811  0.404018  -0.002269
    C   C67   0.999599  0.074266  0.220923  -0.147067
    C   C68   0.000598  0.925942  0.779020  -0.148423
    C   C69   0.926025  0.999854  0.720835  -0.150364
    C   C70   0.073859  0.000658  0.279283  -0.155779
    C   C71   0.000068  0.925954  0.221086  -0.151640
    C   C72   0.000019  0.074217  0.779085  -0.147354
    C   C73   0.074203  0.000476  0.720713  -0.144692
    C   C74   0.925731  0.999951  0.279233  -0.154670
    C   C75   0.142325  0.140713  0.122249  0.603543
    C   C76   0.142856  0.108437  0.074274  -0.377055
    C   C77   0.223334  0.188391  0.131398  -0.356958
    C   C78   0.144942  0.062724  0.151409  -0.389163
    H   H17   0.165460  0.156033  0.050304  0.082641
    H   H18   0.078663  0.088540  0.064908  0.068234
    H   H19   0.185229  0.053801  0.071060  0.074455
    H   H20   0.237315  0.234877  0.105061  0.071586
    H   H21   0.276725  0.144103  0.132932  0.070488
    H   H22   0.218025  0.221281  0.163803  0.058150
    H   H23   0.088484  0.023693  0.145795  0.083533
    H   H24   0.153897  0.080568  0.186624  0.098026
    H   H25   0.199818  0.023440  0.142745  0.091037
    C   C79   0.857305  0.857234  0.877027  0.603174
    C   C80   0.777275  0.808541  0.867057  -0.349525
    C   C81   0.854902  0.888773  0.925134  -0.394224
    C   C82   0.854388  0.935567  0.848144  -0.384639
    H   H26   0.764324  0.760078  0.892524  0.073700
    H   H27   0.783233  0.777785  0.834094  0.057413
    H   H28   0.723034  0.851869  0.866304  0.066506
    H   H29   0.830570  0.840986  0.948518  0.090333
    H   H30   0.812945  0.943782  0.928092  0.078897
    H   H31   0.918803  0.907875  0.935473  0.070168
    H   H32   0.846331  0.918056  0.812826  0.098114
    H   H33   0.910329  0.975125  0.854197  0.084446
    H   H34   0.798822  0.974063  0.856575  0.090954
    C   C83   0.857239  0.143506  0.622920  0.596869
    C   C84   0.890088  0.145217  0.575069  -0.381945
    C   C85   0.808016  0.223595  0.632162  -0.356689
    C   C86   0.934650  0.147285  0.652408  -0.381524
    H   H35   0.842843  0.168803  0.551176  0.084117
    H   H36   0.909811  0.081185  0.565236  0.068628
    H   H37   0.944928  0.187441  0.572373  0.076401
    H   H38   0.760599  0.236327  0.606130  0.074310
    H   H39   0.851119  0.278004  0.633269  0.069221
    H   H40   0.776038  0.217874  0.664804  0.058492
    H   H41   0.975015  0.091828  0.646589  0.084626
    H   H42   0.916063  0.154974  0.687594  0.098852
    H   H43   0.972683  0.203346  0.644284  0.090510
    C   C87   0.143507  0.856624  0.376811  0.595132
    C   C88   0.192489  0.776955  0.366343  -0.355275
    C   C89   0.112518  0.853349  0.425002  -0.378730
    C   C90   0.064978  0.853742  0.348126  -0.379977
    H   H44   0.241777  0.764212  0.391370  0.073273
    H   H45   0.222214  0.783287  0.333137  0.058222
    H   H46   0.149559  0.722372  0.365878  0.069079
    H   H47   0.160177  0.827377  0.447952  0.083282
    H   H48   0.056766  0.812388  0.427849  0.076285
    H   H49   0.094803  0.917324  0.435962  0.067027
    H   H50   0.082137  0.846199  0.312728  0.100987
    H   H51   0.025242  0.909463  0.354477  0.083632
    H   H52   0.026931  0.797789  0.356434  0.088703
    C   C91   0.857927  0.858579  0.122269  0.593492
    C   C92   0.858370  0.892351  0.074593  -0.376458
    C   C93   0.777122  0.809831  0.130382  -0.347013
    C   C94   0.853660  0.935543  0.152109  -0.387813
    H   H53   0.836606  0.845369  0.050068  0.081295
    H   H54   0.922656  0.912901  0.065833  0.066338
    H   H55   0.815777  0.946869  0.071610  0.076319
    H   H56   0.764467  0.763691  0.103687  0.070969
    H   H57   0.723151  0.853440  0.131637  0.067951
    H   H58   0.781697  0.776397  0.162666  0.056542
    H   H59   0.909342  0.975842  0.146869  0.087802
    H   H60   0.845019  0.916399  0.187153  0.095801
    H   H61   0.798058  0.974000  0.143703  0.091339
    C   C95   0.143426  0.142135  0.877260  0.593546
    C   C96   0.223693  0.190655  0.867575  -0.357719
    C   C97   0.145382  0.110126  0.925290  -0.389396
    C   C98   0.146331  0.064108  0.848160  -0.374363
    H   H62   0.236879  0.238549  0.893311  0.073978
    H   H63   0.217905  0.222068  0.834780  0.058456
    H   H64   0.277745  0.147111  0.866587  0.070488
    H   H65   0.169614  0.157622  0.948873  0.089716
    H   H66   0.187217  0.055009  0.928177  0.077154
    H   H67   0.081367  0.091046  0.935443  0.069371
    H   H68   0.154495  0.081987  0.812902  0.094310
    H   H69   0.090344  0.024540  0.854060  0.082418
    H   H70   0.201832  0.025480  0.856532  0.089275
    C   C99   0.144176  0.855480  0.623560  0.600401
    C   C100  0.111443  0.852793  0.575703  -0.383879
    C   C101  0.193831  0.775831  0.633183  -0.355558
    C   C102  0.066671  0.851783  0.652993  -0.378690
    H   H71   0.159505  0.831417  0.551695  0.086498
    H   H72   0.089133  0.916051  0.566018  0.068553
    H   H73   0.058388  0.808343  0.572976  0.075827
    H   H74   0.240084  0.762058  0.606713  0.073808
    H   H75   0.150869  0.721438  0.635430  0.068603
    H   H76   0.227141  0.782936  0.665367  0.059377
    H   H77   0.025987  0.906896  0.646884  0.082943
    H   H78   0.085242  0.844870  0.688222  0.097678
    H   H79   0.028899  0.795428  0.645095  0.089504
    C   C103  0.854579  0.145819  0.375633  0.596041
    C   C104  0.805113  0.224811  0.364400  -0.352361
    C   C105  0.885079  0.150647  0.423872  -0.380753
    C   C106  0.933405  0.148403  0.347155  -0.382816
    H   H80   0.755979  0.238249  0.389414  0.073746
    H   H81   0.775120  0.217003  0.331353  0.056724
    H   H82   0.847745  0.279588  0.363217  0.067810
    H   H83   0.836856  0.176380  0.446562  0.085482
    H   H84   0.940191  0.192498  0.426574  0.075529
    H   H85   0.903646  0.087183  0.435268  0.067230
    H   H86   0.916546  0.154923  0.311668  0.099268
    H   H87   0.973386  0.093071  0.354008  0.084633
    H   H88   0.971110  0.204746  0.355149  0.090710
    C   C107  0.137150  0.745918  0.806279  0.665198
    C   C108  0.206631  0.682767  0.816402  -0.364961
    C   C109  0.102643  0.720302  0.760884  -0.411325
    C   C110  0.180448  0.831169  0.803621  -0.387361
    H   H89   0.182323  0.617641  0.815831  0.063184
    H   H90   0.236799  0.697182  0.848816  0.062252
    H   H91   0.255432  0.685574  0.790148  0.080803
    H   H92   0.078229  0.655367  0.762860  0.065607
    H   H93   0.153414  0.722383  0.735732  0.099358
    H   H94   0.051027  0.760878  0.749502  0.076335
    H   H95   0.166668  0.868293  0.833953  0.061495
    H   H96   0.160523  0.865390  0.773356  0.067726
    H   H97   0.249281  0.823502  0.801535  0.073374
    C   C111  0.863897  0.254796  0.193328  0.667867
    C   C112  0.898649  0.280945  0.238578  -0.422068
    C   C113  0.794590  0.317998  0.182980  -0.366606
    C   C114  0.820327  0.169713  0.196328  -0.384158
    H   H98   0.924156  0.345407  0.236154  0.066079
    H   H99   0.949499  0.239734  0.250302  0.079297
    H   H100  0.847770  0.280407  0.263676  0.104766
    H   H101  0.819005  0.383080  0.183471  0.064479
    H   H102  0.745652  0.315475  0.209167  0.079646
    H   H103  0.764588  0.303386  0.150550  0.066165
    H   H104  0.839896  0.135998  0.226825  0.067626
    H   H105  0.834199  0.131976  0.166217  0.060781
    H   H106  0.751497  0.177601  0.198183  0.071520
    C   C115  0.749241  0.860429  0.308495  0.649754
    C   C116  0.687555  0.790164  0.319573  -0.370985
    C   C117  0.723486  0.891632  0.262440  -0.410544
    C   C118  0.835385  0.818878  0.306878  -0.372403
    H   H107  0.621984  0.813055  0.318498  0.066314
    H   H108  0.702357  0.762090  0.352463  0.066722
    H   H109  0.691636  0.739985  0.294099  0.082408
    H   H110  0.658095  0.914864  0.263805  0.065519
    H   H111  0.726895  0.839377  0.238173  0.100963
    H   H112  0.763142  0.943313  0.250263  0.077610
    H   H113  0.871537  0.835100  0.337192  0.060349
    H   H114  0.869742  0.837960  0.276507  0.065650
    H   H115  0.829251  0.749762  0.305806  0.069395
    C   C119  0.251843  0.138851  0.692112  0.652608
    C   C120  0.277516  0.106372  0.737921  -0.412730
    C   C121  0.314112  0.208795  0.681372  -0.367667
    C   C122  0.166071  0.181122  0.694111  -0.371443
    H   H116  0.342418  0.081890  0.736223  0.065872
    H   H117  0.236984  0.055298  0.750003  0.077161
    H   H118  0.275411  0.158268  0.762428  0.101768
    H   H119  0.379491  0.185338  0.682372  0.064395
    H   H120  0.310437  0.258622  0.707060  0.081864
    H   H121  0.299594  0.237520  0.648600  0.065445
    H   H122  0.131877  0.161917  0.724512  0.064970
    H   H123  0.129431  0.165648  0.663852  0.058218
    H   H124  0.172806  0.250165  0.695430  0.069157
    C   C123  0.864436  0.254953  0.806212  0.661482
    C   C124  0.795425  0.318723  0.816180  -0.365575
    C   C125  0.899075  0.279908  0.760734  -0.428853
    C   C126  0.820528  0.169986  0.803806  -0.384686
    H   H125  0.820235  0.383653  0.815427  0.066423
    H   H126  0.765162  0.304876  0.848640  0.064346
    H   H127  0.746566  0.316046  0.789952  0.080165
    H   H128  0.924084  0.344633  0.762561  0.068962
    H   H129  0.848220  0.278106  0.735624  0.105228
    H   H130  0.950256  0.238778  0.749361  0.081490
    H   H131  0.834233  0.132978  0.834193  0.060889
    H   H132  0.840065  0.135393  0.773589  0.068719
    H   H133  0.751734  0.178134  0.801832  0.072745
    C   C127  0.134093  0.743386  0.195342  0.675410
    C   C128  0.097242  0.718224  0.240297  -0.421639
    C   C129  0.202777  0.678991  0.185940  -0.359448
    C   C130  0.178826  0.827824  0.198574  -0.391308
    H   H134  0.070448  0.654306  0.237704  0.067303
    H   H135  0.046946  0.760580  0.251544  0.078679
    H   H136  0.147259  0.717797  0.265886  0.101372
    H   H137  0.177195  0.614344  0.186148  0.060088
    H   H138  0.250562  0.680795  0.212740  0.079571
    H   H139  0.234525  0.692979  0.153904  0.061949
    H   H140  0.158568  0.862168  0.228736  0.069612
    H   H141  0.166688  0.865440  0.168207  0.063329
    H   H142  0.247429  0.818891  0.201241  0.072521
    C   C131  0.251637  0.139097  0.307511  0.649492
    C   C132  0.313966  0.209110  0.318033  -0.369398
    C   C133  0.277058  0.106425  0.261693  -0.411924
    C   C134  0.165834  0.181363  0.305614  -0.372839
    H   H143  0.379344  0.185660  0.316967  0.066735
    H   H144  0.299649  0.238032  0.350779  0.065698
    H   H145  0.310122  0.258759  0.292256  0.082047
    H   H146  0.342053  0.082163  0.263296  0.065842
    H   H147  0.274635  0.158177  0.237103  0.101809
    H   H148  0.236590  0.055161  0.249778  0.076634
    H   H149  0.129210  0.165705  0.335855  0.058926
    H   H150  0.131602  0.162316  0.275194  0.065443
    H   H151  0.172542  0.250417  0.304437  0.069933
    C   C135  0.746155  0.863352  0.693582  0.658602
    C   C136  0.720926  0.897653  0.739090  -0.414669
    C   C137  0.682904  0.793937  0.683498  -0.365631
    C   C138  0.831359  0.819975  0.695944  -0.378907
    H   H152  0.656412  0.923088  0.737138  0.065655
    H   H153  0.762250  0.948444  0.750765  0.077604
    H   H154  0.722111  0.846475  0.764037  0.101199
    H   H155  0.617854  0.818320  0.684370  0.065107
    H   H156  0.686006  0.744832  0.709598  0.080393
    H   H157  0.696877  0.764038  0.650957  0.064136
    H   H158  0.865647  0.839376  0.726281  0.066581
    H   H159  0.868405  0.834319  0.665659  0.059695
    H   H160  0.823701  0.751060  0.697639  0.071109
