# Generated by REPEAT Assigner based on pymatgen
data_DB0-m3_o6_o18_f0_pcu.sym.108
_audit_creation_date              2022-05-24
_audit_creation_method            REPEAT_Assigner
_cell_length_a                    14.984308
_cell_length_b                    16.034891
_cell_length_c                    16.133139
_cell_angle_alpha                 89.992382
_cell_angle_beta                  90.008231
_cell_angle_gamma                 72.685897
_cell_volume                      3700.691056
_symmetry_space_group_name_H-M    P1
_symmetry_Int_Tables_number       1
loop_
    _symmetry_equiv_pos_site_id
    _symmetry_equiv_pos_as_xyz
    1  x,y,z
loop_
    _atom_site_type_symbol
    _atom_site_label
    _atom_site_fract_x
    _atom_site_fract_y
    _atom_site_fract_z
    _atom_type_partial_charge
    O   O1   0.577162  0.499736  0.376510  -0.687559
    O   O2   0.422838  0.500264  0.623490  -0.687559
    O   O3   0.422838  0.500375  0.376487  -0.708578
    O   O4   0.577162  0.499625  0.623513  -0.708574
    C   C1   0.499996  0.500070  0.338000  0.933859
    C   C2   0.500004  0.499930  0.662000  0.933852
    O   O5   0.618012  0.369516  0.499972  -0.627995
    O   O6   0.381988  0.630483  0.500028  -0.627998
    O   O7   0.463891  0.370197  0.499959  -0.639327
    O   O8   0.536109  0.629802  0.500041  -0.639334
    C   C3   0.553829  0.328832  0.499952  0.669840
    C   C4   0.446171  0.671168  0.500048  0.669847
    Zn  Zn1  0.601664  0.499573  0.500018  1.084490
    Zn  Zn2  0.398335  0.500427  0.499982  1.084476
    C   C5   0.584280  0.232818  0.499906  -0.027846
    C   C6   0.415720  0.767182  0.500094  -0.027845
    C   C7   0.706533  0.098543  0.499730  -0.261791
    C   C8   0.293467  0.901456  0.500270  -0.261791
    C   C9   0.678219  0.188092  0.499769  -0.086381
    C   C10  0.321781  0.811907  0.500231  -0.086383
    C   C11  0.519161  0.186943  0.499991  -0.147939
    C   C12  0.480839  0.813056  0.500009  -0.147940
    C   C13  0.546938  0.095535  0.499943  0.010990
    C   C14  0.453062  0.904465  0.500057  0.010982
    C   C15  0.641856  0.052777  0.499819  0.267987
    C   C16  0.358143  0.947223  0.500181  0.267998
    C   C17  0.483358  0.045777  0.500020  0.064218
    C   C18  0.516642  0.954222  0.499980  0.064228
    C   C19  0.612911  0.914653  0.499868  -0.172223
    C   C20  0.387088  0.085347  0.500132  -0.172229
    C   C21  0.673842  0.963454  0.499784  -0.268601
    C   C22  0.326157  0.036545  0.500216  -0.268612
    H   H1   0.748109  0.930415  0.499693  0.132894
    H   H2   0.251891  0.069585  0.500307  0.132900
    H   H3   0.552771  0.774664  0.499894  0.099947
    H   H4   0.447228  0.225336  0.500106  0.099941
    H   H5   0.269413  0.777923  0.500315  0.117451
    H   H6   0.730586  0.222076  0.499685  0.117449
    H   H7   0.780459  0.064066  0.499627  0.135849
    H   H8   0.219541  0.935934  0.500373  0.135846
    H   H9   0.645422  0.845354  0.499844  0.142936
    H   H10  0.354577  0.154646  0.500156  0.142946
    H   H11  0.642181  0.499946  0.076255  0.140958
    H   H12  0.357819  0.500053  0.923745  0.140960
    C   C23  0.579710  0.499936  0.957271  -0.178480
    C   C24  0.420289  0.500064  0.042729  -0.178487
    H   H13  0.642186  0.499887  0.923760  0.137313
    H   H14  0.357814  0.500112  0.076240  0.137317
    C   C25  0.500003  0.499964  0.914543  0.246510
    C   C26  0.499997  0.500035  0.085457  0.246516
    C   C27  0.420293  0.500029  0.957263  -0.177469
    C   C28  0.579707  0.499971  0.042737  -0.177468
    C   C29  0.500004  0.499939  0.825614  -0.069967
    C   C30  0.499996  0.500061  0.174385  -0.069968
    C   C31  0.499996  0.500073  0.249068  -0.294247
    C   C32  0.500004  0.499927  0.750932  -0.294238
    H   H15  0.114953  0.398298  0.410314  0.188726
    H   H16  0.885046  0.601702  0.589686  0.188726
    C   C33  0.972557  0.442558  0.449685  -0.101806
    C   C34  0.027443  0.557442  0.550315  -0.101783
    C   C35  0.908108  0.499577  0.499989  0.273741
    C   C36  0.091892  0.500423  0.500011  0.273737
    C   C37  0.935569  0.557002  0.550279  -0.171446
    C   C38  0.064431  0.442997  0.449721  -0.171435
    C   C39  0.812432  0.499304  0.500002  0.048735
    C   C40  0.187568  0.500695  0.499998  0.048723
    N   N1   0.264745  0.500806  0.499969  -0.090770
    N   N2   0.735255  0.499193  0.500031  -0.090779
    C   C41  0.944119  0.382752  0.397280  0.389092
    N   N3   0.921239  0.334514  0.355013  -0.373108
    C   C42  0.055881  0.617248  0.602720  0.389071
    N   N4   0.078761  0.665486  0.644987  -0.373098
