# generated using pymatgen
data_Cu6H63C115(O8F3)3
_symmetry_space_group_name_H-M   'P 1'
_cell_length_a   18.53176300
_cell_length_b   18.65099800
_cell_length_c   18.80668100
_cell_angle_alpha   109.43337800
_cell_angle_beta   109.17705600
_cell_angle_gamma   109.33709900
_symmetry_Int_Tables_number   1
_chemical_formula_structural   Cu6H63C115(O8F3)3
_chemical_formula_sum   'Cu6 H63 C115 O24 F9'
_cell_volume   5032.46588066
_cell_formula_units_Z   1
loop_
 _symmetry_equiv_pos_site_id
 _symmetry_equiv_pos_as_xyz
  1  'x, y, z'
loop_
 _atom_site_type_symbol
 _atom_site_label
 _atom_site_symmetry_multiplicity
 _atom_site_fract_x
 _atom_site_fract_y
 _atom_site_fract_z
 _atom_site_occupancy
  Cu  Cu1  1  0.49761100  0.57536900  0.57672400  1
  Cu  Cu2  1  0.50424800  0.45850300  0.45823600  1
  Cu  Cu3  1  0.06053700  0.00238300  0.56619700  1
  Cu  Cu4  1  0.94357300  0.00565500  0.44402700  1
  Cu  Cu5  1  0.06883500  0.56762000  0.00763200  1
  Cu  Cu6  1  0.93910400  0.44512400  0.00276000  1
  H  H1  1  0.85266600  0.80119300  0.89896800  1
  H  H2  1  0.65234800  0.71572100  0.11446900  1
  H  H3  1  0.78304700  0.71412100  0.20250700  1
  H  H4  1  0.81740400  0.73613800  0.34806200  1
  H  H5  1  0.46475400  0.81438100  0.60770500  1
  H  H6  1  0.34209500  0.67107700  0.49105900  1
  H  H7  1  0.44839800  0.68758900  0.32413600  1
  H  H8  1  0.57182800  0.83269400  0.44077500  1
  H  H9  1  0.25972600  0.63839900  0.26036100  1
  H  H10  1  0.23685100  0.36876500  0.26059600  1
  H  H11  1  0.06614700  0.28970900  0.19491600  1
  H  H12  1  0.72803600  0.82032200  0.82954900  1
  H  H13  1  0.95395300  0.14307000  0.07270800  1
  H  H14  1  0.93269300  0.10474400  0.92622300  1
  H  H15  1  0.02528000  0.21318100  0.90259000  1
  H  H16  1  0.13817400  0.36003200  0.02445800  1
  H  H17  1  0.16400000  0.55591600  0.45393500  1
  H  H18  1  0.26577500  0.59247800  0.59974600  1
  H  H19  1  0.30074400  0.48287100  0.62171600  1
  H  H20  1  0.13249600  0.29988700  0.35178200  1
  H  H21  1  0.09658500  0.40945800  0.33036200  1
  H  H22  1  0.11285700  0.24391200  0.47909800  1
  H  H23  1  0.68466700  0.80691200  0.68573200  1
  H  H24  1  0.40174100  0.26821000  0.54323000  1
  H  H25  1  0.41069000  0.21948000  0.66096400  1
  H  H26  1  0.44746700  0.10904200  0.67738900  1
  H  H27  1  0.35356700  0.95458500  0.56315600  1
  H  H28  1  0.22344000  0.91093300  0.43134400  1
  H  H29  1  0.18732800  0.02111300  0.41356500  1
  H  H30  1  0.63090500  0.51398600  0.77434200  1
  H  H31  1  0.73995300  0.56023100  0.58928200  1
  H  H32  1  0.86509100  0.56692600  0.57579000  1
  H  H33  1  0.94505500  0.50503000  0.77442300  1
  H  H34  1  0.88847800  0.75126900  0.67886500  1
  H  H35  1  0.74309300  0.50665800  0.87992900  1
  H  H36  1  0.96084200  0.61583500  0.53022500  1
  H  H37  1  0.09077500  0.75187200  0.58405600  1
  H  H38  1  0.10554600  0.81067600  0.48790900  1
  H  H39  1  0.85040100  0.60225700  0.28514500  1
  H  H40  1  0.97804700  0.61387900  0.24823900  1
  H  H41  1  0.02676200  0.89563500  0.26601300  1
  H  H42  1  0.15299000  0.91499500  0.22837300  1
  H  H43  1  0.17939000  0.95055000  0.12172800  1
  H  H44  1  0.07575200  0.85032200  0.96605800  1
  H  H45  1  0.93384700  0.76840800  0.82302600  1
  H  H46  1  0.94314800  0.71561300  0.91763700  1
  H  H47  1  0.91346400  0.68307000  0.02333700  1
  H  H48  1  0.39845500  0.31045700  0.81984500  1
  H  H49  1  0.34360600  0.28156400  0.91558700  1
  H  H50  1  0.19656900  0.25894600  0.88782300  1
  H  H51  1  0.15852500  0.29308900  0.66765100  1
  H  H52  1  0.30650200  0.31770800  0.69701300  1
  H  H53  1  0.14010000  0.37881700  0.88116200  1
  H  H54  1  0.86452900  0.13652300  0.61956400  1
  H  H55  1  0.80485600  0.14350000  0.76207400  1
  H  H56  1  0.88726800  0.87408500  0.63801200  1
  H  H57  1  0.66182000  0.13103000  0.73978100  1
  H  H58  1  0.61340600  0.22203100  0.69067100  1
  H  H59  1  0.70799400  0.32553900  0.66376000  1
  H  H60  1  0.85167100  0.33895700  0.68735800  1
  H  H61  1  0.60047200  0.65437600  0.37878500  1
  H  H62  1  0.59059200  0.76157700  0.31836000  1
  H  H63  1  0.55599700  0.73884700  0.17259600  1
  C  C1  1  0.37810500  0.51084100  0.39962100  1
  C  C2  1  0.83264400  0.79369300  0.83493500  1
  C  C3  1  0.33344500  0.29974900  0.80718400  1
  C  C4  1  0.07928900  0.32551400  0.82377200  1
  C  C5  1  0.00040900  0.31991700  0.81479300  1
  C  C6  1  0.92271700  0.25089400  0.74106700  1
  C  C7  1  0.92524900  0.18988600  0.67703700  1
  C  C8  1  0.00418600  0.19508100  0.68661600  1
  C  C9  1  0.08167300  0.26298800  0.76111600  1
  C  C10  1  0.78371600  0.18370700  0.74072400  1
  C  C11  1  0.70357000  0.17675900  0.72829900  1
  C  C12  1  0.67645400  0.22784400  0.70085300  1
  C  C13  1  0.82407800  0.82585100  0.58082500  1
  C  C14  1  0.72955800  0.28599100  0.68593900  1
  C  C15  1  0.81016100  0.29371800  0.69937600  1
  C  C16  1  0.83755200  0.24302700  0.72731800  1
  C  C17  1  0.60350600  0.92155000  0.60144300  1
  C  C18  1  0.98856800  0.53752400  0.66102600  1
  C  C19  1  0.81572100  0.51509800  0.36677800  1
  C  C20  1  0.80833000  0.82361000  0.50315000  1
  C  C21  1  0.72647300  0.76283800  0.42989400  1
  C  C22  1  0.66269200  0.70482000  0.43621500  1
  C  C23  1  0.67857900  0.70781300  0.51441100  1
  C  C24  1  0.75950700  0.76981800  0.58747000  1
  C  C25  1  0.63339900  0.75163600  0.29355000  1
  C  C26  1  0.61386000  0.73890100  0.21148900  1
  C  C27  1  0.66781500  0.72592400  0.17888500  1
  C  C28  1  0.61364700  0.63837700  0.51596300  1
  C  C29  1  0.74107400  0.72518900  0.22824000  1
  C  C30  1  0.76074400  0.73822500  0.31038300  1
  C  C31  1  0.70776100  0.75277700  0.34398000  1
  C  C32  1  0.46266700  0.78748700  0.54609600  1
  C  C33  1  0.39318900  0.70610400  0.48030300  1
  C  C34  1  0.38862800  0.66942900  0.40090900  1
  C  C35  1  0.45237600  0.71558100  0.38661400  1
  C  C36  1  0.52173900  0.79699800  0.45216900  1
  C  C37  1  0.52754900  0.83313100  0.53219800  1
  C  C38  1  0.25376200  0.57866400  0.26012300  1
  C  C39  1  0.62470200  0.52401200  0.63535200  1
  C  C40  1  0.18388300  0.49890800  0.19116900  1
  C  C41  1  0.17691600  0.42252800  0.19164600  1
  C  C42  1  0.23986000  0.42789100  0.26130300  1
  C  C43  1  0.30815200  0.50788500  0.33113300  1
  C  C44  1  0.31463600  0.58369600  0.33061200  1
  C  C45  1  0.05730200  0.27362100  0.13084300  1
  C  C46  1  0.99404700  0.19106700  0.06212300  1
  C  C47  1  0.98209200  0.16958100  0.98003600  1
  C  C48  1  0.03382000  0.23053700  0.96677300  1
  C  C49  1  0.09686100  0.31328800  0.03535700  1
  C  C50  1  0.38810900  0.39606400  0.51928200  1
  C  C51  1  0.10809600  0.33562000  0.11764300  1
  C  C52  1  0.23680100  0.52831800  0.54521000  1
  C  C53  1  0.25681200  0.46694000  0.55738900  1
  C  C54  1  0.22058100  0.38520900  0.48772800  1
  C  C55  1  0.16204000  0.36421600  0.40630700  1
  C  C56  1  0.14189600  0.42560700  0.39421900  1
  C  C57  1  0.17964300  0.50778300  0.46353900  1
  C  C58  1  0.17621800  0.24873500  0.49290000  1
  C  C59  1  0.19347300  0.18681000  0.50723900  1
  C  C60  1  0.27540100  0.19400300  0.52639800  1
  C  C61  1  0.76261400  0.80418100  0.79592900  1
  C  C62  1  0.33870700  0.26349600  0.53120000  1
  C  C63  1  0.32191000  0.32649900  0.51920900  1
  C  C64  1  0.24051300  0.31953700  0.50080300  1
  C  C65  1  0.36926700  0.15176400  0.61032200  1
  C  C66  1  0.38990400  0.08973300  0.61976100  1
  C  C67  1  0.33728600  0.00316000  0.55574900  1
  C  C68  1  0.26431800  0.97868900  0.48196700  1
  C  C69  1  0.24365600  0.04065500  0.47241800  1
  C  C70  1  0.29539100  0.12731500  0.53714100  1
  C  C71  1  0.78371200  0.54842000  0.63203000  1
  C  C72  1  0.73754300  0.79544900  0.71458000  1
  C  C73  1  0.85560400  0.55264600  0.62390400  1
  C  C74  1  0.91347100  0.53680800  0.67495300  1
  C  C75  1  0.90149800  0.52147600  0.73820200  1
  C  C76  1  0.83329500  0.52477900  0.75256900  1
  C  C77  1  0.77104000  0.53331500  0.69535000  1
  C  C78  1  0.69730600  0.52798000  0.70223700  1
  C  C79  1  0.68840700  0.51869500  0.76894900  1
  C  C80  1  0.75120800  0.51302800  0.82761600  1
  C  C81  1  0.82406900  0.51621800  0.82067600  1
  C  C82  1  0.00098500  0.88225200  0.39099000  1
  C  C83  1  0.78138200  0.77435100  0.67137000  1
  C  C84  1  0.87865200  0.88851700  0.50236600  1
  C  C85  1  0.00373800  0.12558900  0.62016100  1
  C  C86  1  0.12493900  0.11759700  0.50551500  1
  C  C87  1  0.00145700  0.38745300  0.88400500  1
  C  C88  1  0.11816600  0.49879500  0.12112100  1
  C  C89  1  0.00358900  0.62545700  0.12337300  1
  C  C90  1  0.88974300  0.51234900  0.88751300  1
  C  C91  1  0.03709900  0.71998200  0.51885800  1
  C  C92  1  0.04457900  0.75417100  0.46539800  1
  C  C93  1  0.97672000  0.71267900  0.38170900  1
  C  C94  1  0.85251000  0.76579000  0.71138500  1
  C  C95  1  0.90232900  0.63624500  0.35161500  1
  C  C96  1  0.89536600  0.60055700  0.40401000  1
  C  C97  1  0.96328800  0.64279900  0.48807500  1
  C  C98  1  0.98762100  0.67542800  0.25123500  1
  C  C99  1  0.00257800  0.69296400  0.19047300  1
  C  C100  1  0.01810400  0.77350700  0.19638600  1
  C  C101  1  0.01718100  0.83388500  0.26248600  1
  C  C102  1  0.00359700  0.81650600  0.32410900  1
  C  C103  1  0.99009900  0.73685900  0.31900900  1
  C  C104  1  0.10600600  0.87172600  0.16009600  1
  C  C105  1  0.87793700  0.77520000  0.79274800  1
  C  C106  1  0.12123100  0.89155700  0.10024800  1
  C  C107  1  0.06309600  0.83539300  0.01298900  1
  C  C108  1  0.98883200  0.76034400  0.98576500  1
  C  C109  1  0.97256200  0.74146200  0.04543800  1
  C  C110  1  0.03243600  0.79569500  0.13272700  1
  C  C111  1  0.30269400  0.28354000  0.86080100  1
  C  C112  1  0.22011000  0.27073800  0.84509100  1
  C  C113  1  0.16729200  0.27220700  0.77461600  1
  C  C114  1  0.19850800  0.28923400  0.72143200  1
  C  C115  1  0.28165800  0.30334800  0.73799900  1
  O  O1  1  0.38982200  0.54452000  0.47907500  1
  O  O2  1  0.93625400  0.89955500  0.36698600  1
  O  O3  1  0.95886600  0.90075900  0.54100200  1
  O  O4  1  0.85982000  0.93494800  0.46729500  1
  O  O5  1  0.03610000  0.07873300  0.64319300  1
  O  O6  1  0.96883500  0.11127900  0.53985100  1
  O  O7  1  0.14434400  0.10436900  0.57248100  1
  O  O8  1  0.04494900  0.07563200  0.43908700  1
  O  O9  1  0.06230800  0.46908800  0.91995000  1
  O  O10  1  0.94380200  0.36374900  0.90925800  1
  O  O11  1  0.14652500  0.55208600  0.09326900  1
  O  O12  1  0.42638200  0.47907200  0.37826300  1
  O  O13  1  0.03425900  0.44955100  0.09246900  1
  O  O14  1  0.06222600  0.64905300  0.09929900  1
  O  O15  1  0.94661800  0.54338500  0.09169200  1
  O  O16  1  0.97373400  0.56154100  0.91641600  1
  O  O17  1  0.86166200  0.46230900  0.91859900  1
  O  O18  1  0.56554600  0.65670700  0.54963100  1
  O  O19  1  0.60518100  0.55973000  0.48189600  1
  O  O20  1  0.60652600  0.58831800  0.65619900  1
  O  O21  1  0.58116900  0.45601700  0.55644000  1
  O  O22  1  0.43068300  0.47608800  0.58558900  1
  O  O23  1  0.40223300  0.37531500  0.45278300  1
  O  O24  1  0.06727500  0.92661400  0.47070400  1
  F  F1  1  0.59933200  0.94693200  0.67723400  1
  F  F2  1  0.60216600  0.98129500  0.57375200  1
  F  F3  1  0.68093500  0.91961000  0.61717300  1
  F  F4  1  0.04230300  0.62011500  0.67824500  1
  F  F5  1  0.95629100  0.47773100  0.57578500  1
  F  F6  1  0.03749400  0.51598400  0.71464200  1
  F  F7  1  0.82584600  0.48159400  0.42242500  1
  F  F8  1  0.80233700  0.45606800  0.28931100  1
  F  F9  1  0.74344400  0.52690400  0.35175700  1
