data_DB0-m3_o11_o23_f0_pcu.sym.3_repeat
_audit_creation_date              2024-02-23
_audit_creation_method            'Materials Studio'
_symmetry_space_group_name_H-M    'P1'
_symmetry_Int_Tables_number       1
_symmetry_cell_setting            triclinic
loop_
_symmetry_equiv_pos_as_xyz
  x,y,z
_cell_length_a                    15.9409
_cell_length_b                    11.1317
_cell_length_c                    9.9077
_cell_angle_alpha                 89.9974
_cell_angle_beta                  89.9750
_cell_angle_gamma                 89.9982
loop_
_atom_site_label
_atom_site_type_symbol
_atom_site_fract_x
_atom_site_fract_y
_atom_site_fract_z
_atom_site_U_iso_or_equiv
_atom_site_adp_type
_atom_site_occupancy
O1     O     0.51521   0.32387   0.61183   0.00000  Uiso   1.00
O2     O     0.51066   0.32584   0.37917   0.00000  Uiso   1.00
C1     C     0.51529   0.26897   0.49511   0.00000  Uiso   1.00
O3     O     0.38210   0.49116   0.62286   0.00000  Uiso   1.00
O4     O     0.37881   0.49508   0.39011   0.00000  Uiso   1.00
C2     C     0.34153   0.48997   0.50774   0.00000  Uiso   1.00
Zn1    Zn    0.50754   0.50146   0.65391   0.00000  Uiso   1.00
Zn2    Zn    0.50276   0.50533   0.34664   0.00000  Uiso   1.00
O5     O     0.49931   0.68076   0.62166   0.00000  Uiso   1.00
O6     O     0.49681   0.68339   0.38821   0.00000  Uiso   1.00
O7     O     0.63148   0.51356   0.61089   0.00000  Uiso   1.00
O8     O     0.62826   0.51493   0.37730   0.00000  Uiso   1.00
C3     C     0.49507   0.73798   0.50583   0.00000  Uiso   1.00
C4     C     0.66871   0.51699   0.49280   0.00000  Uiso   1.00
C5     C     0.04831   0.43169   0.62198   0.00000  Uiso   1.00
C6     C     0.05216   0.43711   0.37294   0.00000  Uiso   1.00
C7     C     0.95698   0.43752   0.37402   0.00000  Uiso   1.00
H1     H     0.92347   0.35804   0.63223   0.00000  Uiso   1.00
H2     H     0.06390   0.33479   0.61503   0.00000  Uiso   1.00
H3     H     0.07373   0.34240   0.37303   0.00000  Uiso   1.00
H4     H     0.93385   0.34377   0.38125   0.00000  Uiso   1.00
H5     H     0.93243   0.47802   0.27973   0.00000  Uiso   1.00
C8     C     0.75872   0.51727   0.49064   0.00000  Uiso   1.00
C9     C     0.08426   0.49790   0.50139   0.00000  Uiso   1.00
C10    C     0.95390   0.44731   0.62368   0.00000  Uiso   1.00
C11    C     0.92596   0.50871   0.49453   0.00000  Uiso   1.00
C12    C     0.96200   0.63461   0.48934   0.00000  Uiso   1.00
C13    C     0.05606   0.62816   0.50921   0.00000  Uiso   1.00
C14    C     0.83429   0.51457   0.49147   0.00000  Uiso   1.00
C15    C     0.17595   0.49234   0.50735   0.00000  Uiso   1.00
C16    C     0.25152   0.48973   0.50961   0.00000  Uiso   1.00
H6     H     0.07189   0.66461   0.61022   0.00000  Uiso   1.00
H7     H     0.08848   0.68385   0.43256   0.00000  Uiso   1.00
H8     H     0.93391   0.69032   0.57042   0.00000  Uiso   1.00
H9     H     0.07523   0.46825   0.71666   0.00000  Uiso   1.00
H10    H     0.93559   0.50297   0.71174   0.00000  Uiso   1.00
H11    H     0.94771   0.67615   0.39024   0.00000  Uiso   1.00
C17    C     0.50596   0.93590   0.40186   0.00000  Uiso   1.00
C18    C     0.48428   0.86898   0.50963   0.00000  Uiso   1.00
H12    H     0.52848   0.89102   0.31184   0.00000  Uiso   1.00
C19    C     0.49977   0.06833   0.39515   0.00000  Uiso   1.00
C20    C     0.52319   0.13799   0.49804   0.00000  Uiso   1.00
H13    H     0.48050   0.10919   0.30084   0.00000  Uiso   1.00
H14    H     0.54780   0.09837   0.58938   0.00000  Uiso   1.00
C21    C     0.54326   0.58381   0.92665   0.00000  Uiso   1.00
N1     N     0.51224   0.49808   0.85561   0.00000  Uiso   1.00
H15    H     0.56825   0.66263   0.87661   0.00000  Uiso   1.00
H16    H     0.49933   0.41910   0.90498   0.00000  Uiso   1.00
C22    C     0.55006   0.57482   0.07528   0.00000  Uiso   1.00
N2     N     0.49912   0.51022   0.14492   0.00000  Uiso   1.00
H17    H     0.59714   0.62806   0.12673   0.00000  Uiso   1.00
H18    H     0.44882   0.47379   0.09478   0.00000  Uiso   1.00
C23    C     0.44072   0.92003   0.63099   0.00000  Uiso   1.00
H19    H     0.39840   0.85111   0.67450   0.00000  Uiso   1.00
H20    H     0.48721   0.94536   0.70917   0.00000  Uiso   1.00
H21    H     0.40067   0.99757   0.60330   0.00000  Uiso   1.00
C24    C     0.08437   0.49550   0.24357   0.00000  Uiso   1.00
H22    H     0.06362   0.44073   0.15622   0.00000  Uiso   1.00
H23    H     0.05917   0.58754   0.23075   0.00000  Uiso   1.00
H24    H     0.15385   0.49832   0.24199   0.00000  Uiso   1.00
