# Generated by REPEAT Assigner based on pymatgen
data_DB0-m3_o11_o20_f0_nbo.sym.67_sqe
_audit_creation_date              2022-05-24
_audit_creation_method            REPEAT_Assigner
_cell_length_a                    31.601284
_cell_length_b                    31.275269
_cell_length_c                    21.428607
_cell_angle_alpha                 90.000000
_cell_angle_beta                  137.488342
_cell_angle_gamma                 90.000000
_cell_volume                      14311.313496
_symmetry_space_group_name_H-M    P1
_symmetry_Int_Tables_number       1
loop_
    _symmetry_equiv_pos_site_id
    _symmetry_equiv_pos_as_xyz
    1  x,y,z
loop_
    _atom_site_type_symbol
    _atom_site_label
    _atom_site_fract_x
    _atom_site_fract_y
    _atom_site_fract_z
    _atom_type_partial_charge
    O   O1    0.832504  0.763537  0.499987  -0.664179
    O   O2    0.194150  0.225644  0.501730  -0.634183
    O   O3    0.167496  0.763538  0.500013  -0.664168
    O   O4    0.805850  0.225644  0.498270  -0.634181
    O   O5    0.332504  0.263537  0.499987  -0.664159
    O   O6    0.694150  0.725644  0.501730  -0.634168
    O   O7    0.667496  0.263538  0.500013  -0.664165
    O   O8    0.305850  0.725644  0.498270  -0.634174
    O   O9    0.775343  0.816360  0.486955  -0.606927
    O   O10   0.250736  0.172906  0.513222  -0.627438
    O   O11   0.224658  0.816360  0.513046  -0.606900
    O   O12   0.749264  0.172906  0.486778  -0.627449
    O   O13   0.275343  0.316360  0.486955  -0.606894
    O   O14   0.750736  0.672906  0.513222  -0.627390
    O   O15   0.724658  0.316360  0.513046  -0.606874
    O   O16   0.249264  0.672906  0.486778  -0.627402
    C   C1    0.817180  0.803723  0.491380  0.488161
    C   C2    0.210014  0.185353  0.510893  0.475811
    C   C3    0.182821  0.803723  0.508620  0.488115
    C   C4    0.789986  0.185353  0.489107  0.475777
    C   C5    0.317180  0.303723  0.491380  0.488123
    C   C6    0.710014  0.685353  0.510893  0.475704
    C   C7    0.682821  0.303723  0.508620  0.488117
    C   C8    0.289986  0.685353  0.489107  0.475720
    O   O17   0.720290  0.713841  0.366869  -0.708274
    O   O18   0.305818  0.275453  0.633491  -0.669607
    O   O19   0.279710  0.713841  0.633131  -0.708284
    O   O20   0.694183  0.275453  0.366510  -0.669642
    O   O21   0.220290  0.213841  0.366869  -0.708270
    O   O22   0.805818  0.775453  0.633491  -0.669605
    O   O23   0.779710  0.213841  0.633131  -0.708276
    O   O24   0.194183  0.775453  0.366510  -0.669611
    O   O25   0.666548  0.767840  0.358715  -0.672328
    O   O26   0.359337  0.220977  0.641929  -0.691713
    O   O27   0.333452  0.767840  0.641285  -0.672335
    O   O28   0.640663  0.220977  0.358072  -0.691755
    O   O29   0.166548  0.267840  0.358715  -0.672321
    O   O30   0.859337  0.720977  0.641929  -0.691706
    O   O31   0.833452  0.267840  0.641285  -0.672323
    O   O32   0.140663  0.720977  0.358072  -0.691710
    C   C9    0.671771  0.739328  0.319947  0.873419
    C   C10   0.353891  0.249625  0.680425  0.854451
    C   C11   0.328229  0.739328  0.680054  0.873440
    C   C12   0.646109  0.249625  0.319575  0.854650
    C   C13   0.171771  0.239328  0.319947  0.873390
    C   C14   0.853891  0.749625  0.680425  0.854450
    C   C15   0.828229  0.239328  0.680054  0.873409
    C   C16   0.146109  0.749625  0.319575  0.854469
    Zn  Zn1   0.799000  0.710058  0.505134  1.310880
    Zn  Zn2   0.227135  0.279159  0.495359  1.286154
    Zn  Zn3   0.201000  0.710058  0.494867  1.310893
    Zn  Zn4   0.772865  0.279159  0.504641  1.286141
    Zn  Zn5   0.299000  0.210058  0.505134  1.310883
    Zn  Zn6   0.727135  0.779159  0.495359  1.286165
    Zn  Zn7   0.701000  0.210058  0.494867  1.310899
    Zn  Zn8   0.272865  0.779159  0.504641  1.286160
    C   C17   0.620443  0.735137  0.221281  -0.166702
    C   C18   0.400717  0.250970  0.779200  -0.152311
    C   C19   0.379557  0.735137  0.778720  -0.166732
    C   C20   0.599283  0.250970  0.220801  -0.152534
    C   C21   0.120443  0.235137  0.221281  -0.166684
    C   C22   0.900717  0.750970  0.779200  -0.152330
    C   C23   0.879557  0.235137  0.778720  -0.166714
    C   C24   0.099283  0.750970  0.220801  -0.152370
    C   C25   0.575915  0.732808  0.138434  0.021775
    C   C26   0.438533  0.251716  0.861975  0.019542
    C   C27   0.424085  0.732808  0.861567  0.021808
    C   C28   0.561467  0.251717  0.138025  0.019748
    C   C29   0.075915  0.232808  0.138434  0.021765
    C   C30   0.938533  0.751716  0.861975  0.019572
    C   C31   0.924085  0.232808  0.861567  0.021798
    C   C32   0.061467  0.751717  0.138025  0.019620
    C   C33   0.522784  0.731479  0.041389  0.002706
    C   C34   0.481712  0.252154  0.958733  0.000463
    C   C35   0.477216  0.731479  0.958611  0.002676
    C   C36   0.518288  0.252154  0.041268  0.000278
    C   C37   0.022784  0.231479  0.041389  0.002708
    C   C38   0.981712  0.752154  0.958733  0.000409
    C   C39   0.977216  0.231479  0.958611  0.002679
    C   C40   0.018288  0.752154  0.041268  0.000361
    C   C41   0.860487  0.901167  0.437142  -0.101481
    C   C42   0.132583  0.125013  0.562059  -0.128054
    C   C43   0.139514  0.901167  0.562858  -0.101396
    C   C44   0.867417  0.125013  0.437942  -0.128060
    C   C45   0.360487  0.401167  0.437142  -0.101429
    C   C46   0.632583  0.625013  0.562059  -0.128014
    C   C47   0.639514  0.401167  0.562858  -0.101344
    C   C48   0.367417  0.625013  0.437942  -0.128014
    C   C49   0.914584  0.918921  0.513932  -0.057363
    C   C50   0.083408  0.103480  0.486408  -0.027224
    C   C51   0.085417  0.918922  0.486068  -0.057462
    C   C52   0.916592  0.103479  0.513592  -0.027206
    C   C53   0.414584  0.418921  0.513932  -0.057425
    C   C54   0.583408  0.603480  0.486408  -0.027244
    C   C55   0.585417  0.418922  0.486068  -0.057528
    C   C56   0.416592  0.603479  0.513592  -0.027221
    H   H1    0.837686  0.912867  0.370562  0.101055
    H   H2    0.147729  0.120090  0.626237  0.117824
    H   H3    0.162314  0.912867  0.629438  0.101035
    H   H4    0.852270  0.120089  0.373763  0.117822
    H   H5    0.337686  0.412867  0.370562  0.101047
    H   H6    0.647729  0.620090  0.626237  0.117835
    H   H7    0.662314  0.412867  0.629438  0.101028
    H   H8    0.352270  0.620089  0.373763  0.117830
    H   H9    0.935982  0.910146  0.581164  0.068950
    H   H10   0.064379  0.111213  0.420218  0.056884
    H   H11   0.064020  0.910147  0.418836  0.068965
    H   H12   0.935620  0.111212  0.579782  0.056870
    H   H13   0.435982  0.410146  0.581164  0.068961
    H   H14   0.564379  0.611213  0.420218  0.056904
    H   H15   0.564020  0.410147  0.418836  0.068981
    H   H16   0.435620  0.611212  0.579782  0.056894
    C   C57   0.826070  0.868416  0.436096  -0.162519
    C   C58   0.164151  0.158577  0.559764  -0.095270
    C   C59   0.173931  0.868417  0.563905  -0.162540
    C   C60   0.835849  0.158576  0.440236  -0.095315
    C   C61   0.326070  0.368416  0.436096  -0.162519
    C   C62   0.664151  0.658577  0.559764  -0.095343
    C   C63   0.673931  0.368417  0.563905  -0.162523
    C   C64   0.335849  0.658576  0.440236  -0.095372
    C   C65   0.853706  0.835367  0.495905  0.065046
    C   C66   0.182277  0.151725  0.519956  0.072857
    C   C67   0.146295  0.835367  0.504094  0.065082
    C   C68   0.817723  0.151725  0.480045  0.072860
    C   C69   0.353706  0.335367  0.495905  0.065053
    C   C70   0.682277  0.651725  0.519956  0.073176
    C   C71   0.646295  0.335367  0.504094  0.065055
    C   C72   0.317723  0.651725  0.480045  0.073156
    O   O33   0.418809  0.556263  0.428200  -0.685031
    O   O34   0.581362  0.464701  0.571598  -0.693272
    O   O35   0.581191  0.556263  0.571800  -0.685031
    O   O36   0.418638  0.464700  0.428402  -0.693249
    O   O37   0.918809  0.056263  0.428200  -0.685004
    O   O38   0.081362  0.964701  0.571598  -0.693274
    O   O39   0.081191  0.056263  0.571800  -0.685004
    O   O40   0.918638  0.964700  0.428402  -0.693252
    O   O41   0.500309  0.554701  0.587640  -0.675860
    O   O42   0.499726  0.465965  0.412459  -0.682581
    O   O43   0.499690  0.554701  0.412361  -0.675863
    O   O44   0.500274  0.465964  0.587541  -0.682557
    O   O45   0.000309  0.054701  0.587640  -0.675849
    O   O46   0.999726  0.965965  0.412459  -0.682587
    O   O47   0.999690  0.054701  0.412361  -0.675854
    O   O48   0.000274  0.965964  0.587541  -0.682566
    C   C73   0.446641  0.569833  0.509392  0.654892
    C   C74   0.553983  0.451313  0.490545  0.689457
    C   C75   0.553358  0.569833  0.490608  0.654911
    C   C76   0.446018  0.451313  0.509455  0.689393
    C   C77   0.946641  0.069833  0.509392  0.654871
    C   C78   0.053983  0.951313  0.490545  0.689437
    C   C79   0.053358  0.069833  0.490608  0.654888
    C   C80   0.946018  0.951313  0.509455  0.689374
    Zn  Zn9   0.445282  0.510351  0.395694  1.307455
    Zn  Zn10  0.554718  0.510351  0.604306  1.307453
    Zn  Zn11  0.945282  0.010351  0.395694  1.307451
    Zn  Zn12  0.054718  0.010351  0.604306  1.307448
    C   C81   0.757591  0.870948  0.358321  0.299221
    C   C82   0.723238  0.839247  0.291874  -0.137583
    C   C83   0.659209  0.843324  0.216524  -0.277826
    C   C84   0.629344  0.879003  0.207267  0.375159
    F   F1    0.566406  0.882926  0.133221  -0.216854
    C   C85   0.663629  0.910915  0.272808  -0.228782
    C   C86   0.727711  0.907056  0.347709  -0.227171
    H   H17   0.746449  0.811484  0.297918  0.114898
    H   H18   0.632442  0.818683  0.164266  0.172073
    H   H19   0.640329  0.939086  0.265223  0.143419
    H   H20   0.754541  0.932184  0.398798  0.148724
    C   C87   0.180844  0.197765  0.611817  0.186707
    C   C88   0.242579  0.210762  0.683593  -0.110401
    C   C89   0.257770  0.246642  0.734280  -0.280390
    C   C90   0.211573  0.269299  0.714427  0.394251
    F   F2    0.226557  0.304527  0.764358  -0.224262
    C   C91   0.150229  0.255801  0.644503  -0.284045
    C   C92   0.134974  0.219886  0.593856  -0.126405
    H   H21   0.279296  0.192702  0.700902  0.115260
    H   H22   0.306000  0.256864  0.790012  0.164011
    H   H23   0.114062  0.273319  0.629511  0.165484
    H   H24   0.086773  0.209442  0.539213  0.113354
    C   C93   0.242409  0.870947  0.641680  0.299207
    C   C94   0.276762  0.839246  0.708127  -0.137553
    C   C95   0.340790  0.843323  0.783478  -0.277840
    C   C96   0.370656  0.879002  0.792736  0.375160
    F   F3    0.433594  0.882924  0.866783  -0.216852
    C   C97   0.336373  0.910914  0.727195  -0.228773
    C   C98   0.272290  0.907055  0.652293  -0.227193
    H   H25   0.253550  0.811484  0.702081  0.114895
    H   H26   0.367556  0.818682  0.835736  0.172077
    H   H27   0.359674  0.939085  0.734781  0.143418
    H   H28   0.245462  0.932184  0.601204  0.148738
    C   C99   0.819156  0.197765  0.388184  0.186869
    C   C100  0.757421  0.210761  0.316407  -0.110533
    C   C101  0.742230  0.246641  0.265721  -0.280304
    C   C102  0.788427  0.269299  0.285573  0.394179
    F   F4    0.773443  0.304526  0.235643  -0.224232
    C   C103  0.849771  0.255800  0.355498  -0.283967
    C   C104  0.865026  0.219885  0.406144  -0.126519
    H   H29   0.720704  0.192702  0.299098  0.115287
    H   H30   0.694000  0.256864  0.209989  0.163989
    H   H31   0.885938  0.273318  0.370489  0.165461
    H   H32   0.913227  0.209441  0.460788  0.113381
    C   C105  0.257591  0.370948  0.358321  0.299177
    C   C106  0.223238  0.339247  0.291874  -0.137554
    C   C107  0.159209  0.343324  0.216524  -0.277829
    C   C108  0.129344  0.379003  0.207267  0.375155
    F   F5    0.066406  0.382926  0.133221  -0.216854
    C   C109  0.163629  0.410915  0.272808  -0.228774
    C   C110  0.227711  0.407056  0.347709  -0.227168
    H   H33   0.246449  0.311484  0.297918  0.114894
    H   H34   0.132442  0.318683  0.164266  0.172073
    H   H35   0.140329  0.439086  0.265223  0.143417
    H   H36   0.254541  0.432184  0.398798  0.148733
    C   C111  0.680844  0.697765  0.611817  0.186661
    C   C112  0.742579  0.710762  0.683593  -0.110358
    C   C113  0.757770  0.746642  0.734280  -0.280421
    C   C114  0.711573  0.769299  0.714427  0.394282
    F   F6    0.726557  0.804527  0.764358  -0.224275
    C   C115  0.650229  0.755801  0.644503  -0.284057
    C   C116  0.634974  0.719886  0.593856  -0.126399
    H   H37   0.779296  0.692702  0.700902  0.115255
    H   H38   0.806000  0.756864  0.790012  0.164018
    H   H39   0.614062  0.773319  0.629511  0.165487
    H   H40   0.586773  0.709442  0.539213  0.113357
    C   C117  0.742409  0.370947  0.641680  0.299156
    C   C118  0.776762  0.339246  0.708127  -0.137531
    C   C119  0.840790  0.343323  0.783478  -0.277839
    C   C120  0.870656  0.379002  0.792736  0.375152
    F   F7    0.933594  0.382924  0.866783  -0.216852
    C   C121  0.836373  0.410914  0.727195  -0.228759
    C   C122  0.772290  0.407055  0.652293  -0.227193
    H   H41   0.753550  0.311484  0.702081  0.114891
    H   H42   0.867556  0.318682  0.835736  0.172076
    H   H43   0.859674  0.439085  0.734781  0.143415
    H   H44   0.745462  0.432184  0.601204  0.148747
    C   C123  0.319156  0.697765  0.388184  0.186788
    C   C124  0.257421  0.710761  0.316407  -0.110461
    C   C125  0.242230  0.746641  0.265721  -0.280347
    C   C126  0.288427  0.769299  0.285573  0.394204
    F   F8    0.273443  0.804526  0.235643  -0.224236
    C   C127  0.349771  0.755800  0.355498  -0.283979
    C   C128  0.365026  0.719885  0.406144  -0.126495
    H   H45   0.220704  0.692702  0.299098  0.115283
    H   H46   0.194000  0.756864  0.209989  0.163995
    H   H47   0.385938  0.773318  0.370489  0.165461
    H   H48   0.413227  0.709441  0.460788  0.113378
    C   C129  0.921044  0.826355  0.565159  0.135078
    C   C130  0.954562  0.820344  0.656043  -0.048963
    C   C131  0.017209  0.809944  0.721817  -0.332596
    C   C132  0.046356  0.804700  0.696703  0.450887
    F   F9    0.107856  0.794172  0.761160  -0.241388
    C   C133  0.012719  0.809642  0.605758  -0.316205
    C   C134  0.950098  0.820322  0.539905  -0.106842
    H   H49   0.931927  0.824225  0.676208  0.099817
    H   H50   0.043366  0.805682  0.792985  0.168536
    H   H51   0.035468  0.804715  0.586160  0.159053
    H   H52   0.923620  0.823421  0.468440  0.118702
    C   C135  0.182199  0.108423  0.493214  0.092628
    C   C136  0.152406  0.100845  0.404700  -0.024269
    C   C137  0.153415  0.060539  0.379749  -0.350736
    C   C138  0.184973  0.027823  0.443522  0.494137
    F   F10   0.186110  0.988246  0.419062  -0.254756
    C   C139  0.215901  0.035498  0.532458  -0.374272
    C   C140  0.214793  0.075722  0.557444  -0.091386
    H   H53   0.127571  0.126382  0.354388  0.107738
    H   H54   0.129542  0.054616  0.310167  0.164824
    H   H55   0.241386  0.010063  0.582906  0.192246
    H   H56   0.240050  0.081598  0.627766  0.113535
    C   C141  0.078956  0.826356  0.434839  0.135018
    C   C142  0.045439  0.820345  0.343955  -0.048938
    C   C143  0.982792  0.809945  0.278180  -0.332584
    C   C144  0.953643  0.804703  0.303292  0.450855
    F   F11   0.892143  0.794175  0.238833  -0.241365
    C   C145  0.987279  0.809645  0.394236  -0.316222
    C   C146  0.049900  0.820325  0.460091  -0.106775
    H   H57   0.068075  0.824225  0.323792  0.099815
    H   H58   0.956636  0.805684  0.207013  0.168532
    H   H59   0.964529  0.804720  0.413832  0.159051
    H   H60   0.076377  0.823423  0.531555  0.118678
    C   C147  0.817800  0.108422  0.506786  0.092683
    C   C148  0.847594  0.100845  0.595300  -0.024275
    C   C149  0.846584  0.060539  0.620251  -0.350744
    C   C150  0.815026  0.027823  0.556478  0.494128
    F   F12   0.813888  0.988246  0.580938  -0.254750
    C   C151  0.784098  0.035498  0.467542  -0.374277
    C   C152  0.785206  0.075722  0.442556  -0.091403
    H   H61   0.872429  0.126381  0.645613  0.107749
    H   H62   0.870457  0.054616  0.689833  0.164826
    H   H63   0.758612  0.010063  0.417093  0.192252
    H   H64   0.759949  0.081598  0.372233  0.113540
    C   C153  0.421044  0.326355  0.565159  0.135048
    C   C154  0.454562  0.320344  0.656043  -0.048948
    C   C155  0.517209  0.309944  0.721817  -0.332590
    C   C156  0.546356  0.304700  0.696703  0.450862
    F   F13   0.607856  0.294172  0.761160  -0.241383
    C   C157  0.512719  0.309642  0.605758  -0.316161
    C   C158  0.450098  0.320322  0.539905  -0.106841
    H   H65   0.431927  0.324225  0.676208  0.099811
    H   H66   0.543366  0.305682  0.792985  0.168534
    H   H67   0.535468  0.304715  0.586160  0.159033
    H   H68   0.423620  0.323421  0.468440  0.118704
    C   C159  0.682199  0.608423  0.493214  0.091928
    C   C160  0.652406  0.600845  0.404700  -0.023944
    C   C161  0.653415  0.560539  0.379749  -0.350861
    C   C162  0.684973  0.527823  0.443522  0.494283
    F   F14   0.686110  0.488246  0.419062  -0.254776
    C   C163  0.715901  0.535498  0.532458  -0.374440
    C   C164  0.714793  0.575722  0.557444  -0.090970
    H   H69   0.627571  0.626382  0.354388  0.107690
    H   H70   0.629542  0.554616  0.310167  0.164827
    H   H71   0.741386  0.510063  0.582906  0.192249
    H   H72   0.740050  0.581598  0.627766  0.113457
    C   C165  0.578956  0.326356  0.434839  0.135008
    C   C166  0.545439  0.320345  0.343955  -0.048927
    C   C167  0.482792  0.309945  0.278180  -0.332569
    C   C168  0.453643  0.304703  0.303292  0.450821
    F   F15   0.392143  0.294175  0.238833  -0.241359
    C   C169  0.487279  0.309645  0.394236  -0.316172
    C   C170  0.549900  0.320325  0.460091  -0.106783
    H   H73   0.568075  0.324225  0.323792  0.099797
    H   H74   0.456636  0.305684  0.207013  0.168531
    H   H75   0.464529  0.304720  0.413832  0.159032
    H   H76   0.576377  0.323423  0.531555  0.118683
    C   C171  0.317800  0.608422  0.506786  0.091943
    C   C172  0.347594  0.600845  0.595300  -0.023941
    C   C173  0.346584  0.560539  0.620251  -0.350826
    C   C174  0.315026  0.527823  0.556478  0.494243
    F   F16   0.313888  0.488246  0.580938  -0.254764
    C   C175  0.284098  0.535498  0.467542  -0.374405
    C   C176  0.285206  0.575722  0.442556  -0.091013
    H   H77   0.372429  0.626381  0.645613  0.107695
    H   H78   0.370457  0.554616  0.689833  0.164806
    H   H79   0.258612  0.510063  0.417093  0.192244
    H   H80   0.259949  0.581598  0.372233  0.113472
