# Generated by REPEAT Assigner based on pymatgen
data_DB0-m2_o16_o16_f0_pcu.sym.57
_audit_creation_date              2022-05-24
_audit_creation_method            REPEAT_Assigner
_cell_length_a                    20.319670
_cell_length_b                    19.201397
_cell_length_c                    12.223119
_cell_angle_alpha                 90.000000
_cell_angle_beta                  130.119132
_cell_angle_gamma                 90.000000
_cell_volume                      3646.919412
_symmetry_space_group_name_H-M    P1
_symmetry_Int_Tables_number       1
loop_
    _symmetry_equiv_pos_site_id
    _symmetry_equiv_pos_as_xyz
    1  x,y,z
loop_
    _atom_site_type_symbol
    _atom_site_label
    _atom_site_fract_x
    _atom_site_fract_y
    _atom_site_fract_z
    _atom_type_partial_charge
    O   O1    0.614266  0.927782  0.565650  -0.622839
    O   O2    0.612535  0.067773  0.559475  -0.610563
    O   O3    0.112842  0.427287  0.559938  -0.618532
    O   O4    0.113909  0.567290  0.565306  -0.618106
    O   O5    0.570658  0.926539  0.697675  -0.535129
    O   O6    0.568083  0.073404  0.689814  -0.508650
    O   O7    0.068766  0.422198  0.691034  -0.544681
    O   O8    0.069703  0.569082  0.696291  -0.502202
    C   C1    0.619128  0.902808  0.670433  0.708428
    C   C2    0.616442  0.095570  0.661377  0.686473
    C   C3    0.117006  0.399841  0.662391  0.718103
    C   C4    0.118445  0.592585  0.669527  0.681580
    Cu  Cu1   0.529550  0.996523  0.427153  0.888277
    Cu  Cu2   0.029533  0.498271  0.427192  0.887787
    Cu  Cu3   0.483111  0.998803  0.587860  0.772707
    Cu  Cu4   0.982968  0.496157  0.587726  0.772183
    O   O9    0.442047  0.068749  0.316747  -0.580937
    O   O10   0.443977  0.922459  0.323318  -0.586457
    O   O11   0.943601  0.572058  0.322913  -0.582153
    O   O12   0.942367  0.425774  0.317159  -0.580343
    O   O13   0.397586  0.066933  0.448673  -0.600224
    O   O14   0.399952  0.927538  0.455957  -0.573022
    O   O15   0.899031  0.566730  0.454598  -0.592491
    O   O16   0.898224  0.427316  0.449676  -0.580344
    C   C5    0.391345  0.089969  0.341311  0.703281
    C   C6    0.394213  0.902041  0.350450  0.681550
    C   C7    0.893365  0.592196  0.349174  0.699101
    C   C8    0.892004  0.404274  0.342320  0.678868
    C   C9    0.680296  0.314863  0.123134  -0.326370
    C   C10   0.683738  0.684871  0.136352  -0.289272
    C   C11   0.185146  0.808752  0.139659  -0.339872
    C   C12   0.179322  0.179021  0.120928  -0.282180
    H   H1    0.251100  0.878911  0.314728  0.080928
    H   H2    0.245471  0.110023  0.297879  0.096653
    H   H3    0.746765  0.383541  0.300556  0.079730
    H   H4    0.749391  0.614595  0.311275  0.096583
    H   H5    0.550390  0.247566  0.904245  0.136034
    H   H6    0.554586  0.754051  0.919997  0.148901
    H   H7    0.055589  0.740017  0.923101  0.130424
    H   H8    0.049834  0.246918  0.902577  0.149497
    H   H9    0.623305  0.314907  0.112804  0.155248
    H   H10   0.627054  0.685323  0.126896  0.138685
    H   H11   0.128678  0.808187  0.130819  0.161165
    H   H12   0.122160  0.178837  0.110095  0.135684
    C   C13   0.325003  0.852491  0.251693  -0.128478
    C   C14   0.320859  0.137690  0.238358  -0.093981
    C   C15   0.821640  0.356407  0.239743  -0.114446
    C   C16   0.823941  0.641486  0.249736  -0.103727
    C   C17   0.754769  0.147469  0.763662  -0.009158
    C   C18   0.758361  0.851838  0.776431  -0.037569
    C   C19   0.257724  0.643400  0.775470  -0.016546
    C   C20   0.255493  0.348046  0.765264  -0.020072
    C   C21   0.327974  0.683701  0.873978  -0.155466
    C   C22   0.324889  0.306425  0.861473  -0.181217
    C   C23   0.824421  0.188754  0.860362  -0.163587
    C   C24   0.828192  0.810955  0.874075  -0.152554
    C   C25   0.329487  0.724817  0.967336  -0.142349
    C   C26   0.325620  0.264168  0.952766  -0.065986
    C   C27   0.825584  0.230570  0.952612  -0.136966
    C   C28   0.829196  0.769321  0.966322  -0.100285
    C   C29   0.754546  0.234393  0.945887  0.046993
    C   C30   0.757957  0.765429  0.959060  -0.019348
    C   C31   0.258319  0.728855  0.960250  0.059173
    C   C32   0.254466  0.260338  0.945711  -0.052009
    C   C33   0.681745  0.194786  0.841923  0.188406
    C   C34   0.685266  0.805205  0.855146  0.247269
    C   C35   0.185352  0.689440  0.855952  0.163297
    C   C36   0.181877  0.300231  0.842065  0.282052
    C   C37   0.258290  0.770930  0.054913  -0.054704
    C   C38   0.253973  0.217986  0.039566  0.022540
    C   C39   0.754381  0.276437  0.040421  -0.042192
    C   C40   0.757560  0.723127  0.053087  -0.002230
    C   C41   0.681769  0.277544  0.028323  0.309862
    C   C42   0.685299  0.722565  0.041940  0.263018
    C   C43   0.186318  0.771313  0.044586  0.325551
    C   C44   0.181151  0.216704  0.026847  0.252163
    C   C45   0.608520  0.243174  0.918414  -0.259285
    C   C46   0.612456  0.757810  0.933265  -0.255803
    C   C47   0.113293  0.736290  0.935865  -0.259771
    C   C48   0.108094  0.251361  0.917161  -0.251827
    C   C49   0.607519  0.203975  0.823847  -0.210296
    C   C50   0.611346  0.796811  0.838313  -0.224543
    C   C51   0.111675  0.697801  0.839883  -0.197847
    C   C52   0.107483  0.291020  0.823467  -0.241770
    C   C53   0.327313  0.813550  0.158846  -0.074203
    C   C54   0.323634  0.176521  0.145930  -0.139604
    C   C55   0.824105  0.317866  0.146693  -0.090348
    C   C56   0.826597  0.680625  0.157464  -0.113815
    C   C57   0.254589  0.848467  0.244239  -0.008257
    C   C58   0.249243  0.140432  0.227691  -0.047018
    C   C59   0.750317  0.353357  0.229884  -0.012214
    C   C60   0.753125  0.645175  0.241211  -0.043613
    C   C61   0.683664  0.148362  0.755095  -0.205274
    C   C62   0.687121  0.851108  0.767496  -0.219166
    C   C63   0.186640  0.644077  0.766987  -0.187126
    C   C64   0.184197  0.347026  0.756154  -0.246047
    H   H13   0.384004  0.818811  0.170296  0.085951
    H   H14   0.381662  0.172752  0.160999  0.090695
    H   H15   0.881863  0.321944  0.161008  0.089923
    H   H16   0.883717  0.675791  0.170080  0.081097
    H   H17   0.758337  0.112573  0.698317  0.086139
    H   H18   0.761867  0.886354  0.710543  0.093207
    H   H19   0.260884  0.609249  0.708741  0.086507
    H   H20   0.259356  0.383235  0.700625  0.094377
    H   H21   0.388536  0.752513  0.044008  0.129392
    H   H22   0.383802  0.235058  0.027165  0.137021
    H   H23   0.884014  0.259312  0.027537  0.128693
    H   H24   0.887867  0.741021  0.042128  0.144200
    H   H25   0.383824  0.681493  0.881186  0.109755
    H   H26   0.380751  0.308485  0.868705  0.117429
    H   H27   0.880170  0.186705  0.867275  0.112066
    H   H28   0.884106  0.813041  0.881448  0.114501
    H   H29   0.546166  0.182997  0.734259  0.137566
    H   H30   0.550152  0.818396  0.749702  0.136448
    H   H31   0.050246  0.676658  0.751067  0.135291
    H   H32   0.046306  0.312371  0.734144  0.142399
    C   C65   0.678273  0.997840  0.302010  -0.231620
    C   C66   0.178137  0.497087  0.301788  -0.231607
    H   H33   0.695236  0.994009  0.491863  0.195080
    H   H34   0.195130  0.496404  0.491772  0.194565
    H   H35   0.746966  0.995686  0.363629  0.092876
    H   H36   0.246738  0.493411  0.363333  0.092648
    N   N1    0.564638  0.994988  0.306803  -0.083116
    N   N2    0.064590  0.500148  0.306800  -0.084810
    C   C67   0.363960  0.998500  0.635080  -0.007799
    C   C68   0.863780  0.496022  0.634905  -0.008831
    C   C69   0.331101  0.997574  0.703831  -0.165145
    C   C70   0.830933  0.497642  0.703666  -0.169557
    C   C71   0.385180  0.998221  0.850341  -0.116981
    C   C72   0.885035  0.498326  0.850185  -0.113805
    C   C73   0.473879  0.999442  0.929996  0.009287
    C   C74   0.973739  0.497537  0.929826  0.014409
    C   C75   0.504761  0.000069  0.855689  0.274862
    C   C76   0.004596  0.495781  0.855515  0.270279
    C   C77   0.532465  0.999376  0.081157  -0.089784
    C   C78   0.032346  0.498472  0.080974  -0.092459
    C   C79   0.620331  0.000790  0.154115  0.271621
    C   C80   0.120216  0.499046  0.153843  0.269456
    C   C81   0.649847  0.003536  0.079323  -0.173155
    C   C82   0.149740  0.499083  0.078971  -0.170336
    C   C83   0.592703  0.001623  0.933026  -0.198074
    C   C84   0.092546  0.495572  0.932814  -0.195118
    C   C85   0.506324  0.997863  0.162832  0.018685
    C   C86   0.006232  0.498653  0.162729  0.019038
    C   C87   0.649260  0.995653  0.376382  -0.063328
    C   C88   0.149162  0.497775  0.376274  -0.061417
    N   N3    0.449481  0.000760  0.709624  -0.145892
    N   N4    0.949320  0.494316  0.709472  -0.144372
    H   H37   0.439947  0.998269  0.115892  0.099920
    H   H38   0.939857  0.497976  0.115797  0.100137
    H   H39   0.319944  0.997802  0.519609  0.168944
    H   H40   0.819748  0.495954  0.519419  0.170100
    H   H41   0.354416  0.997457  0.896020  0.134782
    H   H42   0.854301  0.500092  0.895881  0.133330
    H   H43   0.262221  0.996271  0.642284  0.115461
    H   H44   0.762046  0.498716  0.642113  0.117746
    H   H45   0.620173  0.003659  0.882743  0.146293
    H   H46   0.120025  0.494518  0.882509  0.146472
    C   C89   0.741399  0.010894  0.150919  0.256466
    C   C90   0.782258  0.960806  0.132520  -0.252225
    C   C91   0.867838  0.968488  0.196860  0.115683
    Cl  Cl1   0.919690  0.904379  0.174746  -0.111026
    C   C92   0.912579  0.026658  0.278437  -0.161497
    C   C93   0.871617  0.077334  0.295124  -0.084861
    C   C94   0.786070  0.069661  0.230958  -0.125508
    H   H47   0.747473  0.915096  0.068800  0.172295
    H   H48   0.979629  0.032695  0.328687  0.116434
    H   H49   0.906506  0.123217  0.358178  0.102319
    H   H50   0.753975  0.109909  0.243061  0.095526
    C   C95   0.241389  0.504976  0.150232  0.255296
    C   C96   0.281466  0.453383  0.133193  -0.248460
    C   C97   0.367069  0.459870  0.196860  0.115649
    Cl  Cl2   0.417944  0.393918  0.176504  -0.109100
    C   C98   0.412599  0.518306  0.276312  -0.168905
    C   C99   0.372436  0.570422  0.291653  -0.077860
    C   C100  0.286896  0.563938  0.228262  -0.126229
    H   H51   0.246078  0.407455  0.071047  0.168317
    H   H52   0.479650  0.523417  0.325966  0.118495
    H   H53   0.407931  0.616514  0.352971  0.100256
    H   H54   0.255426  0.605321  0.239230  0.094365
