# generated using pymatgen
data_Fe2H16C41NClO16
_symmetry_space_group_name_H-M   'P 1'
_cell_length_a   15.31428900
_cell_length_b   9.29263300
_cell_length_c   16.07685700
_cell_angle_alpha   92.03567800
_cell_angle_beta   103.11475500
_cell_angle_gamma   107.50610800
_symmetry_Int_Tables_number   1
_chemical_formula_structural   Fe2H16C41NClO16
_chemical_formula_sum   'Fe2 H16 C41 N1 Cl1 O16'
_cell_volume   2111.71862893
_cell_formula_units_Z   1
loop_
 _symmetry_equiv_pos_site_id
 _symmetry_equiv_pos_as_xyz
  1  'x, y, z'
loop_
 _atom_site_type_symbol
 _atom_site_label
 _atom_site_symmetry_multiplicity
 _atom_site_fract_x
 _atom_site_fract_y
 _atom_site_fract_z
 _atom_site_occupancy
  Fe  Fe1  1  0.50088300  0.01175200  0.81391500  1
  Fe  Fe2  1  0.51508800  0.03916400  0.18555000  1
  H  H1  1  0.81434300  0.09486200  0.21323600  1
  H  H2  1  0.96579200  0.10283200  0.18557800  1
  H  H3  1  0.83697500  0.00637800  0.91739100  1
  H  H4  1  0.06445600  0.11481800  0.08403200  1
  H  H5  1  0.94735600  0.90124500  0.92054800  1
  H  H6  1  0.04362400  0.92149800  0.81776400  1
  H  H7  1  0.17791100  0.01791300  0.08405600  1
  H  H8  1  0.51278200  0.47393100  0.78048700  1
  H  H9  1  0.50956700  0.59055100  0.21899100  1
  H  H10  1  0.49401400  0.27294900  0.53720200  1
  H  H11  1  0.51242100  0.30698700  0.41724100  1
  H  H12  1  0.50869200  0.89575800  0.46049000  1
  H  H13  1  0.29115600  0.17492500  0.76971600  1
  H  H14  1  0.28374500  0.16347400  0.61564000  1
  H  H15  1  0.08693600  0.71692300  0.57639500  1
  H  H16  1  0.09209400  0.72895500  0.73031600  1
  C  C1  1  0.81872000  0.07568900  0.14781200  1
  C  C2  1  0.90404100  0.07884700  0.13235400  1
  C  C3  1  0.91001400  0.04578100  0.05003200  1
  C  C4  1  0.83091900  0.01966300  0.98248700  1
  C  C5  1  0.74481100  0.01754100  0.99710400  1
  C  C6  1  0.73830400  0.04062700  0.08122400  1
  C  C7  1  0.00205800  0.04717100  0.03626800  1
  C  C8  1  0.00987900  0.96876800  0.96823100  1
  C  C9  1  0.10670700  0.94592900  0.86959400  1
  C  C10  1  0.19235300  0.96119100  0.85101000  1
  C  C11  1  0.27465000  0.99890100  0.91658900  1
  C  C12  1  0.26930100  0.01791300  0.00166100  1
  C  C13  1  0.18279800  0.00675600  0.01848200  1
  C  C14  1  0.10190600  0.97461900  0.95264400  1
  C  C15  1  0.49799800  0.21797200  0.69394700  1
  C  C16  1  0.36542700  0.02345800  0.89433800  1
  C  C17  1  0.66537200  0.00158500  0.92197700  1
  C  C18  1  0.50819000  0.74625700  0.74048900  1
  C  C19  1  0.51076500  0.31224000  0.25448800  1
  C  C20  1  0.35075300  0.04164600  0.07616900  1
  C  C21  1  0.64795800  0.02009700  0.10300900  1
  C  C22  1  0.52098600  0.83782300  0.30673500  1
  C  C23  1  0.51200900  0.48727900  0.71390000  1
  C  C24  1  0.50566000  0.36404900  0.66043500  1
  C  C25  1  0.50133900  0.37544400  0.57481900  1
  C  C26  1  0.51065000  0.62243000  0.68159200  1
  C  C27  1  0.50992600  0.63591200  0.59533700  1
  C  C28  1  0.50731000  0.51329900  0.54138000  1
  C  C29  1  0.50902000  0.53151300  0.45529300  1
  C  C30  1  0.50979900  0.41519300  0.39822300  1
  C  C31  1  0.50885900  0.43525200  0.31348100  1
  C  C32  1  0.51072400  0.78771800  0.48156600  1
  C  C33  1  0.51147900  0.67112600  0.42590500  1
  C  C34  1  0.51204600  0.69136500  0.34058300  1
  C  C35  1  0.50825000  0.57251400  0.28476700  1
  C  C36  1  0.19444800  0.95044900  0.76052900  1
  C  C37  1  0.24824800  0.07224700  0.72807500  1
  C  C38  1  0.24355400  0.06653600  0.64128300  1
  C  C39  1  0.18641600  0.93839400  0.58693000  1
  C  C40  1  0.13254400  0.81683300  0.61912300  1
  C  C41  1  0.13563200  0.82363100  0.70560000  1
  N  N1  1  0.51062900  0.76811400  0.56387200  1
  Cl  Cl1  1  0.18079300  0.93135000  0.47679500  1
  O  O1  1  0.54131700  0.21455300  0.77389300  1
  O  O2  1  0.43427500  0.15107600  0.92370000  1
  O  O3  1  0.44244100  0.09223300  0.64627500  1
  O  O4  1  0.37533100  0.92700000  0.83808000  1
  O  O5  1  0.58675300  0.02298600  0.93022200  1
  O  O6  1  0.67660000  0.98051900  0.84446100  1
  O  O7  1  0.50417700  0.87734500  0.71489300  1
  O  O8  1  0.50774900  0.72411000  0.82058400  1
  O  O9  1  0.51356300  0.18161400  0.28167300  1
  O  O10  1  0.51021200  0.33251800  0.17402500  1
  O  O11  1  0.43050200  0.02478500  0.06809500  1
  O  O12  1  0.34048000  0.06508400  0.15382700  1
  O  O13  1  0.59072100  0.95904000  0.34553600  1
  O  O14  1  0.64142000  0.11512600  0.16192400  1
  O  O15  1  0.47066600  0.84058900  0.22929700  1
  O  O16  1  0.57699300  0.89555700  0.07235900  1
