# generated using pymatgen
data_ZnH15C18NO4
_symmetry_space_group_name_H-M   'P 1'
_cell_length_a   14.20204400
_cell_length_b   8.54832700
_cell_length_c   15.06159800
_cell_angle_alpha   90.00000000
_cell_angle_beta   90.95926700
_cell_angle_gamma   90.00000000
_symmetry_Int_Tables_number   1
_chemical_formula_structural   ZnH15C18NO4
_chemical_formula_sum   'Zn2 H30 C36 N2 O8'
_cell_volume   1828.27769948
_cell_formula_units_Z   2
loop_
 _symmetry_equiv_pos_site_id
 _symmetry_equiv_pos_as_xyz
  1  'x, y, z'
loop_
 _atom_site_type_symbol
 _atom_site_label
 _atom_site_symmetry_multiplicity
 _atom_site_fract_x
 _atom_site_fract_y
 _atom_site_fract_z
 _atom_site_occupancy
  Zn  Zn1  1  0.89587300  0.49360000  0.51156900  1
  Zn  Zn2  1  0.10396100  0.49239800  0.48843900  1
  H  H1  1  0.04605200  0.99283900  0.55985400  1
  H  H2  1  0.95363600  0.99309300  0.44011100  1
  H  H3  1  0.00262300  0.24389600  0.79804500  1
  H  H4  1  0.99900200  0.24371300  0.20176300  1
  H  H5  1  0.00100400  0.74235000  0.79830100  1
  H  H6  1  0.99740500  0.74217000  0.20193400  1
  H  H7  1  0.91361700  0.19530700  0.91609400  1
  H  H8  1  0.08641100  0.79084500  0.08391200  1
  H  H9  1  0.91029200  0.19634400  0.07677900  1
  H  H10  1  0.08973700  0.78981200  0.92323500  1
  H  H11  1  0.43134100  0.26629900  0.55607600  1
  H  H12  1  0.56991600  0.26779200  0.44366700  1
  H  H13  1  0.60320700  0.42611200  0.37184600  1
  H  H14  1  0.39701800  0.42366600  0.62812600  1
  H  H15  1  0.45332000  0.51915400  0.35542500  1
  H  H16  1  0.54630800  0.51938800  0.64465200  1
  H  H17  1  0.58426400  0.73589100  0.54600300  1
  H  H18  1  0.41422600  0.73469200  0.45441500  1
  H  H19  1  0.57151700  0.69686300  0.42843500  1
  H  H20  1  0.42720300  0.69532700  0.57191500  1
  H  H21  1  0.54454400  0.32783000  0.76323600  1
  H  H22  1  0.47434300  0.18640300  0.70171400  1
  H  H23  1  0.58864000  0.13250500  0.74538400  1
  H  H24  1  0.59104500  0.18380000  0.58233500  1
  H  H25  1  0.66753200  0.30917800  0.64722000  1
  H  H26  1  0.45636600  0.32823900  0.23664100  1
  H  H27  1  0.52763900  0.18799300  0.29794300  1
  H  H28  1  0.41374600  0.13193500  0.25424200  1
  H  H29  1  0.41099900  0.18243700  0.41736300  1
  H  H30  1  0.33354100  0.30658900  0.35274100  1
  C  C1  1  0.02222500  0.13219000  0.67383300  1
  C  C2  1  0.97616600  0.13269700  0.32599800  1
  C  C3  1  0.00827100  0.13304300  0.76420900  1
  C  C4  1  0.98991900  0.13344700  0.23560900  1
  C  C5  1  0.00660700  0.99281500  0.81060200  1
  C  C6  1  0.99339300  0.99326000  0.18941100  1
  C  C7  1  0.01004700  0.85259500  0.76442500  1
  C  C8  1  0.99170400  0.85300100  0.23578300  1
  C  C9  1  0.02368100  0.85328800  0.67401600  1
  C  C10  1  0.97762200  0.85379000  0.32614400  1
  C  C11  1  0.03480900  0.99281400  0.63036600  1
  C  C12  1  0.96496600  0.99314800  0.36961300  1
  C  C13  1  0.95308600  0.10732900  0.95223400  1
  C  C14  1  0.04694400  0.87882600  0.04777500  1
  C  C15  1  0.95141900  0.10815700  0.04374700  1
  C  C16  1  0.04861100  0.87799800  0.95626500  1
  C  C17  1  0.99834300  0.99403200  0.09213700  1
  C  C18  1  0.00168500  0.99211000  0.90787500  1
  C  C19  1  0.01642500  0.71124800  0.62057900  1
  C  C20  1  0.98438700  0.71169800  0.37959300  1
  C  C21  1  0.98341000  0.27470100  0.37945900  1
  C  C22  1  0.01544400  0.27425800  0.62038300  1
  C  C23  1  0.54337800  0.42675600  0.59315000  1
  C  C24  1  0.45686200  0.42640600  0.40683300  1
  C  C25  1  0.55948800  0.39347000  0.42930100  1
  C  C26  1  0.44094900  0.39209000  0.57062700  1
  C  C27  1  0.58867100  0.49083400  0.50967700  1
  C  C28  1  0.41119700  0.48940300  0.49038500  1
  C  C29  1  0.44637600  0.65514600  0.50458600  1
  C  C30  1  0.55259300  0.65606800  0.49571000  1
  C  C31  1  0.30833400  0.49089500  0.48226500  1
  C  C32  1  0.69151000  0.49340200  0.51776200  1
  C  C33  1  0.59307600  0.28170700  0.63042000  1
  C  C34  1  0.54676900  0.22917100  0.71550900  1
  C  C35  1  0.40820500  0.28053000  0.36941800  1
  C  C36  1  0.45488600  0.22932900  0.28424000  1
  N  N1  1  0.22689400  0.49193200  0.47838700  1
  N  N2  1  0.77294300  0.49467000  0.52162300  1
  O  O1  1  0.09222800  0.66162300  0.58074600  1
  O  O2  1  0.90838400  0.66286000  0.41938900  1
  O  O3  1  0.93180000  0.65664000  0.60274500  1
  O  O4  1  0.06878600  0.65605700  0.39736600  1
  O  O5  1  0.90761700  0.32435300  0.41927700  1
  O  O6  1  0.09143300  0.32312200  0.58060300  1
  O  O7  1  0.06801500  0.32937000  0.39726400  1
  O  O8  1  0.93106300  0.32995100  0.60264100  1
