# Generated by REPEAT Assigner based on pymatgen
data_DB0-m3_o153_o4_f0_fsc.sym.5_sqe
_audit_creation_date              2022-05-24
_audit_creation_method            REPEAT_Assigner
_cell_length_a                    8.517654
_cell_length_b                    9.279557
_cell_length_c                    13.063340
_cell_angle_alpha                 90.599503
_cell_angle_beta                  86.473155
_cell_angle_gamma                 93.253770
_cell_volume                      1028.885080
_symmetry_space_group_name_H-M    P1
_symmetry_Int_Tables_number       1
loop_
    _symmetry_equiv_pos_site_id
    _symmetry_equiv_pos_as_xyz
    1  x,y,z
loop_
    _atom_site_type_symbol
    _atom_site_label
    _atom_site_fract_x
    _atom_site_fract_y
    _atom_site_fract_z
    _atom_type_partial_charge
    C   C1   0.979149  0.006593  0.132870  0.134776
    C   C2   0.111484  0.000515  0.189925  0.143348
    C   C3   0.260350  0.001251  0.141479  -0.215004
    C   C4   0.279204  0.002790  0.036372  -0.266497
    C   C5   0.149934  0.002246  0.978152  0.212944
    C   C6   0.999399  0.004482  0.025411  0.034622
    C   C7   0.173156  0.999114  0.872168  -0.313308
    C   C8   0.046443  0.000107  0.811558  0.037227
    C   C9   0.896112  0.000915  0.858329  0.291098
    C   C10  0.872800  0.000541  0.963478  -0.356872
    C   C11  0.065663  0.003843  0.705088  -0.040754
    C   C12  0.936150  0.020334  0.650257  -0.234726
    C   C13  0.787109  0.014205  0.695958  0.024621
    C   C14  0.766144  0.002190  0.800324  -0.324351
    C   C15  0.830934  0.015713  0.185254  -0.321634
    C   C16  0.815743  0.002061  0.290495  0.086633
    C   C17  0.945806  0.979978  0.342831  -0.253446
    C   C18  0.093605  0.989969  0.295605  -0.122012
    H   H1   0.364096  0.997801  0.184754  0.102088
    H   H2   0.396414  0.001598  0.999712  0.149567
    H   H3   0.952974  0.037234  0.569666  0.133254
    H   H4   0.648240  0.998076  0.836282  0.133566
    H   H5   0.752696  0.996470  0.993666  0.161743
    H   H6   0.291305  0.998417  0.836982  0.169600
    H   H7   0.724487  0.032014  0.148020  0.150666
    H   H8   0.931194  0.958912  0.423017  0.161861
    O   O1   0.600182  0.885411  0.598474  -0.692939
    O   O2   0.606365  0.134173  0.599868  -0.640884
    C   C19  0.654070  0.011372  0.631316  0.821729
    O   O3   0.619511  0.130527  0.387112  -0.693198
    O   O4   0.603077  0.881176  0.385852  -0.667134
    C   C20  0.665076  0.005280  0.351118  0.749612
    O   O5   0.279661  0.119667  0.395153  -0.707887
    O   O6   0.274247  0.870743  0.393290  -0.697785
    C   C21  0.226486  0.993471  0.361448  0.897490
    O   O7   0.260300  0.875300  0.606724  -0.697141
    O   O8   0.277333  0.123670  0.608346  -0.616245
    C   C22  0.216121  0.000198  0.644033  0.768977
    Zn  Zn1  0.446291  0.163576  0.495801  0.980107
    Zn  Zn2  0.433438  0.841680  0.498041  1.046835
    C   C23  0.432455  0.572068  0.412451  0.148012
    N   N1   0.429157  0.652146  0.498212  -0.044676
    C   C24  0.436210  0.579071  0.586498  0.025622
    H   H9   0.435230  0.637115  0.658689  0.093412
    C   C25  0.445075  0.428894  0.585796  -0.034098
    N   N2   0.450117  0.353124  0.496253  0.036546
    C   C26  0.442343  0.431284  0.411498  0.132090
    C   C27  0.442161  0.416431  0.298507  -0.114462
    C   C28  0.431676  0.585190  0.299579  -0.141167
    H   H10  0.555859  0.380951  0.263898  0.086462
    H   H11  0.333772  0.357986  0.273501  0.091009
    H   H12  0.539862  0.643117  0.265974  0.087850
    H   H13  0.317768  0.620304  0.274717  0.091217
    Cl  Cl1  0.446879  0.340667  0.703579  0.011634
