# Generated by REPEAT Assigner based on pymatgen
data_DB0-m2_o14_o22_f0_pcu.sym.32_sqe
_audit_creation_date              2022-05-24
_audit_creation_method            REPEAT_Assigner
_cell_length_a                    10.615967
_cell_length_b                    10.824519
_cell_length_c                    9.412997
_cell_angle_alpha                 89.986478
_cell_angle_beta                  89.996118
_cell_angle_gamma                 90.007227
_cell_volume                      1081.673161
_symmetry_space_group_name_H-M    P1
_symmetry_Int_Tables_number       1
loop_
    _symmetry_equiv_pos_site_id
    _symmetry_equiv_pos_as_xyz
    1  x,y,z
loop_
    _atom_site_type_symbol
    _atom_site_label
    _atom_site_fract_x
    _atom_site_fract_y
    _atom_site_fract_z
    _atom_type_partial_charge
    O   O1   0.458114  0.316574  0.609266  -0.535143
    O   O2   0.518491  0.319139  0.371402  -0.605114
    C   C1   0.496897  0.259985  0.492980  0.723553
    O   O3   0.309142  0.523688  0.615261  -0.601833
    O   O4   0.306966  0.465216  0.376645  -0.587329
    C   C2   0.249181  0.493604  0.496527  0.498338
    Cu  Cu1  0.489906  0.492872  0.632799  0.994153
    Cu  Cu2  0.486933  0.496572  0.353769  0.885118
    O   O5   0.520474  0.669801  0.612050  -0.598374
    O   O6   0.454175  0.672883  0.380222  -0.471360
    O   O7   0.669500  0.460953  0.607084  -0.654530
    O   O8   0.667646  0.526239  0.374624  -0.546618
    C   C3   0.480055  0.730071  0.500221  0.624722
    C   C4   0.727965  0.491738  0.489858  0.421011
    C   C5   0.058954  0.420587  0.622262  -0.076715
    H   H1   0.100051  0.455565  0.722794  0.029636
    H   H2   0.083276  0.321482  0.610508  0.017354
    C   C6   0.917004  0.435024  0.628741  -0.036322
    H   H3   0.874600  0.342492  0.645700  0.007680
    H   H4   0.892847  0.495922  0.719477  -0.019150
    H   H5   0.073019  0.656802  0.616449  0.063090
    H   H6   0.869251  0.682938  0.556242  0.023338
    C   C7   0.057703  0.623796  0.506261  -0.118353
    C   C8   0.060521  0.428114  0.361791  0.089748
    C   C9   0.108317  0.492459  0.495744  0.134427
    H   H7   0.087164  0.478793  0.264341  -0.037386
    H   H8   0.101251  0.333900  0.355116  0.015324
    C   C10  0.868770  0.491571  0.490701  0.495611
    C   C11  0.917095  0.622994  0.477444  -0.154476
    C   C12  0.918471  0.416220  0.367325  -0.203447
    H   H9   0.892400  0.317831  0.382068  0.014645
    H   H10  0.878439  0.449768  0.265588  0.025551
    H   H11  0.896541  0.658408  0.369460  0.009912
    H   H12  0.480028  0.104785  0.272611  0.118085
    C   C13  0.554711  0.117135  0.749913  -0.265579
    H   H13  0.598410  0.207041  0.749254  0.151434
    C   C14  0.545211  0.058558  0.878947  -0.089066
    H   H14  0.574292  0.105366  0.974929  0.087050
    C   C15  0.493811  0.942714  0.886048  -0.111923
    H   H15  0.479053  0.898997  0.987937  0.102510
    C   C16  0.465156  0.880409  0.763037  -0.078610
    H   H16  0.420875  0.791543  0.775030  0.110432
    C   C17  0.486402  0.934136  0.630688  0.053328
    C   C18  0.514564  0.059387  0.625746  0.214601
    C   C19  0.504396  0.123644  0.497337  -0.211027
    C   C20  0.487150  0.057663  0.373507  -0.083202
    H   H17  0.472072  0.881923  0.276661  0.109909
    C   C21  0.479021  0.930594  0.376425  -0.139792
    C   C22  0.477716  0.866946  0.503979  -0.035820
    H   H18  0.352814  0.360170  0.123520  0.098848
    C   C23  0.633854  0.672571  0.133915  -0.113077
    H   H19  0.624182  0.696091  0.242526  0.091159
    C   C24  0.720088  0.743436  0.063029  -0.085163
    H   H20  0.773338  0.813236  0.119044  0.095092
    C   C25  0.740355  0.723416  0.922589  -0.028225
    H   H21  0.810932  0.776118  0.866182  0.091883
    C   C26  0.668907  0.637915  0.852149  -0.279821
    H   H22  0.693367  0.628115  0.743819  0.203003
    C   C27  0.574962  0.569197  0.919686  0.272436
    C   C28  0.564175  0.580127  0.066481  0.137553
    N   N1   0.486697  0.503050  0.140600  -0.192563
    C   C29  0.414637  0.422604  0.067264  0.046540
    H   H23  0.351837  0.360314  0.864015  0.083588
    C   C30  0.415261  0.421502  0.919775  0.046734
    N   N2   0.496587  0.492485  0.845889  -0.225240
    C   C31  0.124837  0.711189  0.408944  0.657985
    O   O9   0.189032  0.793514  0.459671  -0.548051
    O   O10  0.111675  0.702517  0.266813  -0.335141
    C   C32  0.169523  0.784911  0.177399  0.315413
    C   C33  0.136995  0.753109  0.025154  -0.252752
    H   H24  0.273034  0.779553  0.191294  -0.024103
    H   H25  0.136356  0.879911  0.200950  -0.002078
    H   H26  0.170187  0.658300  0.000855  0.077693
    H   H27  0.183479  0.819752  0.952606  0.038868
    H   H28  0.033482  0.757976  0.010516  0.070030
