# Generated by REPEAT Assigner based on pymatgen
data_DB0-m2_o13_o16_f0_pcu.sym.12
_audit_creation_date              2022-05-24
_audit_creation_method            REPEAT_Assigner
_cell_length_a                    11.540121
_cell_length_b                    12.991190
_cell_length_c                    13.606788
_cell_angle_alpha                 91.375709
_cell_angle_beta                  78.801420
_cell_angle_gamma                 99.461556
_cell_volume                      1973.799461
_symmetry_space_group_name_H-M    P1
_symmetry_Int_Tables_number       1
loop_
    _symmetry_equiv_pos_site_id
    _symmetry_equiv_pos_as_xyz
    1  x,y,z
loop_
    _atom_site_type_symbol
    _atom_site_label
    _atom_site_fract_x
    _atom_site_fract_y
    _atom_site_fract_z
    _atom_type_partial_charge
    O   O1   0.415205  0.653620  0.506230  -0.595607
    O   O2   0.616073  0.669222  0.505739  -0.542396
    C   C1   0.520386  0.710439  0.505237  0.656893
    O   O3   0.358829  0.496545  0.648541  -0.611540
    O   O4   0.557437  0.523089  0.658143  -0.489799
    C   C2   0.444088  0.505459  0.700988  0.699322
    Cu  Cu1  0.386306  0.501089  0.502739  0.889742
    Cu  Cu2  0.617723  0.519716  0.513731  0.798523
    O   O5   0.388439  0.351485  0.506898  -0.571083
    O   O6   0.588473  0.367184  0.513156  -0.587647
    O   O7   0.445865  0.500303  0.357857  -0.589275
    O   O8   0.645256  0.519803  0.367629  -0.575954
    C   C3   0.483834  0.310547  0.510289  0.650107
    C   C4   0.559258  0.509129  0.315727  0.676973
    C   C5   0.726481  0.458731  0.062101  -0.309142
    H   H1   0.767691  0.470481  0.207373  0.108927
    H   H2   0.755042  0.414012  0.873557  0.139799
    H   H3   0.812503  0.438779  0.029186  0.188867
    C   C6   0.590238  0.499558  0.206371  -0.084920
    C   C7   0.293421  0.513370  0.852415  -0.197616
    C   C8   0.253326  0.510273  0.954040  0.411241
    C   C9   0.331887  0.507040  0.017605  -0.273744
    C   C10  0.449627  0.493909  0.980372  0.001345
    C   C11  0.484779  0.481547  0.876926  0.110703
    C   C12  0.531481  0.488307  0.044053  0.092565
    C   C13  0.642726  0.463312  0.003370  0.230692
    C   C14  0.670638  0.439175  0.903897  -0.286000
    C   C15  0.592373  0.446552  0.841636  -0.088247
    C   C16  0.506486  0.506847  0.147217  -0.158697
    C   C17  0.701138  0.477238  0.162963  -0.059517
    C   C18  0.408939  0.499628  0.811823  -0.172936
    H   H4   0.423449  0.529071  0.184233  0.118080
    H   H5   0.231412  0.525105  0.805204  0.137817
    H   H6   0.294392  0.508852  0.096235  0.142103
    H   H7   0.617634  0.420402  0.766102  0.083271
    C   C19  0.471658  0.196404  0.510313  -0.040190
    C   C20  0.532616  0.824711  0.504725  -0.052834
    C   C21  0.656099  0.992330  0.503021  -0.290306
    C   C22  0.643833  0.885062  0.502210  -0.007853
    C   C23  0.433986  0.873143  0.507553  -0.253892
    C   C24  0.446659  0.980776  0.508353  0.230953
    C   C25  0.557610  0.040421  0.506280  0.202371
    C   C26  0.570295  0.147992  0.507363  -0.221699
    C   C27  0.360522  0.136148  0.512167  -0.079104
    C   C28  0.348193  0.028895  0.511354  -0.279097
    H   H8   0.657880  0.193699  0.505292  0.122789
    H   H9   0.281778  0.171761  0.514437  0.109931
    H   H10  0.743490  0.038455  0.501253  0.147939
    H   H11  0.260798  0.982819  0.513044  0.146496
    H   H12  0.722737  0.849639  0.499635  0.075259
    H   H13  0.346419  0.827482  0.509487  0.138941
    N   N1   0.213512  0.487440  0.493402  -0.066274
    N   N2   0.790709  0.534308  0.523489  -0.143825
    C   C29  0.965023  0.626560  0.573690  -0.537304
    C   C30  0.844466  0.616255  0.571285  0.434326
    C   C31  0.855940  0.463426  0.477137  -0.081289
    C   C32  0.975973  0.471139  0.481095  0.084095
    C   C33  0.030229  0.552472  0.530591  0.304573
    C   C34  0.149243  0.559862  0.536661  -0.118907
    C   C35  0.162904  0.409135  0.440836  0.005162
    C   C36  0.043218  0.398908  0.435209  -0.230589
    H   H14  0.190366  0.623281  0.577595  0.150983
    H   H15  0.215326  0.352701  0.403760  0.117878
    H   H16  0.009020  0.692977  0.609228  0.203777
    H   H17  0.002941  0.334476  0.394811  0.126099
    H   H18  0.814243  0.399636  0.436962  0.164934
    O   O9   0.782518  0.693558  0.611919  -0.261180
    C   C37  0.776125  0.689735  0.715506  0.346517
    H   H19  0.860228  0.731147  0.735408  -0.056950
    H   H20  0.759844  0.607578  0.741248  -0.035588
    C   C38  0.675436  0.744679  0.767839  -0.223486
    H   H21  0.590055  0.709091  0.746324  0.058818
    H   H22  0.667175  0.737999  0.850086  0.047892
    H   H23  0.695791  0.828267  0.745606  0.050006
    O   O10  0.135815  0.516092  0.992005  -0.464852
    C   C39  0.077812  0.412763  0.009143  0.405773
    H   H24  0.005060  0.410384  0.075965  -0.035501
    H   H25  0.140536  0.361521  0.023859  -0.058187
    C   C40  0.024556  0.371849  0.919441  -0.188300
    H   H26  0.095216  0.348942  0.859475  0.047354
    H   H27  0.955423  0.302324  0.942481  0.016536
    H   H28  0.983318  0.433222  0.890576  0.044958
