# Generated by REPEAT Assigner based on pymatgen
data_DB0-m9_o4_o4_f0_sra.sym.14_sqe
_audit_creation_date              2022-05-24
_audit_creation_method            REPEAT_Assigner
_cell_length_a                    6.834851
_cell_length_b                    13.970106
_cell_length_c                    16.078174
_cell_angle_alpha                 90.002153
_cell_angle_beta                  89.997464
_cell_angle_gamma                 90.003084
_cell_volume                      1535.201899
_symmetry_space_group_name_H-M    P1
_symmetry_Int_Tables_number       1
loop_
    _symmetry_equiv_pos_site_id
    _symmetry_equiv_pos_as_xyz
    1  x,y,z
loop_
    _atom_site_type_symbol
    _atom_site_label
    _atom_site_fract_x
    _atom_site_fract_y
    _atom_site_fract_z
    _atom_type_partial_charge
    O   O1   0.510659  0.579744  0.410553  -0.395604
    O   O2   0.167988  0.598189  0.586015  -0.511072
    O   O3   0.010591  0.418435  0.591037  -0.516186
    C   C1   0.342848  0.614466  0.617195  0.648429
    O   O4   0.167975  0.597509  0.415096  -0.385702
    O   O5   0.010539  0.417634  0.411283  -0.525037
    C   C2   0.342767  0.613551  0.383684  0.384536
    O   O6   0.510719  0.580511  0.590359  -0.544260
    O   O7   0.336393  0.441474  0.500951  -0.480468
    V   V1   0.061908  0.510458  0.500824  1.317400
    O   O8   0.667820  0.399942  0.415477  -0.540037
    C   C3   0.842955  0.383587  0.384425  0.605193
    O   O9   0.667928  0.400581  0.586419  -0.484289
    C   C4   0.842618  0.384632  0.617902  0.625621
    V   V2   0.561908  0.487694  0.500743  1.297598
    O   O10  0.836576  0.556682  0.500619  -0.466012
    C   C5   0.027290  0.286435  0.718319  0.106902
    C   C6   0.852457  0.316396  0.686385  -0.173073
    C   C7   0.685269  0.278351  0.722081  -0.067776
    H   H1   0.543760  0.299887  0.699357  0.066653
    C   C8   0.699279  0.212514  0.787089  -0.132115
    H   H2   0.568866  0.182992  0.814728  0.102001
    C   C9   0.880090  0.184052  0.817004  -0.079977
    C   C10  0.040968  0.223826  0.779972  0.001466
    C   C11  0.257365  0.222458  0.779733  0.022202
    C   C12  0.240848  0.296293  0.707034  -0.108551
    H   H3   0.314764  0.151972  0.759444  0.042327
    H   H4   0.318744  0.253627  0.837560  0.058250
    H   H5   0.288269  0.267268  0.646033  0.088497
    H   H6   0.292417  0.369079  0.723811  0.061007
    C   C13  0.709268  0.211756  0.218304  0.077455
    C   C14  0.884100  0.181809  0.186349  -0.127123
    C   C15  0.051288  0.219851  0.222035  -0.099573
    H   H7   0.192793  0.198320  0.199298  0.083603
    C   C16  0.037290  0.285673  0.287054  -0.133157
    H   H8   0.167705  0.315195  0.314688  0.115047
    C   C17  0.856492  0.314133  0.316987  -0.093595
    C   C18  0.695598  0.274364  0.279965  0.020345
    C   C19  0.479204  0.275747  0.279728  -0.001788
    C   C20  0.495710  0.201915  0.207019  -0.083892
    H   H9   0.421832  0.346239  0.259448  0.038825
    H   H10  0.417808  0.244581  0.337552  0.063435
    H   H11  0.448321  0.230950  0.146021  0.084069
    H   H12  0.444115  0.129132  0.223787  0.059327
    C   C21  0.527709  0.713123  0.717263  0.146339
    C   C22  0.352857  0.683031  0.685428  -0.186340
    C   C23  0.185685  0.721037  0.721153  -0.051094
    H   H13  0.044167  0.699366  0.698531  0.065152
    C   C24  0.199700  0.786865  0.786162  -0.134098
    H   H14  0.069287  0.816250  0.813907  0.098429
    C   C25  0.380499  0.815349  0.816073  -0.094270
    C   C26  0.541395  0.775715  0.778940  0.002170
    C   C27  0.757792  0.776966  0.778792  0.058521
    C   C28  0.741268  0.703147  0.706074  -0.275715
    H   H15  0.818957  0.745753  0.836639  0.060609
    H   H16  0.815403  0.847428  0.758547  0.036686
    H   H17  0.792596  0.630331  0.722870  0.103821
    H   H18  0.788910  0.732142  0.645094  0.165544
    C   C29  0.527969  0.710981  0.282572  -0.001577
    C   C30  0.352798  0.681799  0.315208  0.034261
    C   C31  0.185206  0.720661  0.280267  -0.189322
    H   H19  0.043197  0.700181  0.303783  0.125459
    C   C32  0.199139  0.786141  0.214958  -0.088498
    H   H20  0.068743  0.815742  0.187406  0.128997
    C   C33  0.379870  0.814183  0.184615  -0.146469
    C   C34  0.540809  0.773981  0.221129  0.091798
    C   C35  0.757182  0.775302  0.220338  0.029905
    C   C36  0.742324  0.700417  0.292185  -0.114773
    H   H21  0.814168  0.845584  0.241364  0.025798
    H   H22  0.817821  0.745261  0.161921  0.054928
    H   H23  0.794951  0.627948  0.275034  0.116943
    O   O11  0.226308  0.918378  0.910701  -0.490496
    O   O12  0.568818  0.899750  0.085985  -0.536906
    O   O13  0.726074  0.079610  0.091089  -0.523707
    C   C37  0.393631  0.883604  0.117155  0.624862
    O   O14  0.569012  0.900559  0.915024  -0.556936
    O   O15  0.726241  0.080476  0.911326  -0.499734
    C   C38  0.393957  0.884475  0.883769  0.594410
    O   O16  0.226134  0.917797  0.090377  -0.526779
    O   O17  0.400464  0.056685  0.000969  -0.530146
    V   V3   0.674892  0.987614  0.000836  1.433992
    O   O18  0.068936  0.098240  0.915401  -0.543747
    C   C39  0.893736  0.114604  0.884442  0.584548
    O   O19  0.068717  0.097709  0.086360  -0.513275
    C   C40  0.893996  0.113580  0.117861  0.606249
    V   V4   0.174878  0.010580  0.000719  1.400556
    O   O20  0.900298  0.941476  0.000616  -0.533547
    Br  Br1  0.832519  0.751520  0.397126  -0.073452
