data_DB0-m3_o11_o29_f0_pcu.sym.55_repeat
_audit_creation_date              2024-02-23
_audit_creation_method            'Materials Studio'
_symmetry_space_group_name_H-M    'P1'
_symmetry_Int_Tables_number       1
_symmetry_cell_setting            triclinic
loop_
_symmetry_equiv_pos_as_xyz
  x,y,z
_cell_length_a                    27.6159
_cell_length_b                    11.1331
_cell_length_c                    9.9525
_cell_angle_alpha                 89.9974
_cell_angle_beta                  89.9930
_cell_angle_gamma                 89.9936
loop_
_atom_site_label
_atom_site_type_symbol
_atom_site_fract_x
_atom_site_fract_y
_atom_site_fract_z
_atom_site_U_iso_or_equiv
_atom_site_adp_type
_atom_site_occupancy
O1     O     0.50102   0.33080   0.60235   0.00000  Uiso   1.00
O2     O     0.49938   0.33108   0.37023   0.00000  Uiso   1.00
C1     C     0.50058   0.27500   0.48643   0.00000  Uiso   1.00
O3     O     0.42838   0.50682   0.60870   0.00000  Uiso   1.00
O4     O     0.42644   0.50773   0.37695   0.00000  Uiso   1.00
C2     C     0.40476   0.50629   0.49422   0.00000  Uiso   1.00
Zn1    Zn    0.50087   0.50949   0.64006   0.00000  Uiso   1.00
Zn2    Zn    0.49814   0.51028   0.33410   0.00000  Uiso   1.00
O5     O     0.49897   0.68841   0.60367   0.00000  Uiso   1.00
O6     O     0.49732   0.68919   0.37176   0.00000  Uiso   1.00
O7     O     0.57260   0.51134   0.59729   0.00000  Uiso   1.00
O8     O     0.57064   0.51293   0.36536   0.00000  Uiso   1.00
C3     C     0.49792   0.74479   0.48808   0.00000  Uiso   1.00
C4     C     0.59423   0.51247   0.47983   0.00000  Uiso   1.00
C5     C     0.17558   0.39846   0.47506   0.00000  Uiso   1.00
O9     O     0.20042   0.29642   0.45383   0.00000  Uiso   1.00
N1     N     0.19978   0.50091   0.50048   0.00000  Uiso   1.00
C6     C     0.17564   0.60394   0.52338   0.00000  Uiso   1.00
C7     C     0.27614   0.47943   0.38194   0.00000  Uiso   1.00
C8     C     0.32603   0.48186   0.38002   0.00000  Uiso   1.00
C9     C     0.32680   0.52405   0.61537   0.00000  Uiso   1.00
C10    C     0.27683   0.52365   0.61646   0.00000  Uiso   1.00
C11    C     0.25139   0.50095   0.49985   0.00000  Uiso   1.00
C12    C     0.10004   0.50228   0.49429   0.00000  Uiso   1.00
C13    C     0.12547   0.39765   0.47298   0.00000  Uiso   1.00
C14    C     0.10073   0.29296   0.44787   0.00000  Uiso   1.00
C15    C     0.12556   0.60610   0.51937   0.00000  Uiso   1.00
C16    C     0.35167   0.50389   0.49683   0.00000  Uiso   1.00
H1     H     0.34599   0.54193   0.70784   0.00000  Uiso   1.00
H2     H     0.25766   0.54017   0.70936   0.00000  Uiso   1.00
H3     H     0.11967   0.20990   0.42805   0.00000  Uiso   1.00
C17    C     0.64726   0.51137   0.47668   0.00000  Uiso   1.00
C18    C     0.97392   0.39654   0.47658   0.00000  Uiso   1.00
C19    C     0.97441   0.61263   0.49042   0.00000  Uiso   1.00
C20    C     0.94920   0.50507   0.48136   0.00000  Uiso   1.00
C21    C     0.94711   0.29050   0.47810   0.00000  Uiso   1.00
C22    C     0.89741   0.29266   0.47816   0.00000  Uiso   1.00
C23    C     0.87306   0.40027   0.47601   0.00000  Uiso   1.00
C24    C     0.89885   0.50604   0.47733   0.00000  Uiso   1.00
C25    C     0.87370   0.61279   0.47500   0.00000  Uiso   1.00
C26    C     0.82360   0.61246   0.47096   0.00000  Uiso   1.00
N2     N     0.79910   0.50794   0.47162   0.00000  Uiso   1.00
C27    C     0.82296   0.40251   0.47442   0.00000  Uiso   1.00
C28    C     0.72276   0.46679   0.58359   0.00000  Uiso   1.00
C29    C     0.67289   0.46889   0.58597   0.00000  Uiso   1.00
C30    C     0.67203   0.55170   0.36471   0.00000  Uiso   1.00
C31    C     0.72201   0.55171   0.36349   0.00000  Uiso   1.00
C32    C     0.74749   0.50886   0.47277   0.00000  Uiso   1.00
O10    O     0.79777   0.29925   0.47344   0.00000  Uiso   1.00
C33    C     0.02459   0.39638   0.47170   0.00000  Uiso   1.00
C34    C     0.04969   0.50316   0.49014   0.00000  Uiso   1.00
C35    C     0.02486   0.61087   0.50421   0.00000  Uiso   1.00
C36    C     0.05102   0.29195   0.44752   0.00000  Uiso   1.00
H4     H     0.65418   0.43436   0.67299   0.00000  Uiso   1.00
H5     H     0.74245   0.43315   0.66959   0.00000  Uiso   1.00
H6     H     0.87818   0.20818   0.47997   0.00000  Uiso   1.00
H7     H     0.96318   0.20274   0.48423   0.00000  Uiso   1.00
H8     H     0.03465   0.20722   0.42278   0.00000  Uiso   1.00
O11    O     0.20057   0.70551   0.54653   0.00000  Uiso   1.00
C37    C     0.10091   0.71158   0.54086   0.00000  Uiso   1.00
H9     H     0.34453   0.46530   0.28617   0.00000  Uiso   1.00
H10    H     0.25644   0.46237   0.29003   0.00000  Uiso   1.00
H11    H     0.11986   0.79400   0.56364   0.00000  Uiso   1.00
C38    C     0.94836   0.71968   0.48412   0.00000  Uiso   1.00
C39    C     0.89873   0.71944   0.47625   0.00000  Uiso   1.00
O12    O     0.79904   0.71666   0.47012   0.00000  Uiso   1.00
C40    C     0.05129   0.71429   0.53318   0.00000  Uiso   1.00
H12    H     0.96509   0.80678   0.48041   0.00000  Uiso   1.00
H13    H     0.65265   0.58553   0.27829   0.00000  Uiso   1.00
H14    H     0.88008   0.80465   0.47157   0.00000  Uiso   1.00
H15    H     0.74116   0.58425   0.27604   0.00000  Uiso   1.00
H16    H     0.03487   0.79954   0.55540   0.00000  Uiso   1.00
C41    C     0.49843   0.94306   0.38006   0.00000  Uiso   1.00
C42    C     0.49716   0.87633   0.49207   0.00000  Uiso   1.00
H17    H     0.49937   0.89870   0.28321   0.00000  Uiso   1.00
H18    H     0.49549   0.91606   0.59081   0.00000  Uiso   1.00
C43    C     0.49822   0.07620   0.37938   0.00000  Uiso   1.00
C44    C     0.50115   0.14348   0.49057   0.00000  Uiso   1.00
H19    H     0.49595   0.12003   0.28238   0.00000  Uiso   1.00
H20    H     0.50420   0.10410   0.58922   0.00000  Uiso   1.00
C45    C     0.53572   0.55661   0.91853   0.00000  Uiso   1.00
N3     N     0.50324   0.50979   0.84118   0.00000  Uiso   1.00
H21    H     0.47980   0.45054   0.88590   0.00000  Uiso   1.00
C46    C     0.53465   0.54066   0.06681   0.00000  Uiso   1.00
N4     N     0.49633   0.51232   0.13310   0.00000  Uiso   1.00
H22    H     0.56714   0.56222   0.12226   0.00000  Uiso   1.00
H23    H     0.46408   0.50871   0.08203   0.00000  Uiso   1.00
C47    C     0.57547   0.62903   0.86220   0.00000  Uiso   1.00
O13    O     0.56584   0.71432   0.79046   0.00000  Uiso   1.00
C48    C     0.62633   0.60735   0.89995   0.00000  Uiso   1.00
C49    C     0.66023   0.69754   0.88235   0.00000  Uiso   1.00
C50    C     0.70807   0.67824   0.91562   0.00000  Uiso   1.00
C51    C     0.72251   0.56858   0.96554   0.00000  Uiso   1.00
C52    C     0.68909   0.47791   0.98182   0.00000  Uiso   1.00
C53    C     0.64119   0.49684   0.94892   0.00000  Uiso   1.00
H24    H     0.64970   0.78443   0.84371   0.00000  Uiso   1.00
H25    H     0.73430   0.74932   0.90236   0.00000  Uiso   1.00
H26    H     0.76005   0.55349   0.99123   0.00000  Uiso   1.00
H27    H     0.70051   0.39142   0.01970   0.00000  Uiso   1.00
H28    H     0.61597   0.42328   0.95946   0.00000  Uiso   1.00
