# generated using pymatgen
data_Cu2H22C46N7O8
_symmetry_space_group_name_H-M   'P 1'
_cell_length_a   31.85020800
_cell_length_b   27.94506500
_cell_length_c   22.72115200
_cell_angle_alpha   71.88564600
_cell_angle_beta   46.36553600
_cell_angle_gamma   90.41225700
_symmetry_Int_Tables_number   1
_chemical_formula_structural   Cu2H22C46N7O8
_chemical_formula_sum   'Cu4 H44 C92 N14 O16'
_cell_volume   13168.59347125
_cell_formula_units_Z   2
loop_
 _symmetry_equiv_pos_site_id
 _symmetry_equiv_pos_as_xyz
  1  'x, y, z'
loop_
 _atom_site_type_symbol
 _atom_site_label
 _atom_site_symmetry_multiplicity
 _atom_site_fract_x
 _atom_site_fract_y
 _atom_site_fract_z
 _atom_site_occupancy
  Cu  Cu1  1  0.53942800  0.55826700  0.43958600  1
  Cu  Cu2  1  0.46585700  0.48010800  0.60241900  1
  Cu  Cu3  1  0.02428200  0.48759900  0.48719500  1
  Cu  Cu4  1  0.99269900  0.56626300  0.53170800  1
  H  H1  1  0.09582600  0.69722600  0.26336800  1
  H  H2  1  0.09791700  0.55501900  0.22882900  1
  H  H3  1  0.14078800  0.74892400  0.11259300  1
  H  H4  1  0.13971300  0.60434200  0.08385000  1
  H  H5  1  0.31612000  0.53830000  0.75047400  1
  H  H6  1  0.44632500  0.67463600  0.49380100  1
  H  H7  1  0.24490500  0.58680500  0.81168300  1
  H  H8  1  0.37564100  0.72399600  0.55485900  1
  H  H9  1  0.40772500  0.01324000  0.66018900  1
  H  H10  1  0.47725600  0.98577000  0.43581500  1
  H  H11  1  0.32194600  0.93213200  0.76284400  1
  H  H12  1  0.39026900  0.90884300  0.53589700  1
  H  H13  1  0.68884700  0.49724200  0.29308900  1
  H  H14  1  0.55241700  0.36024600  0.54761400  1
  H  H15  1  0.75434000  0.44469700  0.23013300  1
  H  H16  1  0.61712300  0.30690700  0.48483100  1
  H  H17  1  0.50983800  0.03528800  0.57354400  1
  H  H18  1  0.51942600  0.07477300  0.36567200  1
  H  H19  1  0.60118700  0.10992200  0.47389400  1
  H  H20  1  0.61347100  0.14673900  0.26451300  1
  H  H21  1  0.91659900  0.49407900  0.79536000  1
  H  H22  1  0.90946700  0.35568100  0.75556300  1
  H  H23  1  0.86332000  0.43928300  0.94718600  1
  H  H24  1  0.85357800  0.29931200  0.91116600  1
  H  H25  1  0.32851300  0.65870400  0.37759900  1
  H  H26  1  0.39989100  0.54663100  0.44596400  1
  H  H27  1  0.37673500  0.38526900  0.56417600  1
  H  H28  1  0.23862900  0.37769800  0.55043400  1
  H  H29  1  0.25530800  0.67740200  0.38236000  1
  H  H30  1  0.16716500  0.64989100  0.41333900  1
  H  H31  1  0.16275900  0.48981200  0.49025300  1
  H  H32  1  0.37145400  0.59985700  0.40473300  1
  H  H33  1  0.20055200  0.43718200  0.51258500  1
  H  H34  1  0.30004300  0.35795700  0.57120500  1
  H  H35  1  0.76442500  0.66760500  0.49001200  1
  H  H36  1  0.84950500  0.56039000  0.53640100  1
  H  H37  1  0.85122700  0.40203300  0.60785300  1
  H  H38  1  0.68556600  0.38715300  0.65384500  1
  H  H39  1  0.70035000  0.68457300  0.47362800  1
  H  H40  1  0.62352600  0.65459700  0.48227100  1
  H  H41  1  0.60888700  0.49488600  0.59113000  1
  H  H42  1  0.80672300  0.61051800  0.52214100  1
  H  H43  1  0.63872200  0.44353600  0.63206500  1
  H  H44  1  0.76169000  0.37153100  0.64351900  1
  C  C1  1  0.57303700  0.46224200  0.45804800  1
  C  C2  1  0.56862600  0.55501400  0.53732600  1
  C  C3  1  0.43135800  0.57536900  0.58437800  1
  C  C4  1  0.43632900  0.48423100  0.50459200  1
  C  C5  1  0.13099700  0.70629900  0.13823100  1
  C  C6  1  0.10577900  0.67704300  0.22337500  1
  C  C7  1  0.09452200  0.62258200  0.25606400  1
  C  C8  1  0.10713400  0.59754900  0.20447300  1
  C  C9  1  0.13059100  0.62615500  0.12133700  1
  C  C10  1  0.14326900  0.68076800  0.08696300  1
  C  C11  1  0.28839600  0.60643600  0.74112200  1
  C  C12  1  0.32930600  0.57890300  0.70674600  1
  C  C13  1  0.38703700  0.60383300  0.61902800  1
  C  C14  1  0.40181500  0.65491500  0.56341800  1
  C  C15  1  0.36112900  0.68273900  0.59794800  1
  C  C16  1  0.30533400  0.65930900  0.68813200  1
  C  C17  1  0.35489400  0.94462400  0.69090100  1
  C  C18  1  0.40447300  0.99028600  0.63229000  1
  C  C19  1  0.44990500  0.00527300  0.53998300  1
  C  C20  1  0.44251700  0.97617000  0.50690800  1
  C  C21  1  0.39266400  0.93138300  0.56496500  1
  C  C22  1  0.34979500  0.91406100  0.65748100  1
  C  C23  1  0.21576100  0.70275900  0.86466000  1
  C  C24  1  0.17312700  0.70949600  0.99449100  1
  C  C25  1  0.23556500  0.78588700  0.85750000  1
  C  C26  1  0.28247000  0.77710400  0.72683900  1
  C  C27  1  0.27292400  0.69280100  0.73241400  1
  C  C28  1  0.30608800  0.86012400  0.71680800  1
  C  C29  1  0.94852200  0.46325600  0.67322700  1
  C  C30  1  0.10589900  0.55231800  0.47284600  1
  C  C31  1  0.06668600  0.59001400  0.34620000  1
  C  C32  1  0.91049700  0.50051100  0.54783300  1
  C  C33  1  0.71085900  0.42569300  0.30074400  1
  C  C34  1  0.67323900  0.45564700  0.33604000  1
  C  C35  1  0.61521100  0.43185800  0.42344300  1
  C  C36  1  0.59721900  0.37926000  0.47823400  1
  C  C37  1  0.63444000  0.34903100  0.44269500  1
  C  C38  1  0.69002500  0.37157500  0.35242900  1
  C  C39  1  0.58405200  0.10163100  0.44919400  1
  C  C40  1  0.53132000  0.05978900  0.50644200  1
  C  C41  1  0.50685200  0.04963100  0.47799800  1
  C  C42  1  0.53784800  0.08060400  0.38972300  1
  C  C43  1  0.59164100  0.12156800  0.33166900  1
  C  C44  1  0.61424500  0.13280800  0.36184600  1
  C  C45  1  0.87324200  0.41981100  0.90641300  1
  C  C46  1  0.90318500  0.45138700  0.81983400  1
  C  C47  1  0.91632900  0.42873900  0.76522000  1
  C  C48  1  0.89946100  0.37397800  0.79776500  1
  C  C49  1  0.86780800  0.34205300  0.88581100  1
  C  C50  1  0.85464400  0.36497900  0.94044400  1
  C  C51  1  0.69648500  0.25759700  0.30636800  1
  C  C52  1  0.71716300  0.33752400  0.30666200  1
  C  C53  1  0.77332800  0.33242700  0.17084000  1
  C  C54  1  0.74362600  0.25608300  0.17085900  1
  C  C55  1  0.66300500  0.18238500  0.30829200  1
  C  C56  1  0.81806400  0.33297900  0.03557700  1
  C  C57  1  0.16029500  0.56764600  0.45312500  1
  C  C58  1  0.39363500  0.46822000  0.50190000  1
  C  C59  1  0.23555500  0.63578100  0.40630300  1
  C  C60  1  0.18556400  0.62024600  0.42407600  1
  C  C61  1  0.18513700  0.53034600  0.46602600  1
  C  C62  1  0.23491900  0.54538900  0.45167900  1
  C  C63  1  0.25972500  0.59894400  0.42042200  1
  C  C64  1  0.25986200  0.50914100  0.46926900  1
  C  C65  1  0.30855200  0.52747000  0.45549700  1
  C  C66  1  0.33318800  0.58195000  0.42014700  1
  C  C67  1  0.30887400  0.61670100  0.40340000  1
  C  C68  1  0.23666100  0.45477500  0.50179900  1
  C  C69  1  0.25868700  0.41977300  0.52359500  1
  C  C70  1  0.30420200  0.43721700  0.51423900  1
  C  C71  1  0.33081100  0.49102200  0.47872700  1
  C  C72  1  0.32174700  0.39986500  0.54276100  1
  C  C73  1  0.36505700  0.41511900  0.53878500  1
  C  C74  1  0.37728300  0.50601200  0.47096300  1
  C  C75  1  0.61083600  0.57228200  0.54015300  1
  C  C76  1  0.85511600  0.48359600  0.57051400  1
  C  C77  1  0.68042200  0.64245200  0.50055000  1
  C  C78  1  0.63702500  0.62568500  0.50547000  1
  C  C79  1  0.62950100  0.53573000  0.56820200  1
  C  C80  1  0.67599800  0.55235800  0.55959800  1
  C  C81  1  0.70039800  0.60639000  0.52596200  1
  C  C82  1  0.70051800  0.51735400  0.57993700  1
  C  C83  1  0.74968600  0.53735300  0.56421100  1
  C  C84  1  0.77068000  0.59180400  0.53362300  1
  C  C85  1  0.74612800  0.62538300  0.51531400  1
  C  C86  1  0.67751500  0.46268600  0.61458300  1
  C  C87  1  0.70401900  0.42936300  0.62840800  1
  C  C88  1  0.75389600  0.44881700  0.60884800  1
  C  C89  1  0.77715200  0.50263400  0.57823400  1
  C  C90  1  0.78031100  0.41338700  0.61989200  1
  C  C91  1  0.83112500  0.43065000  0.59940500  1
  C  C92  1  0.82798500  0.51948900  0.56082700  1
  N  N1  1  0.18072300  0.68026600  0.95280400  1
  N  N2  1  0.23084600  0.67158100  0.82266300  1
  N  N3  1  0.20079000  0.76274700  0.94675200  1
  N  N4  1  0.24347100  0.75548300  0.81668700  1
  N  N5  1  0.29803900  0.74582900  0.68462700  1
  N  N6  1  0.26763200  0.83837300  0.80713300  1
  N  N7  1  0.31321300  0.82913700  0.67765100  1
  N  N8  1  0.68508200  0.28572300  0.35167500  1
  N  N9  1  0.65918200  0.20798700  0.35218500  1
  N  N10  1  0.76202700  0.36039400  0.21612000  1
  N  N11  1  0.73877900  0.28158700  0.21581900  1
  N  N12  1  0.70476200  0.20668400  0.21740400  1
  N  N13  1  0.81270500  0.35775000  0.08133700  1
  N  N14  1  0.78313900  0.28193300  0.08042900  1
  O  O1  1  0.58720600  0.50998600  0.40292400  1
  O  O2  1  0.52188800  0.44179000  0.54450900  1
  O  O3  1  0.58168200  0.58164000  0.46481100  1
  O  O4  1  0.52099400  0.51143100  0.60335300  1
  O  O5  1  0.48236700  0.59600100  0.49774100  1
  O  O6  1  0.41799000  0.52804400  0.63937100  1
  O  O7  1  0.48460400  0.52725400  0.43813500  1
  O  O8  1  0.42294400  0.45753200  0.57744200  1
  O  O9  1  0.97631600  0.44448900  0.61297300  1
  O  O10  1  0.95067400  0.51329900  0.65127400  1
  O  O11  1  0.09455800  0.51078800  0.46476500  1
  O  O12  1  0.06899300  0.58120400  0.49772100  1
  O  O13  1  0.06582400  0.54034100  0.36803200  1
  O  O14  1  0.03898000  0.60898900  0.40622300  1
  O  O15  1  0.94821500  0.47243200  0.52110200  1
  O  O16  1  0.92152200  0.54200400  0.55631700  1
