# generated using pymatgen
data_V2H2C25O10F7
_symmetry_space_group_name_H-M   'P 1'
_cell_length_a   6.82329100
_cell_length_b   20.58341800
_cell_length_c   24.02465200
_cell_angle_alpha   90.24139900
_cell_angle_beta   89.98424800
_cell_angle_gamma   90.01222900
_symmetry_Int_Tables_number   1
_chemical_formula_structural   V2H2C25O10F7
_chemical_formula_sum   'V4 H4 C50 O20 F14'
_cell_volume   3374.15175852
_cell_formula_units_Z   2
loop_
 _symmetry_equiv_pos_site_id
 _symmetry_equiv_pos_as_xyz
  1  'x, y, z'
loop_
 _atom_site_type_symbol
 _atom_site_label
 _atom_site_symmetry_multiplicity
 _atom_site_fract_x
 _atom_site_fract_y
 _atom_site_fract_z
 _atom_site_occupancy
  V  V1  1  0.81880000  0.24297600  0.25053500  1
  V  V2  1  0.18119900  0.75702400  0.74946500  1
  V  V3  1  0.31882000  0.25853900  0.25056800  1
  V  V4  1  0.68118000  0.74146100  0.74943200  1
  H  H1  1  0.31968700  0.47040300  0.03982300  1
  H  H2  1  0.68031300  0.52959700  0.96017700  1
  H  H3  1  0.18146200  0.97263400  0.54176600  1
  H  H4  1  0.81853800  0.02736600  0.45823400  1
  C  C1  1  0.53781200  0.17302900  0.32874400  1
  C  C2  1  0.46218800  0.82697100  0.67125600  1
  C  C3  1  0.53798500  0.17277500  0.17209700  1
  C  C4  1  0.46201500  0.82722500  0.82790300  1
  C  C5  1  0.03807300  0.32845900  0.17234300  1
  C  C6  1  0.96192700  0.67154100  0.82765700  1
  C  C7  1  0.03792600  0.32873500  0.32901100  1
  C  C8  1  0.96207400  0.67126500  0.67098900  1
  C  C9  1  0.91845000  0.47176800  0.54303300  1
  C  C10  1  0.08155000  0.52823100  0.45696700  1
  C  C11  1  0.10512800  0.44956900  0.51467700  1
  C  C12  1  0.89487100  0.55043000  0.48532200  1
  C  C13  1  0.02791700  0.37442800  0.37411900  1
  C  C14  1  0.97208300  0.62557200  0.62588100  1
  C  C15  1  0.82254100  0.48091300  0.48678500  1
  C  C16  1  0.17745900  0.51908700  0.51321500  1
  C  C17  1  0.00921100  0.45875300  0.45846400  1
  C  C18  1  0.99078800  0.54124600  0.54153600  1
  C  C19  1  0.01947900  0.41260300  0.41216000  1
  C  C20  1  0.98052100  0.58739700  0.58784000  1
  C  C21  1  0.17917100  0.48341000  0.02234400  1
  C  C22  1  0.82082900  0.51659000  0.97765600  1
  C  C23  1  0.00965300  0.45692500  0.04379800  1
  C  C24  1  0.99034600  0.54307400  0.95620200  1
  C  C25  1  0.83047600  0.47352700  0.02142100  1
  C  C26  1  0.16952300  0.52647300  0.97857900  1
  C  C27  1  0.01973400  0.41191400  0.08923800  1
  C  C28  1  0.98026600  0.58808600  0.91076200  1
  C  C29  1  0.97185600  0.62603900  0.87273900  1
  C  C30  1  0.02814300  0.37396000  0.12726100  1
  C  C31  1  0.32147400  0.98465600  0.52342800  1
  C  C32  1  0.67852600  0.01534400  0.47657100  1
  C  C33  1  0.49054500  0.95642400  0.54343600  1
  C  C34  1  0.50945500  0.04357600  0.45656400  1
  C  C35  1  0.66907900  0.97178400  0.51997900  1
  C  C36  1  0.33092100  0.02821500  0.48002100  1
  C  C37  1  0.48064800  0.91096800  0.58855300  1
  C  C38  1  0.51935200  0.08903200  0.41144700  1
  C  C39  1  0.52772500  0.12728900  0.37364600  1
  C  C40  1  0.47227500  0.87271100  0.62635400  1
  C  C41  1  0.32081900  0.98330600  0.97757100  1
  C  C42  1  0.67918100  0.01669400  0.02242900  1
  C  C43  1  0.49041500  0.95655300  0.95631600  1
  C  C44  1  0.50958500  0.04344700  0.04368400  1
  C  C45  1  0.66958700  0.97321200  0.97872700  1
  C  C46  1  0.33041300  0.02678800  0.02127300  1
  C  C47  1  0.48040800  0.91119200  0.91096900  1
  C  C48  1  0.51959200  0.08880700  0.08903100  1
  C  C49  1  0.52799300  0.12704100  0.12702600  1
  C  C50  1  0.47200700  0.87295900  0.87297400  1
  O  O1  1  0.37019000  0.19580100  0.19018900  1
  O  O2  1  0.62980900  0.80419900  0.80981100  1
  O  O3  1  0.71246400  0.18370200  0.30754200  1
  O  O4  1  0.28753600  0.81629700  0.69245800  1
  O  O5  1  0.87012700  0.30570900  0.31091800  1
  O  O6  1  0.12987300  0.69429100  0.68908100  1
  O  O7  1  0.71260300  0.18346500  0.19329000  1
  O  O8  1  0.28739700  0.81653500  0.80671000  1
  O  O9  1  0.87027500  0.30545500  0.19039900  1
  O  O10  1  0.12972500  0.69454500  0.80960100  1
  O  O11  1  0.37008100  0.19605700  0.31070400  1
  O  O12  1  0.62991900  0.80394300  0.68929600  1
  O  O13  1  0.54439200  0.29002400  0.25062300  1
  O  O14  1  0.45560800  0.70997600  0.74937700  1
  O  O15  1  0.21268500  0.31779900  0.19354700  1
  O  O16  1  0.78731500  0.68220100  0.80645300  1
  O  O17  1  0.21257300  0.31806000  0.30780400  1
  O  O18  1  0.78742600  0.68194000  0.69219600  1
  O  O19  1  0.04417800  0.21149800  0.25047100  1
  O  O20  1  0.95582100  0.78850200  0.74952900  1
  F  F1  1  0.21587800  0.39637100  0.53002300  1
  F  F2  1  0.78412100  0.60362900  0.46997700  1
  F  F3  1  0.83259200  0.44213800  0.58843200  1
  F  F4  1  0.16740800  0.55786200  0.41156800  1
  F  F5  1  0.36428300  0.53926800  0.52724100  1
  F  F6  1  0.63571700  0.46073200  0.47275800  1
  F  F7  1  0.33616700  0.55249400  0.95757900  1
  F  F8  1  0.66383300  0.44750600  0.04242100  1
  F  F9  1  0.16471800  0.05593500  0.46043000  1
  F  F10  1  0.83528200  0.94406400  0.53957000  1
  F  F11  1  0.16386800  0.05315600  0.04218600  1
  F  F12  1  0.83613200  0.94684400  0.95781400  1
  F  F13  1  0.14482100  0.96685300  0.95552400  1
  F  F14  1  0.85517800  0.03314700  0.04447600  1
