# generated using pymatgen
data_ZnH17C25NO4
_symmetry_space_group_name_H-M   'P 1'
_cell_length_a   15.26641700
_cell_length_b   11.85282500
_cell_length_c   13.41872000
_cell_angle_alpha   90.14853100
_cell_angle_beta   89.99344800
_cell_angle_gamma   90.00000000
_symmetry_Int_Tables_number   1
_chemical_formula_structural   ZnH17C25NO4
_chemical_formula_sum   'Zn2 H34 C50 N2 O8'
_cell_volume   2428.11147809
_cell_formula_units_Z   2
loop_
 _symmetry_equiv_pos_site_id
 _symmetry_equiv_pos_as_xyz
  1  'x, y, z'
loop_
 _atom_site_type_symbol
 _atom_site_label
 _atom_site_symmetry_multiplicity
 _atom_site_fract_x
 _atom_site_fract_y
 _atom_site_fract_z
 _atom_site_occupancy
  Zn  Zn1  1  0.51842000  0.47677300  0.87995200  1
  Zn  Zn2  1  0.51447600  0.46604900  0.10161200  1
  H  H1  1  0.15873700  0.78586700  0.15150500  1
  H  H2  1  0.33663700  0.76561700  0.84621000  1
  H  H3  1  0.28680800  0.66461100  0.14698000  1
  H  H4  1  0.20868500  0.88933400  0.85286500  1
  H  H5  1  0.13536800  0.16730400  0.84706400  1
  H  H6  1  0.35214500  0.16366000  0.11670400  1
  H  H7  1  0.22615000  0.03912800  0.12164800  1
  H  H8  1  0.87496000  0.78536200  0.15706800  1
  H  H9  1  0.69721900  0.76221900  0.85198000  1
  H  H10  1  0.74733100  0.66194100  0.15287200  1
  H  H11  1  0.82395800  0.88679200  0.85810200  1
  H  H12  1  0.87686400  0.15161400  0.83945100  1
  H  H13  1  0.69003400  0.17659800  0.13721700  1
  H  H14  1  0.74912900  0.27440200  0.83785800  1
  H  H15  1  0.81722900  0.05214000  0.13687300  1
  H  H16  1  0.01684100  0.76591500  0.02618600  1
  H  H17  1  0.01339900  0.17472700  0.97142700  1
  H  H18  1  0.51381800  0.64128100  0.23391500  1
  H  H19  1  0.51801600  0.30270800  0.73857300  1
  H  H20  1  0.51566300  0.20049700  0.58739900  1
  H  H21  1  0.51298700  0.19466100  0.40600200  1
  H  H22  1  0.51555000  0.65800000  0.40959200  1
  H  H23  1  0.52012000  0.66318500  0.56433300  1
  H  H24  1  0.51215200  0.28753800  0.24965600  1
  H  H25  1  0.52175700  0.65682600  0.74138000  1
  H  H26  1  0.31573800  0.31415700  0.77138800  1
  H  H27  1  0.26916300  0.41764500  0.85607100  1
  H  H28  1  0.11960700  0.35850000  0.80176700  1
  H  H29  1  0.17090300  0.26669600  0.70911500  1
  H  H30  1  0.24907000  0.43248000  0.63949800  1
  H  H31  1  0.19459700  0.52283600  0.72904500  1
  H  H32  1  0.10491700  0.37410200  0.57118200  1
  H  H33  1  0.11852300  0.52549400  0.56668200  1
  H  H34  1  0.05000400  0.46314400  0.66164700  1
  C  C1  1  0.32147900  0.70681100  0.99628700  1
  C  C2  1  0.09482400  0.91313000  0.00493300  1
  C  C3  1  0.19852400  0.78295400  0.08489500  1
  C  C4  1  0.29884300  0.77073700  0.91418200  1
  C  C5  1  0.27148400  0.71463200  0.08208300  1
  C  C6  1  0.17613300  0.84717400  0.00333100  1
  C  C7  1  0.22687700  0.84140500  0.91809200  1
  C  C8  1  0.31631500  0.24219900  0.97887600  1
  C  C9  1  0.09389300  0.02856900  0.98830500  1
  C  C10  1  0.18441200  0.17021900  0.90467300  1
  C  C11  1  0.30550300  0.16643600  0.05618500  1
  C  C12  1  0.25398400  0.24580800  0.90196100  1
  C  C13  1  0.17440900  0.09569600  0.98236800  1
  C  C14  1  0.23492900  0.09428700  0.05843300  1
  C  C15  1  0.71293600  0.70372500  0.00220100  1
  C  C16  1  0.93730400  0.91224000  0.00848200  1
  C  C17  1  0.83494300  0.78172900  0.09067300  1
  C  C18  1  0.73487800  0.76776500  0.92000600  1
  C  C19  1  0.76253900  0.71229600  0.08812400  1
  C  C20  1  0.85660200  0.84580000  0.00867900  1
  C  C21  1  0.80606000  0.83912900  0.92358900  1
  C  C22  1  0.01641900  0.85644000  0.01656600  1
  C  C23  1  0.71006400  0.23406900  0.98735800  1
  C  C24  1  0.93634200  0.02722900  0.99085400  1
  C  C25  1  0.83491400  0.15542500  0.90428700  1
  C  C26  1  0.72967300  0.17043300  0.07069200  1
  C  C27  1  0.76229400  0.22462500  0.90352100  1
  C  C28  1  0.85461500  0.09218400  0.98749700  1
  C  C29  1  0.80121100  0.09913100  0.07039000  1
  C  C30  1  0.01455600  0.08424100  0.98117800  1
  C  C31  1  0.64041600  0.62313300  0.99677500  1
  C  C32  1  0.63782500  0.31581800  0.98942100  1
  C  C33  1  0.39128000  0.32062700  0.98443000  1
  C  C34  1  0.39480800  0.62673900  0.99242800  1
  C  C35  1  0.51265000  0.36858100  0.28674700  1
  C  C36  1  0.51357900  0.56493700  0.27767700  1
  C  C37  1  0.51484600  0.57375900  0.37981800  1
  C  C38  1  0.51544700  0.47746500  0.43839900  1
  C  C39  1  0.51397200  0.37405700  0.38986100  1
  C  C40  1  0.51956700  0.58084600  0.59766800  1
  C  C41  1  0.51746600  0.48092700  0.54293100  1
  C  C42  1  0.51739300  0.38070000  0.59551200  1
  C  C43  1  0.51570400  0.27865300  0.54606500  1
  C  C44  1  0.51414300  0.27532000  0.44375500  1
  C  C45  1  0.52078500  0.57828600  0.70033700  1
  C  C46  1  0.51869400  0.38160800  0.69843700  1
  C  C47  1  0.25947300  0.33393100  0.82068600  1
  C  C48  1  0.17850800  0.34406300  0.75499100  1
  C  C49  1  0.18914100  0.44372600  0.68517100  1
  C  C50  1  0.11040000  0.45195700  0.61676700  1
  N  N1  1  0.51270900  0.46368400  0.23228800  1
  N  N2  1  0.52014000  0.47957600  0.74929100  1
  O  O1  1  0.61056500  0.57994700  0.07998500  1
  O  O2  1  0.61041200  0.59426800  0.90877300  1
  O  O3  1  0.61182800  0.36004100  0.90483700  1
  O  O4  1  0.60497700  0.34561200  0.07602100  1
  O  O5  1  0.42291700  0.36234100  0.90167300  1
  O  O6  1  0.42190200  0.34909500  0.07268000  1
  O  O7  1  0.42150500  0.58316500  0.07670100  1
  O  O8  1  0.42736400  0.59666200  0.90564100  1
