# Generated by REPEAT Assigner based on pymatgen
data_DB0-m29_o96_o530_f0_pts.sym.32
_audit_creation_date              2022-05-24
_audit_creation_method            REPEAT_Assigner
_cell_length_a                    17.384171
_cell_length_b                    19.125857
_cell_length_c                    18.826484
_cell_angle_alpha                 91.290818
_cell_angle_beta                  90.621725
_cell_angle_gamma                 66.301493
_cell_volume                      5730.249291
_symmetry_space_group_name_H-M    P1
_symmetry_Int_Tables_number       1
loop_
    _symmetry_equiv_pos_site_id
    _symmetry_equiv_pos_as_xyz
    1  x,y,z
loop_
    _atom_site_type_symbol
    _atom_site_label
    _atom_site_fract_x
    _atom_site_fract_y
    _atom_site_fract_z
    _atom_type_partial_charge
    C   C1   0.205735  0.035224  0.107705  -0.015009
    C   C2   0.141951  0.074129  0.153195  0.030983
    C   C3   0.072663  0.062292  0.130028  0.411430
    N   N1   0.091267  0.019796  0.069419  -0.511811
    C   C4   0.172640  0.003954  0.055030  0.378554
    C   C5   0.999856  0.084737  0.164765  -0.439566
    C   C6   0.933737  0.058314  0.145037  0.348559
    C   C7   0.876488  0.048657  0.190849  -0.173877
    C   C8   0.818834  0.036046  0.148862  0.131076
    C   C9   0.843148  0.034781  0.079264  0.148923
    N   N2   0.912476  0.049885  0.077171  -0.232053
    C   C10  0.796706  0.023497  0.017487  -0.289208
    C   C11  0.832534  0.993816  0.955150  0.387513
    C   C12  0.792905  0.979580  0.895333  -0.098878
    C   C13  0.850065  0.961577  0.841314  0.045560
    C   C14  0.925340  0.956368  0.871316  0.292330
    N   N3   0.913751  0.977917  0.940342  -0.451239
    C   C15  0.000061  0.928392  0.838959  -0.249256
    C   C16  0.077371  0.933478  0.866134  0.111852
    C   C17  0.140266  0.934004  0.822596  0.088998
    C   C18  0.198556  0.945057  0.864449  0.000116
    C   C19  0.170612  0.950813  0.933844  0.177099
    N   N4   0.096545  0.942875  0.934433  -0.125420
    C   C20  0.212708  0.968802  0.995797  -0.360293
    H   H1   0.991503  0.118521  0.213069  0.169048
    H   H2   0.730283  0.040407  0.024592  0.118295
    H   H3   0.004692  0.902455  0.786972  0.104871
    H   H4   0.277010  0.961981  0.988864  0.171507
    H   H5   0.939342  0.061111  0.032042  0.257706
    H   H6   0.062179  0.941227  0.978720  0.239080
    C   C21  0.146978  0.929244  0.749893  -0.118619
    C   C22  0.215653  0.935882  0.719730  -0.139172
    C   C23  0.275756  0.947855  0.761866  0.056361
    C   C24  0.267463  0.952558  0.835536  -0.154125
    C   C25  0.285898  0.031057  0.119345  -0.226002
    C   C26  0.298350  0.070859  0.177620  0.079007
    C   C27  0.231506  0.114413  0.221309  -0.044392
    C   C28  0.152658  0.115046  0.210432  -0.192048
    C   C29  0.869091  0.050307  0.264316  0.085449
    C   C30  0.798005  0.045280  0.292469  -0.188015
    C   C31  0.737896  0.035182  0.248952  0.007856
    C   C32  0.749285  0.028827  0.176029  -0.154630
    C   C33  0.713814  0.979032  0.884133  -0.058683
    C   C34  0.692096  0.968779  0.814863  0.026233
    C   C35  0.746640  0.960623  0.759467  -0.158904
    C   C36  0.826247  0.957276  0.771355  -0.113522
    H   H7   0.100183  0.921414  0.716369  0.125229
    H   H8   0.312860  0.962891  0.868920  0.157879
    H   H9   0.337944  0.997205  0.085507  0.150880
    H   H10  0.241829  0.145343  0.266537  0.104756
    H   H11  0.101987  0.146933  0.246280  0.133834
    H   H12  0.704291  0.019513  0.141361  0.200366
    H   H13  0.725865  0.957250  0.705800  0.193329
    H   H14  0.221155  0.932479  0.662539  0.147912
    H   H15  0.790976  0.046691  0.349469  0.180183
    O   O1   0.605436  0.022826  0.238902  -0.696063
    C   C37  0.663514  0.029694  0.280244  0.735161
    O   O2   0.658454  0.869000  0.309155  -0.467113
    O   O3   0.654980  0.031196  0.349500  -0.536907
    O   O4   0.531134  0.932844  0.361892  -0.588231
    C   C38  0.605534  0.875870  0.360668  0.500351
    Fe  Fe1  0.512661  0.015704  0.294027  1.496049
    O   O5   0.434382  0.997673  0.224002  -0.576749
    O   O6   0.393757  0.125421  0.214758  -0.593895
    C   C39  0.382263  0.063261  0.198532  0.613754
    O   O7   0.473470  0.113388  0.351505  -0.601485
    O   O8   0.364880  0.077597  0.359500  -0.544190
    C   C40  0.398617  0.125878  0.376630  0.798519
    C   C41  0.883005  0.660930  0.465097  0.394110
    N   N5   0.811639  0.658162  0.488947  -0.056362
    C   C42  0.811097  0.593991  0.516237  0.407773
    C   C43  0.886103  0.530082  0.525163  -0.150670
    C   C44  0.958849  0.530240  0.495489  0.128564
    C   C45  0.957061  0.595056  0.462418  -0.152862
    C   C46  0.890235  0.464971  0.560498  0.038314
    C   C47  0.964123  0.400483  0.560474  -0.053571
    C   C48  0.035822  0.400688  0.530395  -0.113773
    C   C49  0.033354  0.465738  0.499020  0.097219
    C   C50  0.106099  0.465570  0.471026  -0.133623
    C   C51  0.104368  0.529322  0.437398  -0.029193
    C   C52  0.030415  0.592964  0.430583  0.038136
    C   C53  0.110376  0.336202  0.532569  0.436717
    N   N6   0.181362  0.337173  0.505271  -0.142808
    C   C54  0.180137  0.400811  0.474963  0.455186
    O   O9   0.882006  0.729142  0.448163  -0.355826
    O   O10  0.736583  0.592382  0.531644  -0.401302
    H   H16  0.966016  0.350975  0.588144  0.133614
    O   O11  0.111568  0.271598  0.560215  -0.456398
    O   O12  0.251626  0.401457  0.449165  -0.466581
    H   H17  0.160146  0.528681  0.412197  0.134832
    C   C55  0.295325  0.237126  0.441666  -0.212426
    H   H18  0.266088  0.261169  0.391902  0.142096
    C   C56  0.368329  0.171764  0.441191  -0.019236
    C   C57  0.401802  0.137611  0.503887  -0.144276
    C   C58  0.361963  0.166265  0.567678  0.067183
    C   C59  0.290746  0.233703  0.568803  -0.216225
    H   H19  0.259463  0.257121  0.618498  0.162642
    C   C60  0.257553  0.269731  0.505545  0.234332
    C   C61  0.697370  0.758491  0.551710  -0.154490
    H   H20  0.725706  0.733894  0.601569  0.158033
    C   C62  0.627480  0.826529  0.551734  0.070777
    C   C63  0.595329  0.860916  0.488412  -0.171051
    C   C64  0.633874  0.829921  0.424732  0.168879
    C   C65  0.704371  0.761946  0.424642  -0.222276
    H   H21  0.736235  0.737798  0.375321  0.170695
    C   C66  0.735611  0.725568  0.488116  0.076726
    H   H22  0.455791  0.083771  0.500681  0.137744
    H   H23  0.544111  0.916696  0.490337  0.159734
    O   O13  0.559330  0.018591  0.758077  -0.637856
    O   O14  0.607356  0.897845  0.798648  -0.569711
    C   C67  0.612552  0.964346  0.796989  0.717014
    O   O15  0.538950  0.874117  0.654882  -0.530559
    O   O16  0.619168  0.934525  0.619573  -0.496935
    C   C68  0.601116  0.874274  0.615845  0.572960
    O   O17  0.352494  0.137600  0.691440  -0.524584
    O   O18  0.404684  0.967859  0.764701  -0.620823
    C   C69  0.346330  0.956893  0.727194  0.650457
    O   O19  0.454301  0.051946  0.620828  -0.532169
    C   C70  0.392055  0.118733  0.630426  0.584422
    O   O20  0.350880  0.955089  0.657607  -0.560933
    Fe  Fe2  0.487670  0.978944  0.699719  1.466261
    C   C71  0.935046  0.050434  0.313673  0.602123
    O   O21  0.008906  0.014242  0.299270  -0.457995
    O   O22  0.913291  0.084815  0.380585  -0.572239
    H   H24  0.965752  0.077078  0.408979  0.415168
    C   C72  0.657656  0.979282  0.941967  0.664443
    O   O23  0.685162  0.936051  0.991455  -0.502370
    O   O24  0.572383  0.026275  0.939316  -0.564023
    H   H25  0.543051  0.018303  0.982584  0.412812
    C   C73  0.874656  0.961239  0.709224  0.764161
    O   O25  0.870978  0.928153  0.654013  -0.551059
    O   O26  0.916681  0.009739  0.710309  -0.593330
    H   H26  0.943620  0.007931  0.662547  0.418957
    C   C74  0.821989  0.462161  0.604238  0.587980
    O   O27  0.785814  0.513275  0.647255  -0.457338
    O   O28  0.805701  0.396623  0.603064  -0.550987
    H   H27  0.760013  0.402363  0.638415  0.415764
    C   C75  0.033001  0.652332  0.383504  0.560907
    O   O29  0.979828  0.678537  0.337418  -0.452102
    O   O30  0.101863  0.671980  0.385675  -0.545848
    H   H28  0.095922  0.710701  0.347961  0.419820
