# Generated by REPEAT Assigner based on pymatgen
data_DB0-m29_o83_o470_f0_pts.sym.50
_audit_creation_date              2022-05-24
_audit_creation_method            REPEAT_Assigner
_cell_length_a                    15.764186
_cell_length_b                    12.474904
_cell_length_c                    13.150141
_cell_angle_alpha                 80.789311
_cell_angle_beta                  88.190382
_cell_angle_gamma                 107.905817
_cell_volume                      2420.072139
_symmetry_space_group_name_H-M    P1
_symmetry_Int_Tables_number       1
loop_
    _symmetry_equiv_pos_site_id
    _symmetry_equiv_pos_as_xyz
    1  x,y,z
loop_
    _atom_site_type_symbol
    _atom_site_label
    _atom_site_fract_x
    _atom_site_fract_y
    _atom_site_fract_z
    _atom_type_partial_charge
    C   C1   0.309573  0.033513  0.030253  -0.086246
    C   C2   0.293085  0.035488  0.926621  -0.048929
    C   C3   0.206698  0.024851  0.899499  -0.172161
    C   C4   0.239863  0.016529  0.102795  -0.191671
    C   C5   0.154678  0.005423  0.075201  0.157329
    C   C6   0.135525  0.007837  0.973565  0.122164
    C   C7   0.046675  0.995713  0.949391  0.013013
    C   C8   0.021077  0.982634  0.851001  -0.201700
    C   C9   0.936409  0.979194  0.823785  0.134294
    C   C10  0.089259  0.993330  0.151171  -0.176369
    C   C11  0.004464  0.988522  0.127419  -0.173755
    C   C12  0.981771  0.992687  0.025784  0.060636
    C   C13  0.895818  0.992830  0.999048  0.112483
    C   C14  0.875231  0.989737  0.897451  -0.056473
    C   C15  0.792404  0.995882  0.870130  -0.036660
    C   C16  0.830048  0.998707  0.070796  -0.189322
    C   C17  0.746604  0.002204  0.043174  0.059749
    C   C18  0.728618  0.001853  0.940617  -0.156657
    H   H1   0.198327  0.034406  0.818318  0.142800
    H   H2   0.252993  0.016007  0.182999  0.188683
    H   H3   0.066400  0.970874  0.795356  0.096300
    H   H4   0.104606  0.990111  0.230904  0.119889
    H   H5   0.958272  0.978720  0.192560  0.164118
    H   H6   0.773774  0.994522  0.792284  0.154714
    H   H7   0.842182  0.005639  0.149549  0.114987
    O   O1   0.615739  0.050393  0.095418  -0.601265
    C   C19  0.681347  0.010641  0.122899  0.608140
    O   O2   0.511957  0.793676  0.256516  -0.529126
    O   O3   0.689423  0.979734  0.221351  -0.536862
    O   O4   0.508342  0.937085  0.341452  -0.663102
    C   C20  0.495309  0.827789  0.342143  0.736709
    Fe  Fe1  0.525871  0.042442  0.207347  1.517583
    O   O5   0.405140  0.985301  0.154376  -0.702632
    O   O6   0.463762  0.145609  0.033145  -0.505835
    C   C21  0.397944  0.051268  0.068995  0.879841
    O   O7   0.569929  0.201866  0.238104  -0.653027
    O   O8   0.421156  0.178205  0.248026  -0.579065
    C   C22  0.502845  0.237587  0.262408  0.700477
    O   O9   0.462683  0.905164  0.706073  -0.618457
    O   O10  0.586519  0.854483  0.744588  -0.558810
    C   C23  0.510427  0.835637  0.702199  0.638104
    O   O11  0.648565  0.070727  0.808555  -0.700833
    O   O12  0.567552  0.935071  0.942711  -0.509610
    C   C24  0.644445  0.007423  0.899743  0.848437
    O   O13  0.341118  0.030999  0.750652  -0.527615
    O   O14  0.562852  0.172237  0.626529  -0.616772
    C   C25  0.528593  0.256344  0.621820  0.544720
    O   O15  0.445417  0.053747  0.866904  -0.603951
    C   C26  0.362704  0.042029  0.844887  0.680957
    O   O16  0.477712  0.260752  0.700887  -0.493324
    Fe  Fe2  0.529059  0.051980  0.752101  1.504512
    C   C27  0.477649  0.751857  0.444908  -0.030139
    C   C28  0.475893  0.806352  0.528434  -0.118997
    C   C29  0.493350  0.761598  0.624527  0.087689
    C   C30  0.511694  0.659848  0.638492  -0.280815
    C   C31  0.501548  0.596667  0.559738  0.315150
    C   C32  0.478326  0.637984  0.463791  -0.065776
    C   C33  0.515663  0.491950  0.578581  -0.251150
    C   C34  0.509815  0.427156  0.501622  0.041296
    C   C35  0.484375  0.466227  0.406091  0.082831
    C   C36  0.456643  0.563533  0.392484  0.048723
    C   C37  0.527839  0.323106  0.518543  0.073703
    C   C38  0.534698  0.270635  0.435291  -0.161295
    C   C39  0.513583  0.311425  0.339742  0.067375
    C   C40  0.484846  0.405819  0.325927  -0.194403
    H   H8   0.470619  0.891548  0.517979  0.143579
    H   H9   0.531169  0.627939  0.712444  0.171016
    H   H10  0.547418  0.189485  0.445603  0.158394
    H   H11  0.465828  0.432712  0.250404  0.144054
    H   H12  0.537935  0.466329  0.652491  0.163993
    C   C41  0.386869  0.572125  0.317805  -0.023634
    C   C42  0.302275  0.469228  0.345172  0.025709
    C   C43  0.226498  0.492794  0.286732  0.192145
    C   C44  0.144192  0.387525  0.307666  -0.265637
    H   H13  0.413112  0.581042  0.236645  0.082151
    H   H14  0.364586  0.646675  0.323786  -0.007964
    H   H15  0.283303  0.454167  0.429422  0.006657
    H   H16  0.312735  0.391427  0.324398  -0.007540
    H   H17  0.247024  0.514773  0.202592  -0.033513
    H   H18  0.209869  0.565043  0.312259  -0.022374
    H   H19  0.158857  0.315236  0.279770  0.063114
    H   H20  0.088767  0.406411  0.266337  0.056125
    H   H21  0.123864  0.363834  0.391835  0.059396
    C   C45  0.909630  0.964465  0.715701  -0.171279
    C   C46  0.977897  0.943319  0.643408  0.137428
    C   C47  0.938811  0.924453  0.541230  0.103368
    C   C48  0.006355  0.903824  0.468528  -0.245269
    H   H22  0.895681  0.042662  0.677860  0.054507
    H   H23  0.848098  0.889679  0.722397  0.055845
    H   H24  0.993910  0.865398  0.677873  0.000454
    H   H25  0.039161  0.019015  0.628035  -0.003202
    H   H26  0.921772  0.001090  0.505392  -0.012131
    H   H27  0.877543  0.848810  0.554415  -0.010324
    H   H28  0.067456  0.979672  0.453150  0.047632
    H   H29  0.976767  0.888982  0.394628  0.064493
    H   H30  0.024068  0.827431  0.503596  0.048206
