# Generated by REPEAT Assigner based on pymatgen
data_DB0-m3_o146_o14_f0_fsc.sym.16_sqe
_audit_creation_date              2022-05-24
_audit_creation_method            REPEAT_Assigner
_cell_length_a                    15.439723
_cell_length_b                    11.603469
_cell_length_c                    9.307174
_cell_angle_alpha                 90.166761
_cell_angle_beta                  90.001095
_cell_angle_gamma                 90.000000
_cell_volume                      1667.413513
_symmetry_space_group_name_H-M    P1
_symmetry_Int_Tables_number       1
loop_
    _symmetry_equiv_pos_site_id
    _symmetry_equiv_pos_as_xyz
    1  x,y,z
loop_
    _atom_site_type_symbol
    _atom_site_label
    _atom_site_fract_x
    _atom_site_fract_y
    _atom_site_fract_z
    _atom_type_partial_charge
    C   C1   0.308932  0.741496  0.004902  -0.202620
    C   C2   0.079997  0.942561  0.007693  0.234547
    C   C3   0.182820  0.811893  0.127728  0.224170
    C   C4   0.288660  0.810885  0.888551  0.453626
    C   C5   0.256632  0.745055  0.125681  -0.210249
    H   H1   0.270797  0.692062  0.218016  0.146044
    C   C6   0.161689  0.878623  0.010538  0.037101
    C   C7   0.215852  0.880004  0.892621  -0.374060
    H   H2   0.199412  0.931640  0.800058  0.137442
    C   C8   0.304158  0.266550  0.992278  -0.138301
    C   C9   0.079336  0.059942  0.984499  -0.530564
    C   C10  0.180128  0.193853  0.867514  -0.328767
    H   H3   0.138714  0.194116  0.773856  0.160138
    C   C11  0.284278  0.197509  0.108351  -0.005345
    H   H4   0.323854  0.199368  0.204115  0.063077
    C   C12  0.252744  0.262637  0.870745  -0.060088
    H   H5   0.266661  0.316647  0.779216  0.112193
    C   C13  0.160021  0.125495  0.983568  0.586770
    C   C14  0.213070  0.125739  0.102951  -0.414149
    H   H6   0.196746  0.073782  0.195287  0.202829
    C   C15  0.697419  0.736328  0.007753  -0.698524
    C   C16  0.924592  0.941427  0.007523  0.212003
    C   C17  0.826612  0.803443  0.124913  -0.122272
    C   C18  0.713770  0.811561  0.895327  0.624048
    C   C19  0.754129  0.734285  0.123821  0.582010
    C   C20  0.843568  0.876015  0.011500  0.206701
    C   C21  0.786162  0.881405  0.898147  -0.580838
    H   H7   0.799429  0.937036  0.807831  0.169872
    C   C22  0.002643  0.883376  0.017095  -0.015848
    C   C23  0.696542  0.262763  0.994592  -0.447897
    C   C24  0.924091  0.059112  0.984660  -0.542289
    C   C25  0.823024  0.195214  0.870800  -0.499817
    H   H8   0.865170  0.198594  0.778153  0.191927
    C   C26  0.716046  0.190240  0.108140  0.678678
    C   C27  0.749699  0.262802  0.874864  0.089553
    H   H9   0.736510  0.319042  0.785157  0.098686
    C   C28  0.842842  0.124119  0.984443  0.748983
    C   C29  0.788347  0.120305  0.101856  -0.705735
    H   H10  0.804038  0.066067  0.192415  0.198026
    C   C30  0.001551  0.117748  0.971784  0.515618
    O   O1   0.594298  0.614920  0.125325  -0.729296
    O   O2   0.592899  0.623955  0.875423  -0.708710
    C   C31  0.623456  0.656012  0.002341  1.015997
    O   O3   0.595109  0.385528  0.878977  -0.670820
    O   O4   0.591388  0.376270  0.123219  -0.562065
    C   C32  0.622989  0.343163  0.999732  0.813814
    O   O5   0.406364  0.388291  0.877988  -0.659354
    O   O6   0.407948  0.379002  0.122413  -0.684033
    C   C33  0.377059  0.346968  0.998206  0.774132
    O   O7   0.408734  0.617442  0.124601  -0.482585
    O   O8   0.412554  0.626648  0.874494  -0.505498
    C   C34  0.381764  0.659752  0.000753  0.546980
    Zn  Zn1  0.501747  0.502665  0.840067  0.934480
    Zn  Zn2  0.500588  0.497596  0.161106  0.950286
    H   H11  0.502218  0.679398  0.629589  0.193312
    C   C35  0.499597  0.290168  0.649123  -0.021195
    H   H12  0.500293  0.279134  0.761702  0.113395
    C   C36  0.497179  0.186878  0.578698  -0.273667
    H   H13  0.496117  0.107223  0.638618  0.157584
    C   C37  0.496236  0.184900  0.433585  -0.020143
    H   H14  0.494253  0.103593  0.376712  0.100012
    C   C38  0.498039  0.286216  0.359373  0.062589
    H   H15  0.497847  0.272079  0.247341  0.077345
    C   C39  0.499752  0.394358  0.427256  0.050683
    C   C40  0.500549  0.396405  0.577360  0.090082
    N   N1   0.502027  0.498970  0.650505  0.022806
    C   C41  0.501886  0.597404  0.574213  -0.260494
    C   C42  0.501041  0.595686  0.424950  0.541899
    N   N2   0.500343  0.495016  0.350849  -0.207239
    O   O9   0.131072  0.812458  0.246861  -0.518434
    H   H16  0.106866  0.733549  0.251488  0.379930
    O   O10  0.658729  0.818102  0.780660  -0.554721
    H   H17  0.687774  0.773183  0.703940  0.351953
    O   O11  0.742222  0.659572  0.235329  -0.471060
    H   H18  0.718243  0.707789  0.313723  0.280536
    O   O12  0.664083  0.186014  0.226698  -0.563880
    H   H19  0.626196  0.118552  0.209507  0.305260
    O   O13  0.003429  0.765787  0.024666  -0.386437
    H   H20  0.003387  0.739902  0.923208  0.327950
    O   O14  0.001312  0.234993  0.958252  -0.520135
    H   H21  0.001223  0.264182  0.058320  0.338535
    O   O15  0.339904  0.812098  0.768872  -0.529371
    H   H22  0.382552  0.874055  0.787623  0.334082
    O   O16  0.500359  0.698235  0.353294  -0.511982
    H   H23  0.557789  0.732609  0.373358  0.375998
    O   O17  0.881822  0.799587  0.239574  -0.406565
    H   H24  0.859866  0.859466  0.306233  0.311365
