# Generated by REPEAT Assigner based on pymatgen
data_DB0-m3_o142_o152_f0_fsc_sqe
_audit_creation_date              2022-05-24
_audit_creation_method            REPEAT_Assigner
_cell_length_a                    8.576404
_cell_length_b                    10.879785
_cell_length_c                    13.372240
_cell_angle_alpha                 90.491360
_cell_angle_beta                  90.006991
_cell_angle_gamma                 89.993555
_cell_volume                      1247.710266
_symmetry_space_group_name_H-M    P1
_symmetry_Int_Tables_number       1
loop_
    _symmetry_equiv_pos_site_id
    _symmetry_equiv_pos_as_xyz
    1  x,y,z
loop_
    _atom_site_type_symbol
    _atom_site_label
    _atom_site_fract_x
    _atom_site_fract_y
    _atom_site_fract_z
    _atom_type_partial_charge
    O   O1   0.835082  0.865079  0.078435  -0.737330
    O   O2   0.834032  0.884303  0.909680  -0.787835
    C   C1   0.782796  0.829931  0.990393  0.938398
    O   O3   0.835000  0.141362  0.922219  -0.699301
    O   O4   0.834144  0.122416  0.091226  -0.682772
    C   C2   0.782891  0.176755  0.010359  0.850646
    O   O5   0.166411  0.138997  0.921644  -0.706915
    O   O6   0.169086  0.118921  0.090888  -0.701065
    C   C3   0.222091  0.170996  0.009535  0.831385
    O   O7   0.166506  0.867335  0.079285  -0.726125
    O   O8   0.169834  0.887719  0.910345  -0.777790
    C   C4   0.222718  0.835494  0.991591  0.907194
    Zn  Zn1  0.000177  0.013959  0.890547  1.100228
    Zn  Zn2  0.000014  0.992320  0.110243  1.055145
    C   C5   0.999791  0.095932  0.292542  -0.342840
    N   N1   0.999969  0.988788  0.241581  0.172551
    C   C6   0.000236  0.881496  0.290522  -0.171395
    C   C7   0.000389  0.879518  0.393669  -0.050389
    C   C8   0.000185  0.988972  0.448202  -0.316545
    C   C9   0.999729  0.097800  0.395652  0.735112
    C   C10  0.001377  0.890049  0.611837  -0.278842
    C   C11  0.000358  0.993956  0.552675  0.344681
    C   C12  0.999629  0.107422  0.600111  -0.045657
    C   C13  0.999042  0.213272  0.544345  0.252327
    N   N2   0.999194  0.206766  0.443979  -0.649127
    C   C14  0.001423  0.901702  0.714339  -0.054906
    N   N3   0.000333  0.013039  0.758868  0.142886
    C   C15  0.999520  0.115626  0.703490  -0.200155
    H   H1   0.000375  0.795928  0.248838  0.162344
    H   H2   0.998819  0.204552  0.740175  0.166574
    H   H3   0.998544  0.302145  0.581115  0.092829
    H   H4   0.000507  0.790446  0.427720  0.119680
    H   H5   0.002342  0.798035  0.582070  0.173646
    H   H6   0.999709  0.181798  0.252503  0.185104
    H   H7   0.002379  0.819552  0.759133  0.148841
    C   C16  0.503527  0.818291  0.973256  -0.116312
    C   C17  0.363489  0.760488  0.986109  -0.036754
    C   C18  0.358944  0.635677  0.000351  -0.389059
    C   C19  0.640855  0.755528  0.984272  -0.115891
    C   C20  0.638308  0.628489  0.993759  -0.232372
    C   C21  0.496326  0.567066  0.998022  0.464146
    C   C22  0.496176  0.438910  0.003434  -0.323458
    C   C23  0.358592  0.370595  0.001392  -0.083688
    C   C24  0.362952  0.245656  0.015116  -0.142442
    C   C25  0.775861  0.562375  0.997089  0.305333
    N   N4   0.773155  0.439043  0.003547  -0.658511
    C   C26  0.637799  0.376754  0.007171  0.659085
    C   C27  0.640061  0.250062  0.016377  -0.344955
    C   C28  0.502824  0.187350  0.027383  -0.008040
    H   H8   0.887123  0.608675  0.993565  0.032391
    H   H9   0.506120  0.915702  0.961115  0.143253
    H   H10  0.505195  0.089878  0.039220  0.118924
    H   H11  0.245875  0.596563  0.013540  0.185854
    H   H12  0.245530  0.409964  0.988631  0.091913
