# generated using pymatgen
data_VH8C14NO6
_symmetry_space_group_name_H-M   'P 1'
_cell_length_a   21.35460000
_cell_length_b   6.81800000
_cell_length_c   19.88190000
_cell_angle_alpha   90.00000000
_cell_angle_beta   102.97830800
_cell_angle_gamma   90.00000000
_symmetry_Int_Tables_number   1
_chemical_formula_structural   VH8C14NO6
_chemical_formula_sum   'V4 H32 C56 N4 O24'
_cell_volume   2820.77329169
_cell_formula_units_Z   4
loop_
 _symmetry_equiv_pos_site_id
 _symmetry_equiv_pos_as_xyz
  1  'x, y, z'
loop_
 _atom_site_type_symbol
 _atom_site_label
 _atom_site_symmetry_multiplicity
 _atom_site_fract_x
 _atom_site_fract_y
 _atom_site_fract_z
 _atom_site_occupancy
  V  V1  1  0.74777500  0.22761600  0.23773200  1
  V  V2  1  0.25236300  0.80103100  0.76214200  1
  V  V3  1  0.75222400  0.72761500  0.26226800  1
  V  V4  1  0.24763600  0.30102800  0.73785700  1
  H  H1  1  0.52771400  0.33134100  0.45387600  1
  H  H2  1  0.46911800  0.69979100  0.54245000  1
  H  H3  1  0.97228700  0.83133900  0.04612500  1
  H  H4  1  0.03088100  0.19978900  0.95754900  1
  H  H5  1  0.45152200  0.32157700  0.52991800  1
  H  H6  1  0.54530100  0.70953300  0.46641600  1
  H  H7  1  0.04848000  0.82157600  0.97008400  1
  H  H8  1  0.95469800  0.20953400  0.03358100  1
  H  H9  1  0.88737300  0.80733200  0.45862900  1
  H  H10  1  0.11066300  0.22447700  0.54395900  1
  H  H11  1  0.61262700  0.30733200  0.04137100  1
  H  H12  1  0.38933700  0.72447700  0.95604200  1
  H  H13  1  0.95098800  0.72828900  0.57016300  1
  H  H14  1  0.04413800  0.31486600  0.43353100  1
  H  H15  1  0.54901000  0.22828400  0.92983700  1
  H  H16  1  0.45586300  0.81487000  0.06646700  1
  H  H17  1  0.97878800  0.39671200  0.32387900  1
  H  H18  1  0.95444100  0.40702400  0.20706800  1
  H  H19  1  0.89222300  0.24112500  0.16258500  1
  H  H20  1  0.97518000  0.16304800  0.18317200  1
  H  H21  1  0.00435900  0.71947800  0.68968200  1
  H  H22  1  0.02527300  0.36243100  0.69900100  1
  H  H23  1  0.07467400  0.46760700  0.77614600  1
  H  H24  1  0.11012100  0.30768300  0.72237800  1
  H  H25  1  0.52121300  0.89671400  0.17612100  1
  H  H26  1  0.54556100  0.90702700  0.29293200  1
  H  H27  1  0.60777900  0.74112500  0.33741600  1
  H  H28  1  0.52482000  0.66305000  0.31682700  1
  H  H29  1  0.49564000  0.21948400  0.81031700  1
  H  H30  1  0.47472700  0.86243200  0.80099800  1
  H  H31  1  0.42532600  0.96761300  0.72385400  1
  H  H32  1  0.38987900  0.80768300  0.77762200  1
  C  C1  1  0.64914500  0.51151400  0.16001500  1
  C  C2  1  0.35232700  0.51719400  0.83808500  1
  C  C3  1  0.85085400  0.01151400  0.33998400  1
  C  C4  1  0.14767400  0.01719300  0.66191500  1
  C  C5  1  0.82851600  0.51006600  0.17440200  1
  C  C6  1  0.17346100  0.51886800  0.82786800  1
  C  C7  1  0.67148600  0.01007100  0.32559700  1
  C  C8  1  0.32653900  0.01886500  0.67213200  1
  C  C9  1  0.47182600  0.18616800  0.51615200  1
  C  C10  1  0.52488100  0.84490600  0.48005100  1
  C  C11  1  0.02817500  0.68616700  0.98384900  1
  C  C12  1  0.97511900  0.34490600  0.01994900  1
  C  C13  1  0.45444700  0.00988900  0.54176800  1
  C  C14  1  0.54220000  0.02113900  0.45435700  1
  C  C15  1  0.04555500  0.50988900  0.95823300  1
  C  C16  1  0.95780000  0.52113900  0.04564100  1
  C  C17  1  0.48161300  0.83928300  0.52317200  1
  C  C18  1  0.51509900  0.19180300  0.47302300  1
  C  C19  1  0.01838600  0.33928300  0.97682700  1
  C  C20  1  0.98490300  0.69180200  0.02697800  1
  C  C21  1  0.40902700  0.00513900  0.58750000  1
  C  C22  1  0.58777800  0.02567000  0.40881000  1
  C  C23  1  0.09097300  0.50514100  0.91250000  1
  C  C24  1  0.91222200  0.52567200  0.09119100  1
  C  C25  1  0.62583300  0.02384800  0.37089100  1
  C  C26  1  0.37132700  0.00632500  0.62582100  1
  C  C27  1  0.87416800  0.52385000  0.12910900  1
  C  C28  1  0.12867200  0.50632500  0.87417900  1
  C  C29  1  0.91054900  0.03369600  0.39387000  1
  C  C30  1  0.08771900  0.99539100  0.60803800  1
  C  C31  1  0.58945200  0.53369800  0.10613000  1
  C  C32  1  0.41228000  0.49538900  0.89196200  1
  C  C33  1  0.98659700  0.83519500  0.56379500  1
  C  C34  1  0.00942400  0.20462100  0.43952800  1
  C  C35  1  0.51340300  0.33519400  0.93620800  1
  C  C36  1  0.49057700  0.70462300  0.06047200  1
  C  C37  1  0.04175600  0.85795000  0.61509900  1
  C  C38  1  0.95500000  0.17607800  0.38741900  1
  C  C39  1  0.45824400  0.35795100  0.88490100  1
  C  C40  1  0.54499900  0.67608100  0.11257900  1
  C  C41  1  0.07589400  0.11427500  0.54985200  1
  C  C42  1  0.92190500  0.91814300  0.45259500  1
  C  C43  1  0.42410500  0.61427800  0.95014800  1
  C  C44  1  0.57809600  0.41814300  0.04740500  1
  C  C45  1  0.02058500  0.08924900  0.49817100  1
  C  C46  1  0.97650900  0.94693500  0.50460300  1
  C  C47  1  0.47941600  0.58925000  0.00182900  1
  C  C48  1  0.52349000  0.44693300  0.99539600  1
  C  C49  1  0.93005100  0.17465000  0.26839400  1
  C  C50  1  0.93854200  0.25190900  0.20102600  1
  C  C51  1  0.08624200  0.59568900  0.68197500  1
  C  C52  1  0.07353400  0.42225800  0.72243600  1
  C  C53  1  0.56995000  0.67464900  0.23160700  1
  C  C54  1  0.56145900  0.75191100  0.29897400  1
  C  C55  1  0.41375900  0.09569200  0.81802600  1
  C  C56  1  0.42646600  0.92225900  0.77756300  1
  N  N1  1  0.94687200  0.28494500  0.32585800  1
  N  N2  1  0.04730200  0.75244500  0.67700200  1
  N  N3  1  0.55312900  0.78494500  0.17414100  1
  N  N4  1  0.45269700  0.25244600  0.82299900  1
  O  O1  1  0.81205500  0.67814100  0.20144000  1
  O  O2  1  0.18936100  0.35054400  0.80040600  1
  O  O3  1  0.68794500  0.17813800  0.29856100  1
  O  O4  1  0.31063800  0.85054100  0.69959400  1
  O  O5  1  0.67436300  0.33128300  0.16833000  1
  O  O6  1  0.32677900  0.69716800  0.83017000  1
  O  O7  1  0.82563900  0.83128000  0.33167000  1
  O  O8  1  0.17322100  0.19716800  0.66982900  1
  O  O9  1  0.80368700  0.33147200  0.17902200  1
  O  O10  1  0.19795900  0.69733500  0.82247600  1
  O  O11  1  0.69631200  0.83147500  0.32097800  1
  O  O12  1  0.30204100  0.19733600  0.67752500  1
  O  O13  1  0.82608400  0.17805200  0.30956300  1
  O  O14  1  0.17297300  0.85060200  0.69182200  1
  O  O15  1  0.67391700  0.67805200  0.19043600  1
  O  O16  1  0.32702500  0.35060100  0.80817800  1
  O  O17  1  0.75697400  0.49965300  0.29317400  1
  O  O18  1  0.24225100  0.52898300  0.70691000  1
  O  O19  1  0.74302600  0.99965500  0.20682600  1
  O  O20  1  0.25774900  0.02898400  0.79309000  1
  O  O21  1  0.91024400  0.00819000  0.27184600  1
  O  O22  1  0.12986900  0.59285100  0.65159400  1
  O  O23  1  0.58975700  0.50819100  0.22815300  1
  O  O24  1  0.37013100  0.09285100  0.84840600  1
