# generated using pymatgen
data_Zn2H16C35N2O9
_symmetry_space_group_name_H-M   'P 1'
_cell_length_a   8.60447300
_cell_length_b   13.02332200
_cell_length_c   13.40522900
_cell_angle_alpha   90.93864800
_cell_angle_beta   90.07490900
_cell_angle_gamma   95.36589800
_symmetry_Int_Tables_number   1
_chemical_formula_structural   Zn2H16C35N2O9
_chemical_formula_sum   'Zn2 H16 C35 N2 O9'
_cell_volume   1495.38457454
_cell_formula_units_Z   1
loop_
 _symmetry_equiv_pos_site_id
 _symmetry_equiv_pos_as_xyz
  1  'x, y, z'
loop_
 _atom_site_type_symbol
 _atom_site_label
 _atom_site_symmetry_multiplicity
 _atom_site_fract_x
 _atom_site_fract_y
 _atom_site_fract_z
 _atom_site_occupancy
  Zn  Zn1  1  0.56144500  0.50464400  0.88675700  1
  Zn  Zn2  1  0.55960000  0.49417700  0.10851500  1
  H  H1  1  0.63802700  0.17769400  0.01730100  1
  H  H2  1  0.61607600  0.99442900  0.03086700  1
  H  H3  1  0.05530500  0.56924600  0.02903100  1
  H  H4  1  0.24788200  0.00444800  0.98690800  1
  H  H5  1  0.72201100  0.83125100  0.00359700  1
  H  H6  1  0.27293700  0.15953700  0.01460600  1
  H  H7  1  0.05616700  0.42656700  0.95379200  1
  H  H8  1  0.57588300  0.65317600  0.24212800  1
  H  H9  1  0.54582100  0.34673000  0.74464000  1
  H  H10  1  0.53619500  0.25209600  0.59234400  1
  H  H11  1  0.53510300  0.24572700  0.41044800  1
  H  H12  1  0.57820700  0.66908600  0.41878100  1
  H  H13  1  0.57991200  0.67473500  0.57203200  1
  H  H14  1  0.54320600  0.33018400  0.25439300  1
  H  H15  1  0.57933400  0.67010900  0.75002000  1
  H  H16  1  0.44197400  0.90141300  0.94496400  1
  C  C1  1  0.01973500  0.13637400  0.00138100  1
  C  C2  1  0.88654200  0.19058700  0.00116500  1
  C  C3  1  0.74240800  0.13777000  0.01298700  1
  C  C4  1  0.72920800  0.03233700  0.01825700  1
  C  C5  1  0.85732300  0.97678300  0.00788700  1
  C  C6  1  0.00460500  0.02789900  0.00241700  1
  C  C7  1  0.83715200  0.86998100  0.00387800  1
  C  C8  1  0.96318200  0.81203700  0.00166400  1
  C  C9  1  0.11161600  0.86155600  0.99749200  1
  C  C10  1  0.13168800  0.96877500  0.99522400  1
  C  C11  1  0.94370200  0.70520100  0.00822900  1
  C  C12  1  0.07207300  0.65054300  0.01674500  1
  C  C13  1  0.21998600  0.69797100  0.00747600  1
  C  C14  1  0.23915000  0.80304500  0.99757700  1
  C  C15  1  0.16496900  0.19260000  0.00218300  1
  C  C16  1  0.17604100  0.29653600  0.98649700  1
  C  C17  1  0.04425900  0.34636700  0.97170200  1
  C  C18  1  0.89859700  0.29695600  0.98771400  1
  C  C19  1  0.79224000  0.64426700  0.00469000  1
  C  C20  1  0.76430000  0.36106900  0.99146600  1
  C  C21  1  0.32676700  0.35707400  0.99052500  1
  C  C22  1  0.35456800  0.63543400  0.00382500  1
  C  C23  1  0.55080800  0.40423700  0.29259400  1
  C  C24  1  0.56898300  0.58375400  0.28556800  1
  C  C25  1  0.57029400  0.59217700  0.38791800  1
  C  C26  1  0.56162200  0.50430900  0.44536500  1
  C  C27  1  0.55176300  0.40958200  0.39585800  1
  C  C28  1  0.57208900  0.59989900  0.60510700  1
  C  C29  1  0.56239900  0.50808500  0.54985900  1
  C  C30  1  0.55310700  0.41682000  0.60170600  1
  C  C31  1  0.54341100  0.32323700  0.55146300  1
  C  C32  1  0.54278300  0.31960400  0.44897700  1
  C  C33  1  0.57193900  0.59829000  0.70795200  1
  C  C34  1  0.55331200  0.41842100  0.70467400  1
  C  C35  1  0.39698000  0.85014700  0.00309500  1
  N  N1  1  0.55929600  0.49106500  0.23923000  1
  N  N2  1  0.56242400  0.50832700  0.75608000  1
  O  O1  1  0.73874700  0.60277700  0.08765500  1
  O  O2  1  0.73505900  0.61574900  0.91673800  1
  O  O3  1  0.71860300  0.40131900  0.90818100  1
  O  O4  1  0.71098200  0.38818800  0.07924300  1
  O  O5  1  0.38159700  0.39662900  0.90710300  1
  O  O6  1  0.38552300  0.38335000  0.07882300  1
  O  O7  1  0.40166500  0.59685900  0.08729600  1
  O  O8  1  0.40959200  0.61021900  0.91601500  1
  O  O9  1  0.47703700  0.83002300  0.07388100  1
