# generated using pymatgen
data_Cu6H44C71O24
_symmetry_space_group_name_H-M   'P 1'
_cell_length_a   18.73116400
_cell_length_b   18.61790100
_cell_length_c   18.61518300
_cell_angle_alpha   109.34775700
_cell_angle_beta   109.60582700
_cell_angle_gamma   109.58841100
_symmetry_Int_Tables_number   1
_chemical_formula_structural   Cu6H44C71O24
_chemical_formula_sum   'Cu6 H44 C71 O24'
_cell_volume   4989.40884463
_cell_formula_units_Z   1
loop_
 _symmetry_equiv_pos_site_id
 _symmetry_equiv_pos_as_xyz
  1  'x, y, z'
loop_
 _atom_site_type_symbol
 _atom_site_label
 _atom_site_symmetry_multiplicity
 _atom_site_fract_x
 _atom_site_fract_y
 _atom_site_fract_z
 _atom_site_occupancy
  Cu  Cu1  1  0.49147900  0.57468600  0.56319200  1
  Cu  Cu2  1  0.49170400  0.45160700  0.44472500  1
  Cu  Cu3  1  0.05260500  0.01350900  0.56405200  1
  Cu  Cu4  1  0.93229000  0.01186000  0.44107600  1
  Cu  Cu5  1  0.93244000  0.45262000  0.00496800  1
  Cu  Cu6  1  0.05186100  0.57184500  0.00181200  1
  H  H1  1  0.62734100  0.62241600  0.36207100  1
  H  H2  1  0.73973300  0.73645000  0.36129200  1
  H  H3  1  0.83985900  0.95582400  0.68000900  1
  H  H4  1  0.79911300  0.79785600  0.71028100  1
  H  H5  1  0.72941000  0.84798600  0.68322600  1
  H  H6  1  0.22865300  0.36985300  0.23740500  1
  H  H7  1  0.11458800  0.36977300  0.12508100  1
  H  H8  1  0.25863000  0.65105200  0.26220000  1
  H  H9  1  0.37079200  0.65118400  0.37592400  1
  H  H10  1  0.36379600  0.24745800  0.49772300  1
  H  H11  1  0.25202800  0.13503300  0.49905800  1
  H  H12  1  0.11797500  0.28072400  0.51010100  1
  H  H13  1  0.23181600  0.39537000  0.51234300  1
  H  H14  1  0.75724100  0.52762400  0.63667300  1
  H  H15  1  0.87210600  0.52941400  0.74885200  1
  H  H16  1  0.72316600  0.50015000  0.87826500  1
  H  H17  1  0.99582000  0.89071000  0.24064100  1
  H  H18  1  0.99834600  0.77873100  0.12919500  1
  H  H19  1  0.99666500  0.63789900  0.26973600  1
  H  H20  1  0.99736700  0.75150400  0.38281200  1
  H  H21  1  0.84847300  0.13606800  0.61616400  1
  H  H22  1  0.12452100  0.38352700  0.88063800  1
  H  H23  1  0.12756300  0.27155100  0.77057900  1
  H  H24  1  0.71953000  0.66602300  0.87008000  1
  H  H25  1  0.69015600  0.67891800  0.95440300  1
  H  H26  1  0.64287500  0.70325200  0.87027100  1
  H  H27  1  0.51442100  0.60583500  0.88179700  1
  H  H28  1  0.38531400  0.45776800  0.79478900  1
  H  H29  1  0.38650400  0.33445300  0.69341300  1
  H  H30  1  0.51645200  0.35939600  0.67772400  1
  H  H31  1  0.85134300  0.13548100  0.77857600  1
  H  H32  1  0.73952900  0.04953300  0.69796700  1
  H  H33  1  0.76800500  0.12189300  0.80798600  1
  H  H34  1  0.63235600  0.11840100  0.70622500  1
  H  H35  1  0.59197400  0.21454800  0.65991300  1
  H  H36  1  0.69720800  0.32824300  0.65143600  1
  H  H37  1  0.84337100  0.34631900  0.68980800  1
  H  H38  1  0.86558300  0.73205100  0.65474600  1
  H  H39  1  0.96533200  0.73845100  0.66413100  1
  H  H40  1  0.90688000  0.76278800  0.58736800  1
  H  H41  1  0.08913400  0.85443400  0.78004900  1
  H  H42  1  0.18100800  0.00769600  0.89555500  1
  H  H43  1  0.12218800  0.10798200  0.90653300  1
  H  H44  1  0.97113100  0.05440900  0.80266600  1
  C  C1  1  0.37494800  0.51115800  0.38360100  1
  C  C2  1  0.60921700  0.62907900  0.50263100  1
  C  C3  1  0.60721900  0.51378200  0.62431100  1
  C  C4  1  0.37366800  0.39708200  0.50491200  1
  C  C5  1  0.74242700  0.77413500  0.57580900  1
  C  C6  1  0.67680800  0.69572500  0.50111500  1
  C  C7  1  0.67754400  0.68253300  0.42341200  1
  C  C8  1  0.74133500  0.74765600  0.42275800  1
  C  C9  1  0.80741700  0.82531200  0.50032900  1
  C  C10  1  0.80582200  0.83419100  0.57580500  1
  C  C11  1  0.84834600  0.89787100  0.67065600  1
  C  C12  1  0.77515700  0.82700800  0.67138600  1
  C  C13  1  0.23575800  0.43187200  0.24315100  1
  C  C14  1  0.17082200  0.43186000  0.17992600  1
  C  C15  1  0.17879400  0.51041700  0.18587000  1
  C  C16  1  0.25157000  0.58894100  0.25609200  1
  C  C17  1  0.31482600  0.58901300  0.32092300  1
  C  C18  1  0.30750600  0.51051300  0.31445000  1
  C  C19  1  0.31004400  0.25545100  0.50039100  1
  C  C20  1  0.24712700  0.19202400  0.50195200  1
  C  C21  1  0.17743100  0.20023000  0.50464800  1
  C  C22  1  0.17191700  0.27314900  0.50742500  1
  C  C23  1  0.23672300  0.33836400  0.50935900  1
  C  C24  1  0.30568600  0.32938600  0.50511400  1
  C  C25  1  0.74907600  0.52158200  0.68955300  1
  C  C26  1  0.81475900  0.52348900  0.75376000  1
  C  C27  1  0.80569100  0.51495900  0.82153600  1
  C  C28  1  0.73137100  0.50667900  0.82559000  1
  C  C29  1  0.66676300  0.50786100  0.76328300  1
  C  C30  1  0.67486100  0.51428400  0.69373700  1
  C  C31  1  0.99507500  0.89637100  0.38665300  1
  C  C32  1  0.87512900  0.89405200  0.50121600  1
  C  C33  1  0.98983500  0.12889900  0.61854200  1
  C  C34  1  0.10971600  0.13174600  0.50420000  1
  C  C35  1  0.99662700  0.63182600  0.12333800  1
  C  C36  1  0.11043100  0.51074200  0.11861700  1
  C  C37  1  0.98644800  0.39262100  0.88196300  1
  C  C38  1  0.87396200  0.51388400  0.88817800  1
  C  C39  1  0.99617400  0.83545300  0.24762400  1
  C  C40  1  0.99836000  0.77235800  0.18482800  1
  C  C41  1  0.99766200  0.70053000  0.19171600  1
  C  C42  1  0.99671100  0.69335600  0.26295000  1
  C  C43  1  0.99774900  0.75808600  0.32738300  1
  C  C44  1  0.99647500  0.82891100  0.31949500  1
  C  C45  1  0.90939400  0.19019900  0.67439100  1
  C  C46  1  0.90678500  0.25238200  0.73775000  1
  C  C47  1  0.98456900  0.32357800  0.81248800  1
  C  C48  1  0.06330500  0.32951100  0.82269100  1
  C  C49  1  0.06509900  0.26547600  0.76059300  1
  C  C50  1  0.98813500  0.19595100  0.68572300  1
  C  C51  1  0.58901100  0.49702200  0.77080700  1
  C  C52  1  0.58883000  0.56673700  0.82913100  1
  C  C53  1  0.66519100  0.65860700  0.88377500  1
  C  C54  1  0.51517600  0.55190600  0.83688900  1
  C  C55  1  0.44256900  0.46882300  0.78801900  1
  C  C56  1  0.44311300  0.39978500  0.73092100  1
  C  C57  1  0.51601300  0.41392600  0.72215200  1
  C  C58  1  0.82092200  0.24279400  0.72044500  1
  C  C59  1  0.76107100  0.17793700  0.72470400  1
  C  C60  1  0.78197200  0.11813600  0.75389300  1
  C  C61  1  0.67910800  0.16848100  0.70284800  1
  C  C62  1  0.65633400  0.22250400  0.67695600  1
  C  C63  1  0.71545800  0.28646400  0.67255400  1
  C  C64  1  0.79748000  0.29659700  0.69428600  1
  C  C65  1  0.94073400  0.92163100  0.72947900  1
  C  C66  1  0.97484500  0.86440900  0.72297600  1
  C  C67  1  0.92443500  0.76930300  0.65309200  1
  C  C68  1  0.06119700  0.89685000  0.78353600  1
  C  C69  1  0.11379100  0.98362700  0.84907900  1
  C  C70  1  0.08094300  0.03967200  0.85515200  1
  C  C71  1  0.99540400  0.00885800  0.79597800  1
  O  O1  1  0.42208700  0.58141900  0.46311500  1
  O  O2  1  0.38569900  0.44182600  0.36363200  1
  O  O3  1  0.59825800  0.65254300  0.57168700  1
  O  O4  1  0.56228300  0.54817800  0.43459200  1
  O  O5  1  0.56081900  0.54845400  0.64455800  1
  O  O6  1  0.59752100  0.48070400  0.54458500  1
  O  O7  1  0.38472400  0.47739400  0.53594900  1
  O  O8  1  0.42106200  0.37442000  0.47349100  1
  O  O9  1  0.02638000  0.90704600  0.46688700  1
  O  O10  1  0.96236900  0.94338400  0.36392100  1
  O  O11  1  0.95442800  0.94240100  0.57155600  1
  O  O12  1  0.85403200  0.90406500  0.43130900  1
  O  O13  1  0.05973600  0.11969800  0.64172100  1
  O  O14  1  0.92134300  0.08058600  0.53776300  1
  O  O15  1  0.13166600  0.08443100  0.53707400  1
  O  O16  1  0.02961400  0.11994600  0.47036800  1
  O  O17  1  0.96382200  0.55182700  0.11295200  1
  O  O18  1  0.02782900  0.65267400  0.07464800  1
  O  O19  1  0.03002900  0.44237900  0.07282000  1
  O  O20  1  0.13213400  0.57981100  0.10732500  1
  O  O21  1  0.91982300  0.37226400  0.89644000  1
  O  O22  1  0.05679200  0.47211900  0.92926200  1
  O  O23  1  0.85374300  0.48168300  0.93661000  1
  O  O24  1  0.95276300  0.54510400  0.89679700  1
