# generated using pymatgen
data_Cd4H63C98O16F7
_symmetry_space_group_name_H-M   'P 1'
_cell_length_a   17.33428700
_cell_length_b   17.33751800
_cell_length_c   17.38574100
_cell_angle_alpha   91.03304000
_cell_angle_beta   119.40205800
_cell_angle_gamma   119.34112400
_symmetry_Int_Tables_number   1
_chemical_formula_structural   Cd4H63C98O16F7
_chemical_formula_sum   'Cd4 H63 C98 O16 F7'
_cell_volume   3730.93920512
_cell_formula_units_Z   1
loop_
 _symmetry_equiv_pos_site_id
 _symmetry_equiv_pos_as_xyz
  1  'x, y, z'
loop_
 _atom_site_type_symbol
 _atom_site_label
 _atom_site_symmetry_multiplicity
 _atom_site_fract_x
 _atom_site_fract_y
 _atom_site_fract_z
 _atom_site_occupancy
  Cd  Cd1  1  0.18412200  0.64383700  0.04096100  1
  Cd  Cd2  1  0.79507100  0.35288900  0.94671100  1
  Cd  Cd3  1  0.08791800  0.45079500  0.14060300  1
  Cd  Cd4  1  0.89122200  0.54560100  0.84670300  1
  H  H1  1  0.32947700  0.34369500  0.92952200  1
  H  H2  1  0.39198100  0.45023100  0.82511900  1
  H  H3  1  0.54440500  0.39661200  0.05115900  1
  H  H4  1  0.59168800  0.55279300  0.16537200  1
  H  H5  1  0.65396900  0.65949800  0.06073200  1
  H  H6  1  0.43975800  0.60682200  0.93959800  1
  H  H7  1  0.93052700  0.37147200  0.54897900  1
  H  H8  1  0.18025700  0.59852800  0.62237200  1
  H  H9  1  0.12598700  0.48113500  0.62416700  1
  H  H10  1  0.13621200  0.56025200  0.48179000  1
  H  H11  1  0.92572300  0.58291900  0.51986600  1
  H  H12  1  0.06869700  0.66230200  0.57268700  1
  H  H13  1  0.90219900  0.55927900  0.37895100  1
  H  H14  1  0.85078200  0.41677200  0.52754800  1
  H  H15  1  0.81227500  0.41673600  0.38533700  1
  H  H16  1  0.04423900  0.62383100  0.43381200  1
  H  H17  1  0.57741800  0.12734500  0.45541600  1
  H  H18  1  0.47168600  0.97978100  0.35042600  1
  H  H19  1  0.57780600  0.94703200  0.46862300  1
  H  H20  1  0.62395500  0.02259800  0.65180100  1
  H  H21  1  0.29704400  0.90211800  0.43290900  1
  H  H22  1  0.36019100  0.86197300  0.51918300  1
  H  H23  1  0.35554700  0.96572800  0.33703100  1
  H  H24  1  0.46301900  0.11369600  0.43964400  1
  H  H25  1  0.48178800  0.00258800  0.63044200  1
  H  H26  1  0.84872700  0.97670300  0.84326700  1
  H  H27  1  0.87757600  0.86317000  0.84659300  1
  H  H28  1  0.03900900  0.99676300  0.89044500  1
  H  H29  1  0.02944500  0.11755300  0.91382800  1
  H  H30  1  0.12781000  0.16171600  0.03865800  1
  H  H31  1  0.98567600  0.90827500  0.09668600  1
  H  H32  1  0.11930500  0.00563200  0.14506200  1
  H  H33  1  0.84860200  0.83352700  0.93150900  1
  H  H34  1  0.79483100  0.93420100  0.90997900  1
  H  H35  1  0.08350000  0.10925800  0.13796300  1
  H  H36  1  0.17673000  0.50117600  0.40383800  1
  H  H37  1  0.22005400  0.39319600  0.37890700  1
  H  H38  1  0.07347100  0.22516200  0.50415400  1
  H  H39  1  0.02812500  0.33110900  0.52884600  1
  H  H40  1  0.59757100  0.83078600  0.46847900  1
  H  H41  1  0.60835500  0.70881000  0.52945200  1
  H  H42  1  0.51585000  0.75558400  0.70152200  1
  H  H43  1  0.50548300  0.87817600  0.64325600  1
  H  H44  1  0.79659800  0.13032300  0.75998000  1
  H  H45  1  0.98167500  0.23338600  0.80719100  1
  H  H46  1  0.87139500  0.18973600  0.52106600  1
  H  H47  1  0.68651000  0.08613300  0.47154000  1
  H  H48  1  0.29837800  0.03162500  0.41335500  1
  H  H49  1  0.20485400  0.09592400  0.42113600  1
  H  H50  1  0.37188500  0.15303600  0.71606500  1
  H  H51  1  0.46793800  0.08979900  0.71096800  1
  H  H52  1  0.18840300  0.14152400  0.90942200  1
  H  H53  1  0.37952200  0.22406800  0.97289800  1
  H  H54  1  0.42514900  0.10341900  0.18845300  1
  H  H55  1  0.23765800  0.01894400  0.12653900  1
  H  H56  1  0.81117000  0.87361200  0.02851800  1
  H  H57  1  0.70764400  0.84136500  0.09363700  1
  H  H58  1  0.93947800  0.11928700  0.29181500  1
  H  H59  1  0.04384200  0.15494600  0.22603200  1
  H  H60  1  0.90159700  0.29137700  0.32088400  1
  H  H61  1  0.77938400  0.12627300  0.23523200  1
  H  H62  1  0.57224500  0.10331800  0.31017300  1
  H  H63  1  0.69286300  0.27139500  0.39649400  1
  C  C1  1  0.09874200  0.59389900  0.84566600  1
  C  C2  1  0.87930400  0.24113700  0.98358900  1
  C  C3  1  0.23489900  0.48583600  0.09229200  1
  C  C4  1  0.74337000  0.34945500  0.73784800  1
  C  C5  1  0.88066700  0.40400100  0.14212900  1
  C  C6  1  0.09925200  0.75494600  0.00279000  1
  C  C7  1  0.74459000  0.51125200  0.89535400  1
  C  C8  1  0.23542500  0.64672900  0.25044100  1
  C  C9  1  0.43637900  0.47353100  0.90264400  1
  C  C10  1  0.40421800  0.41522000  0.95899700  1
  C  C11  1  0.30682300  0.49375700  0.06919200  1
  C  C12  1  0.67445800  0.50561700  0.91981400  1
  C  C13  1  0.46421700  0.55902500  0.96436200  1
  C  C14  1  0.43325100  0.50071700  0.02023700  1
  C  C15  1  0.57950200  0.58782800  0.03143800  1
  C  C16  1  0.55040700  0.50225400  0.97019900  1
  C  C17  1  0.54730300  0.52951200  0.08783000  1
  C  C18  1  0.51944700  0.44402700  0.02610900  1
  C  C19  1  0.36494700  0.49804500  0.04787300  1
  C  C20  1  0.61769200  0.50331400  0.94198600  1
  C  C21  1  0.91363300  0.42219900  0.52105000  1
  C  C22  1  0.10719700  0.52511800  0.58359800  1
  C  C23  1  0.07793700  0.49584700  0.48510800  1
  C  C24  1  0.91257800  0.42982100  0.23689800  1
  C  C25  1  0.01513800  0.52156600  0.57710700  1
  C  C26  1  0.87377900  0.40114300  0.41867100  1
  C  C27  1  0.96580000  0.47390700  0.41156500  1
  C  C28  1  0.97652300  0.56549100  0.43341000  1
  C  C29  1  0.99666800  0.58901800  0.52892000  1
  C  C30  1  0.93782100  0.45081800  0.31607100  1
  C  C31  1  0.04292400  0.54866100  0.67195200  1
  C  C32  1  0.06740500  0.56996800  0.75081000  1
  C  C33  1  0.43728400  0.98307200  0.38880100  1
  C  C34  1  0.54478200  0.93979100  0.51036100  1
  C  C35  1  0.61217000  0.03502700  0.58619800  1
  C  C36  1  0.67169500  0.25372700  0.67561800  1
  C  C37  1  0.42995500  0.91309600  0.44047000  1
  C  C38  1  0.50814900  0.08132900  0.45886800  1
  C  C39  1  0.54693800  0.07782700  0.55782300  1
  C  C40  1  0.45029300  0.01416600  0.56237200  1
  C  C41  1  0.37676100  0.91754800  0.48738700  1
  C  C42  1  0.61422600  0.17376400  0.62317500  1
  C  C43  1  0.36208800  0.81890700  0.37166700  1
  C  C44  1  0.30505000  0.74106200  0.31517700  1
  C  C45  1  0.89687400  0.89271800  0.91561700  1
  C  C46  1  0.07673800  0.02548500  0.96639800  1
  C  C47  1  0.05385000  0.09755300  0.97774400  1
  C  C48  1  0.90928800  0.17628400  0.98901800  1
  C  C49  1  0.01647100  0.94180500  0.99135100  1
  C  C50  1  0.86781900  0.96314600  0.91028900  1
  C  C51  1  0.96325700  0.05538600  0.99145800  1
  C  C52  1  0.00610200  0.04124700  0.08635500  1
  C  C53  1  0.03461800  0.97159000  0.08529000  1
  C  C54  1  0.93334700  0.12137600  0.99085500  1
  C  C55  1  0.04364200  0.87390000  0.99066100  1
  C  C56  1  0.06792100  0.81899200  0.99411000  1
  C  C57  1  0.09859100  0.42461900  0.46785200  1
  C  C58  1  0.15324300  0.44082400  0.42627200  1
  C  C59  1  0.17801000  0.37998500  0.41202400  1
  C  C60  1  0.14960700  0.30266900  0.44010200  1
  C  C61  1  0.09612000  0.28607800  0.48231300  1
  C  C62  1  0.07097000  0.34672800  0.49652000  1
  C  C63  1  0.54899600  0.86376800  0.54957800  1
  C  C64  1  0.57904000  0.81545800  0.51957700  1
  C  C65  1  0.58520000  0.74608300  0.55376100  1
  C  C66  1  0.56215400  0.72425700  0.61879000  1
  C  C67  1  0.53313500  0.77209000  0.64983900  1
  C  C68  1  0.52655600  0.84136300  0.61570100  1
  C  C69  1  0.72566200  0.10044900  0.61177100  1
  C  C70  1  0.81093100  0.14224400  0.70606600  1
  C  C71  1  0.91616700  0.20105000  0.73342900  1
  C  C72  1  0.93805900  0.21853400  0.66716900  1
  C  C73  1  0.85449400  0.17690400  0.57338900  1
  C  C74  1  0.74913900  0.11833500  0.54568800  1
  C  C75  1  0.39211000  0.05657300  0.56205300  1
  C  C76  1  0.31739300  0.05900400  0.48098600  1
  C  C77  1  0.26336700  0.09497800  0.48478000  1
  C  C78  1  0.28280100  0.12871300  0.56906700  1
  C  C79  1  0.35660900  0.12671200  0.64980700  1
  C  C80  1  0.41059500  0.09062100  0.64636200  1
  C  C81  1  0.19643000  0.07421100  0.01254800  1
  C  C82  1  0.23967900  0.13269900  0.97119000  1
  C  C83  1  0.34761000  0.17961600  0.00681000  1
  C  C84  1  0.41460600  0.16960800  0.08518100  1
  C  C85  1  0.37306200  0.11190300  0.12718700  1
  C  C86  1  0.26496200  0.06405000  0.09129500  1
  C  C87  1  0.93524000  0.01779700  0.12087100  1
  C  C88  1  0.84003700  0.92966400  0.08464400  1
  C  C89  1  0.78123600  0.91045600  0.12205800  1
  C  C90  1  0.81685200  0.97838300  0.19646500  1
  C  C91  1  0.91115600  0.06593600  0.23313500  1
  C  C92  1  0.96994400  0.08564700  0.19562600  1
  C  C93  1  0.80889800  0.29651900  0.36826600  1
  C  C94  1  0.83130500  0.25344400  0.32164300  1
  C  C95  1  0.76160700  0.15819900  0.27220800  1
  C  C96  1  0.66883200  0.10398000  0.26831500  1
  C  C97  1  0.64545100  0.14541900  0.31368500  1
  C  C98  1  0.71462000  0.24056200  0.36305400  1
  O  O1  1  0.03253600  0.54593900  0.86840800  1
  O  O2  1  0.20105400  0.64515400  0.91736100  1
  O  O3  1  0.94589000  0.32997200  0.00120000  1
  O  O4  1  0.77720700  0.21155100  0.93344300  1
  O  O5  1  0.16393600  0.50361100  0.04345400  1
  O  O6  1  0.21398100  0.43512900  0.14364400  1
  O  O7  1  0.81470200  0.37255400  0.82635600  1
  O  O8  1  0.76433800  0.42099700  0.70677700  1
  O  O9  1  0.94677500  0.45076800  0.11914900  1
  O  O10  1  0.77829800  0.35192400  0.07041400  1
  O  O11  1  0.03303400  0.66646700  0.98607400  1
  O  O12  1  0.20153100  0.78499700  0.05412100  1
  O  O13  1  0.81545300  0.49329700  0.94411100  1
  O  O14  1  0.76506700  0.56126400  0.84342700  1
  O  O15  1  0.16459700  0.62404400  0.16147100  1
  O  O16  1  0.21477500  0.57488600  0.28072900  1
  F  F1  1  0.17409400  0.24299500  0.42601700  1
  F  F2  1  0.56867700  0.65631700  0.65259500  1
  F  F3  1  0.04153900  0.27606300  0.69413300  1
  F  F4  1  0.22880300  0.16306300  0.57253700  1
  F  F5  1  0.52085600  0.21587900  0.12053000  1
  F  F6  1  0.75975200  0.95875800  0.23405500  1
  F  F7  1  0.60025900  0.01046000  0.21920700  1
