# generated using pymatgen
data_ZnH29C27NO4
_symmetry_space_group_name_H-M   'P 1'
_cell_length_a   14.25350100
_cell_length_b   8.56491000
_cell_length_c   19.34521500
_cell_angle_alpha   90.00000000
_cell_angle_beta   91.01098100
_cell_angle_gamma   90.00000000
_symmetry_Int_Tables_number   1
_chemical_formula_structural   ZnH29C27NO4
_chemical_formula_sum   'Zn2 H58 C54 N2 O8'
_cell_volume   2361.29530737
_cell_formula_units_Z   2
loop_
 _symmetry_equiv_pos_site_id
 _symmetry_equiv_pos_as_xyz
  1  'x, y, z'
loop_
 _atom_site_type_symbol
 _atom_site_label
 _atom_site_symmetry_multiplicity
 _atom_site_fract_x
 _atom_site_fract_y
 _atom_site_fract_z
 _atom_site_occupancy
  Zn  Zn1  1  0.89589600  0.48424700  0.50633400  1
  Zn  Zn2  1  0.10410500  0.48424700  0.49366700  1
  H  H1  1  0.04171300  0.98383100  0.54730800  1
  H  H2  1  0.95828800  0.98383100  0.45269200  1
  H  H3  1  0.98698300  0.23428600  0.73046700  1
  H  H4  1  0.01301700  0.23428600  0.26953300  1
  H  H5  1  0.00164300  0.73254600  0.73201900  1
  H  H6  1  0.99835700  0.73254600  0.26798100  1
  H  H7  1  0.06002800  0.75719900  0.04592300  1
  H  H8  1  0.93997300  0.75719900  0.95407700  1
  H  H9  1  0.06800400  0.75887500  0.17103300  1
  H  H10  1  0.93199700  0.75887500  0.82896700  1
  H  H11  1  0.94031900  0.21277400  0.17055200  1
  H  H12  1  0.05968200  0.21277400  0.82944800  1
  H  H13  1  0.94341500  0.21482900  0.04581900  1
  H  H14  1  0.05658500  0.21482900  0.95418100  1
  H  H15  1  0.43949200  0.26226900  0.54162300  1
  H  H16  1  0.56050800  0.26226900  0.45837800  1
  H  H17  1  0.59667300  0.40604900  0.39774000  1
  H  H18  1  0.40332800  0.40604900  0.60226000  1
  H  H19  1  0.44954600  0.51781200  0.38871800  1
  H  H20  1  0.55045500  0.51781200  0.61128200  1
  H  H21  1  0.58532000  0.72490800  0.54005800  1
  H  H22  1  0.41468000  0.72490800  0.45994300  1
  H  H23  1  0.53096000  0.75520900  0.39266500  1
  H  H24  1  0.63762500  0.64871300  0.40366900  1
  H  H25  1  0.69895400  0.85426700  0.48410800  1
  H  H26  1  0.59484100  0.96853900  0.46371400  1
  H  H27  1  0.63522600  0.95606100  0.33850500  1
  H  H28  1  0.73789100  0.84096500  0.36024900  1
  H  H29  1  0.69730600  0.17711500  0.40471400  1
  H  H30  1  0.78628100  0.10998000  0.34657200  1
  H  H31  1  0.79390600  0.06117200  0.43754800  1
  H  H32  1  0.46904000  0.75520900  0.60733500  1
  H  H33  1  0.36237600  0.64871300  0.59633100  1
  H  H34  1  0.30104600  0.85426700  0.51589200  1
  H  H35  1  0.40515900  0.96853900  0.53628600  1
  H  H36  1  0.36477500  0.95606100  0.66149500  1
  H  H37  1  0.26210900  0.84096500  0.63975100  1
  H  H38  1  0.30269500  0.17711500  0.59528600  1
  H  H39  1  0.21371900  0.10998000  0.65342800  1
  H  H40  1  0.20609500  0.06117200  0.56245200  1
  H  H41  1  0.67296600  0.31555400  0.61442600  1
  H  H42  1  0.60054900  0.18517000  0.56358700  1
  H  H43  1  0.48357100  0.17874500  0.65526800  1
  H  H44  1  0.54711600  0.32748900  0.70318700  1
  H  H45  1  0.68445300  0.15050200  0.71421900  1
  H  H46  1  0.62195200  0.00269300  0.66491500  1
  H  H47  1  0.56052600  0.14473400  0.80293700  1
  H  H48  1  0.61319100  0.95473100  0.79109900  1
  H  H49  1  0.49851800  0.99556400  0.75395500  1
  H  H50  1  0.32703500  0.31555400  0.38557400  1
  H  H51  1  0.39945200  0.18517000  0.43641300  1
  H  H52  1  0.51642900  0.17874500  0.34473200  1
  H  H53  1  0.45288400  0.32748900  0.29681300  1
  H  H54  1  0.31554700  0.15050200  0.28578200  1
  H  H55  1  0.37804800  0.00269300  0.33508500  1
  H  H56  1  0.43947400  0.14473400  0.19706300  1
  H  H57  1  0.38681000  0.95473100  0.20890100  1
  H  H58  1  0.50148200  0.99556400  0.24604500  1
  C  C1  1  0.01636800  0.12326600  0.63553300  1
  C  C2  1  0.98363200  0.12326600  0.36446700  1
  C  C3  1  0.99963900  0.12381200  0.70550200  1
  C  C4  1  0.00036200  0.12381200  0.29449800  1
  C  C5  1  0.99913500  0.98426000  0.74230600  1
  C  C6  1  0.00086500  0.98426000  0.25769400  1
  C  C7  1  0.00419000  0.84395400  0.70621800  1
  C  C8  1  0.99581000  0.84395400  0.29378200  1
  C  C9  1  0.01713800  0.84489500  0.63573700  1
  C  C10  1  0.98286300  0.84489500  0.36426300  1
  C  C11  1  0.02896700  0.98405200  0.60189500  1
  C  C12  1  0.97103300  0.98405200  0.39810500  1
  C  C13  1  0.03424800  0.85757800  0.07362300  1
  C  C14  1  0.96575300  0.85757800  0.92637700  1
  C  C15  1  0.03780000  0.85864200  0.14496200  1
  C  C16  1  0.96220100  0.85864200  0.85503800  1
  C  C17  1  0.00472800  0.98612500  0.18141900  1
  C  C18  1  0.99527300  0.98612500  0.81858100  1
  C  C19  1  0.97075900  0.11386800  0.14473000  1
  C  C20  1  0.02924100  0.11386800  0.85527000  1
  C  C21  1  0.97108900  0.11485900  0.07350800  1
  C  C22  1  0.02891100  0.11485900  0.92649200  1
  C  C23  1  0.00136600  0.98593300  0.03775800  1
  C  C24  1  0.99863400  0.98593300  0.96224200  1
  C  C25  1  0.01198000  0.70251000  0.59414500  1
  C  C26  1  0.98802000  0.70251000  0.40585500  1
  C  C27  1  0.98829800  0.26563800  0.40605700  1
  C  C28  1  0.01170300  0.26563800  0.59394300  1
  C  C29  1  0.54735600  0.42485600  0.57156400  1
  C  C30  1  0.45264400  0.42485600  0.42843600  1
  C  C31  1  0.55447600  0.38687100  0.44444400  1
  C  C32  1  0.44552400  0.38687100  0.55555600  1
  C  C33  1  0.58896200  0.48756300  0.50519600  1
  C  C34  1  0.41103800  0.48756300  0.49480400  1
  C  C35  1  0.44603900  0.65560700  0.50269400  1
  C  C36  1  0.55396100  0.65560700  0.49730600  1
  C  C37  1  0.30817400  0.48589000  0.49074300  1
  C  C38  1  0.69182600  0.48589000  0.50925700  1
  C  C39  1  0.58873700  0.72834300  0.42974700  1
  C  C40  1  0.64318300  0.87734000  0.44469600  1
  C  C41  1  0.68947000  0.93247500  0.37892100  1
  C  C42  1  0.74539600  0.07981500  0.39295100  1
  C  C43  1  0.41126300  0.72834300  0.57025300  1
  C  C44  1  0.35681700  0.87734000  0.55530400  1
  C  C45  1  0.31053000  0.93247500  0.62107900  1
  C  C46  1  0.25460400  0.07981500  0.60704900  1
  C  C47  1  0.59965600  0.28292300  0.60096200  1
  C  C48  1  0.55395200  0.22780400  0.66704600  1
  C  C49  1  0.61418600  0.10232600  0.70097800  1
  C  C50  1  0.56845500  0.04577900  0.76653300  1
  C  C51  1  0.40034500  0.28292300  0.39903800  1
  C  C52  1  0.44604900  0.22780400  0.33295400  1
  C  C53  1  0.38581500  0.10232600  0.29902200  1
  C  C54  1  0.43154500  0.04577900  0.23346700  1
  N  N1  1  0.22695300  0.48468900  0.48866700  1
  N  N2  1  0.77304700  0.48468900  0.51133300  1
  O  O1  1  0.08898200  0.65312500  0.56514900  1
  O  O2  1  0.91101800  0.65312500  0.43485100  1
  O  O3  1  0.92839000  0.64741000  0.57801100  1
  O  O4  1  0.07161000  0.64741000  0.42198900  1
  O  O5  1  0.91107300  0.31513400  0.43492700  1
  O  O6  1  0.08892800  0.31513400  0.56507300  1
  O  O7  1  0.07172700  0.32123600  0.42194200  1
  O  O8  1  0.92827300  0.32123600  0.57805800  1
