# generated using pymatgen
data_ZnH12C18(NO2)2
_symmetry_space_group_name_H-M   'P 1'
_cell_length_a   9.83868700
_cell_length_b   10.97768500
_cell_length_c   17.12515300
_cell_angle_alpha   89.63671000
_cell_angle_beta   93.62487800
_cell_angle_gamma   90.00445300
_symmetry_Int_Tables_number   1
_chemical_formula_structural   ZnH12C18(NO2)2
_chemical_formula_sum   'Zn2 H24 C36 N4 O8'
_cell_volume   1845.88178391
_cell_formula_units_Z   2
loop_
 _symmetry_equiv_pos_site_id
 _symmetry_equiv_pos_as_xyz
  1  'x, y, z'
loop_
 _atom_site_type_symbol
 _atom_site_label
 _atom_site_symmetry_multiplicity
 _atom_site_fract_x
 _atom_site_fract_y
 _atom_site_fract_z
 _atom_site_occupancy
  Zn  Zn1  1  0.65824100  0.50892500  0.50394900  1
  Zn  Zn2  1  0.34864600  0.50863300  0.50290000  1
  H  H1  1  0.69080600  0.47029000  0.25495000  1
  H  H2  1  0.68092900  0.48006600  0.11437300  1
  H  H3  1  0.75279800  0.49186400  0.89819300  1
  H  H4  1  0.74441000  0.50478900  0.75618300  1
  H  H5  1  0.26877400  0.56493300  0.25352400  1
  H  H6  1  0.25889100  0.57670000  0.11115200  1
  H  H7  1  0.31026200  0.49853700  0.75030500  1
  H  H8  1  0.28977400  0.12008200  0.52336000  1
  H  H9  1  0.28852000  0.89860300  0.52410900  1
  H  H10  1  0.82398900  0.89551000  0.52479800  1
  H  H11  1  0.77305400  0.89566100  0.41669200  1
  H  H12  1  0.82683400  0.11569400  0.52341400  1
  H  H13  1  0.77533400  0.11672500  0.41552900  1
  H  H14  1  0.11757400  0.63147100  0.40879900  1
  H  H15  1  0.86727900  0.63196300  0.40969000  1
  H  H16  1  0.90311200  0.40550000  0.67486500  1
  H  H17  1  0.88822700  0.27153000  0.60695500  1
  H  H18  1  0.14868400  0.39913000  0.67199300  1
  H  H19  1  0.13609600  0.26632800  0.60267600  1
  H  H20  1  0.34591400  0.29472900  0.94950000  1
  H  H21  1  0.13034300  0.25972800  0.01086300  1
  H  H22  1  0.94573900  0.41038000  0.99483200  1
  H  H23  1  0.97622700  0.59570400  0.91600200  1
  H  H24  1  0.19071400  0.63066600  0.85402900  1
  C  C1  1  0.50420800  0.27032200  0.50270100  1
  C  C2  1  0.51897100  0.50672300  0.65678200  1
  C  C3  1  0.50229600  0.74708000  0.50385000  1
  C  C4  1  0.48796800  0.51158500  0.35022100  1
  C  C5  1  0.52622600  0.50361000  0.74280700  1
  C  C6  1  0.40809200  0.49885700  0.78228100  1
  C  C7  1  0.41213800  0.48791900  0.86280700  1
  C  C8  1  0.53788200  0.48819100  0.90550600  1
  C  C9  1  0.65529500  0.49298700  0.86563200  1
  C  C10  1  0.65021300  0.50073700  0.78513500  1
  C  C11  1  0.58866100  0.49827200  0.14335700  1
  C  C12  1  0.59500500  0.49336000  0.22406000  1
  C  C13  1  0.46724100  0.52848600  0.10233000  1
  C  C14  1  0.48039300  0.51609900  0.26446600  1
  C  C15  1  0.35946000  0.54552900  0.22337500  1
  C  C16  1  0.35375600  0.55295200  0.14288800  1
  C  C17  1  0.61674600  0.06851800  0.49215600  1
  C  C18  1  0.50260300  0.13679400  0.50310100  1
  C  C19  1  0.38357600  0.07250700  0.51441000  1
  C  C20  1  0.38279500  0.94548100  0.51485000  1
  C  C21  1  0.50111500  0.88035800  0.50400600  1
  C  C22  1  0.61576600  0.94746800  0.49269700  1
  C  C23  1  0.76075200  0.93547800  0.47518400  1
  C  C24  1  0.76208700  0.07756800  0.47441900  1
  C  C25  1  0.07595900  0.44131600  0.55302600  1
  C  C26  1  0.06859400  0.57594900  0.45115000  1
  C  C27  1  0.92614800  0.57652600  0.45183000  1
  C  C28  1  0.94257700  0.44336000  0.55443700  1
  C  C29  1  0.93739300  0.35947000  0.62222600  1
  C  C30  1  0.09675700  0.35611200  0.62012700  1
  C  C31  1  0.28253400  0.46548300  0.89832000  1
  C  C32  1  0.26486400  0.36107600  0.94204000  1
  C  C33  1  0.14378000  0.34120000  0.97641500  1
  C  C34  1  0.04017100  0.42555700  0.96726800  1
  C  C35  1  0.05709600  0.52917800  0.92299700  1
  C  C36  1  0.17763300  0.54864700  0.88801300  1
  N  N1  1  0.55164600  0.48482500  0.98850800  1
  N  N2  1  0.45525800  0.53443400  0.01967200  1
  N  N3  1  0.14524600  0.50712300  0.50288400  1
  N  N4  1  0.86170700  0.50913900  0.50468200  1
  O  O1  1  0.62186200  0.32713500  0.50335400  1
  O  O2  1  0.38698300  0.32737100  0.50258400  1
  O  O3  1  0.63292500  0.50694100  0.62056900  1
  O  O4  1  0.39811700  0.50699800  0.61954100  1
  O  O5  1  0.61982600  0.69033000  0.50400700  1
  O  O6  1  0.38516100  0.69017600  0.50371100  1
  O  O7  1  0.60870500  0.51022200  0.38732800  1
  O  O8  1  0.37412800  0.51114800  0.38634000  1
