# Generated by REPEAT Assigner based on pymatgen
data_DB0-m2_o27_o28_f0_pcu.sym.64_sqe
_audit_creation_date              2022-05-24
_audit_creation_method            REPEAT_Assigner
_cell_length_a                    19.234349
_cell_length_b                    17.780594
_cell_length_c                    23.322820
_cell_angle_alpha                 90.000000
_cell_angle_beta                  90.007119
_cell_angle_gamma                 90.000000
_cell_volume                      7976.361156
_symmetry_space_group_name_H-M    P1
_symmetry_Int_Tables_number       1
loop_
    _symmetry_equiv_pos_site_id
    _symmetry_equiv_pos_as_xyz
    1  x,y,z
loop_
    _atom_site_type_symbol
    _atom_site_label
    _atom_site_fract_x
    _atom_site_fract_y
    _atom_site_fract_z
    _atom_type_partial_charge
    O   O1   0.399254  0.564351  0.498055  -0.594458
    O   O2   0.600859  0.435129  0.502144  -0.597086
    O   O3   0.601315  0.564168  0.497821  -0.572380
    O   O4   0.398816  0.435071  0.502233  -0.573772
    C   C1   0.366398  0.499815  0.500012  0.650054
    C   C2   0.633724  0.499514  0.499968  0.649769
    O   O5   0.502648  0.564231  0.416708  -0.601530
    O   O6   0.497438  0.435139  0.583507  -0.599817
    O   O7   0.502936  0.564274  0.583340  -0.625179
    O   O8   0.497330  0.435058  0.416882  -0.623100
    C   C3   0.499883  0.499630  0.389877  0.728975
    C   C4   0.500336  0.499732  0.610297  0.735580
    Cu  Cu1  0.500500  0.574794  0.499821  0.896491
    Cu  Cu2  0.499765  0.424514  0.500279  0.897650
    C   C5   0.562030  0.504224  0.880703  0.528512
    C   C6   0.437343  0.495640  0.119477  0.509087
    N   N1   0.501111  0.499219  0.852743  -0.230597
    N   N2   0.498288  0.500144  0.147501  -0.229973
    C   C7   0.440615  0.494724  0.880922  0.534766
    C   C8   0.558838  0.504098  0.119286  0.532363
    C   C9   0.439671  0.495304  0.939963  -0.145777
    C   C10  0.559759  0.503784  0.060210  -0.138932
    C   C11  0.500916  0.499615  0.970335  0.116861
    C   C12  0.498511  0.499590  0.029837  0.096979
    C   C13  0.563960  0.503599  0.940872  -0.264708
    C   C14  0.435460  0.495569  0.059289  -0.231844
    C   C15  0.377097  0.491738  0.968349  -0.161404
    C   C16  0.622353  0.507128  0.031806  -0.162788
    C   C17  0.373515  0.492249  0.027346  0.196755
    C   C18  0.625906  0.506765  0.972790  0.226041
    O   O9   0.619901  0.509296  0.848876  -0.472745
    O   O10  0.379357  0.491974  0.151243  -0.468267
    O   O11  0.381030  0.491082  0.850962  -0.520004
    O   O12  0.618508  0.507293  0.149178  -0.515094
    H   H1   0.329468  0.488017  0.944057  0.156720
    H   H2   0.670048  0.508738  0.056119  0.152992
    C   C19  0.485596  0.434499  0.238139  -0.169022
    C   C20  0.488959  0.433527  0.762074  -0.176150
    H   H3   0.474854  0.383036  0.215085  0.134566
    H   H4   0.479680  0.381861  0.785233  0.128963
    C   C21  0.486514  0.434139  0.297215  -0.069839
    C   C22  0.489222  0.433449  0.702970  -0.040667
    H   H5   0.476216  0.382017  0.319483  0.109547
    H   H6   0.479947  0.381198  0.680583  0.100696
    C   C23  0.499483  0.499807  0.327095  -0.102066
    C   C24  0.500486  0.499614  0.673154  -0.117595
    C   C25  0.512173  0.565673  0.297289  -0.041283
    C   C26  0.512120  0.565548  0.703137  -0.056637
    H   H7   0.522721  0.617668  0.319632  0.101812
    H   H8   0.521481  0.617862  0.680852  0.110185
    C   C27  0.512245  0.565616  0.238183  -0.182298
    C   C28  0.512536  0.565189  0.762230  -0.185390
    H   H9   0.522246  0.617244  0.215150  0.134561
    H   H10  0.521452  0.616828  0.785551  0.130288
    C   C29  0.498565  0.500127  0.208525  0.236455
    C   C30  0.500833  0.499314  0.791741  0.255149
    C   C31  0.253794  0.566822  0.497778  -0.132392
    C   C32  0.746166  0.432497  0.502222  -0.130993
    C   C33  0.746050  0.566542  0.497872  -0.128071
    C   C34  0.253864  0.432737  0.502178  -0.124164
    H   H11  0.280727  0.620130  0.496246  0.110771
    H   H12  0.719155  0.379284  0.504054  0.109732
    H   H13  0.718920  0.619709  0.496237  0.103666
    H   H14  0.280877  0.379512  0.504158  0.102629
    C   C35  0.182142  0.566738  0.497781  0.148936
    C   C36  0.817844  0.432565  0.502185  0.148134
    C   C37  0.817732  0.566680  0.497823  0.150019
    C   C38  0.182210  0.432663  0.502202  0.149110
    H   H15  0.155218  0.620008  0.496232  0.015755
    H   H16  0.844762  0.379285  0.503812  0.016379
    H   H17  0.844494  0.620046  0.496006  0.017632
    H   H18  0.155420  0.379346  0.504167  0.017623
    C   C39  0.145861  0.499664  0.499928  -0.512821
    C   C40  0.854136  0.499662  0.499937  -0.513400
    C   C41  0.290152  0.499812  0.499904  -0.014186
    C   C42  0.709904  0.499463  0.499961  -0.010922
    N   N3   0.034382  0.434347  0.502119  -0.338554
    N   N4   0.965652  0.565000  0.497840  -0.339731
    N   N5   0.965666  0.434369  0.502127  -0.334646
    N   N6   0.034368  0.564975  0.497831  -0.334315
    C   C43  0.930450  0.499692  0.500011  0.905535
    C   C44  0.069577  0.499657  0.500005  0.904899
    C   C45  0.543518  0.274357  0.535138  0.040592
    C   C46  0.456445  0.724719  0.465503  0.040114
    C   C47  0.457497  0.274768  0.464289  0.012637
    C   C48  0.542780  0.724822  0.536115  0.013186
    H   H19  0.577799  0.304676  0.563559  0.105773
    H   H20  0.421858  0.693999  0.437469  0.103992
    H   H21  0.423064  0.305784  0.436233  0.123032
    H   H22  0.577064  0.694205  0.564452  0.121205
    C   C49  0.543674  0.196820  0.535983  0.062615
    C   C50  0.455898  0.802168  0.464754  0.068349
    C   C51  0.456288  0.197235  0.463930  0.071886
    C   C52  0.543637  0.802395  0.536517  0.074208
    H   H23  0.578089  0.167976  0.565436  0.033182
    H   H24  0.420708  0.830668  0.435906  0.031247
    H   H25  0.420727  0.168895  0.435503  0.031702
    H   H26  0.578839  0.831119  0.565199  0.031532
    C   C53  0.499774  0.157426  0.499935  -0.424466
    C   C54  0.499808  0.841873  0.500485  -0.432135
    N   N7   0.499620  0.312012  0.500503  -0.092046
    N   N8   0.500693  0.687310  0.499900  -0.090571
    N   N9   0.456374  0.036683  0.465113  -0.327648
    N   N10  0.542185  0.962639  0.535554  -0.327813
    N   N11  0.542101  0.036948  0.535383  -0.321446
    N   N12  0.456460  0.962320  0.465286  -0.323460
    C   C55  0.499432  0.924401  0.500490  0.887064
    C   C56  0.499235  0.074898  0.500153  0.881560
    C   C57  0.301392  0.489456  0.052019  -0.173677
    C   C58  0.282852  0.409641  0.069586  0.078960
    C   C59  0.214849  0.409899  0.102436  0.277575
    C   C60  0.194735  0.330043  0.117760  -0.323312
    H   H27  0.263429  0.506680  0.018793  0.044888
    H   H28  0.293980  0.530587  0.087065  0.053434
    H   H29  0.324297  0.384834  0.096571  -0.010382
    H   H30  0.277128  0.374881  0.030397  -0.022162
    H   H31  0.173419  0.435206  0.075580  -0.056887
    H   H32  0.220870  0.443204  0.142335  -0.035288
    H   H33  0.187887  0.296585  0.078023  0.063599
    H   H34  0.145204  0.330664  0.142083  0.065951
    H   H35  0.236024  0.304358  0.144563  0.064043
    C   C61  0.697990  0.507569  0.947970  -0.228042
    C   C62  0.719075  0.428760  0.929491  0.142079
    C   C63  0.787592  0.431782  0.897402  0.242006
    C   C64  0.810111  0.353012  0.880900  -0.302005
    H   H36  0.735523  0.525630  0.981241  0.051820
    H   H37  0.703732  0.549699  0.913418  0.068211
    H   H38  0.678800  0.403156  0.901759  -0.030849
    H   H39  0.725048  0.393296  0.968284  -0.031983
    H   H40  0.827952  0.457489  0.925132  -0.051599
    H   H41  0.781375  0.466019  0.857987  -0.029081
    H   H42  0.817011  0.318346  0.920007  0.058361
    H   H43  0.860165  0.355912  0.857422  0.063881
    H   H44  0.770259  0.326906  0.852892  0.058134
