# generated using pymatgen
data_CuH12C22NO5
_symmetry_space_group_name_H-M   'P 1'
_cell_length_a   10.90337800
_cell_length_b   16.03873000
_cell_length_c   14.61301300
_cell_angle_alpha   90.00926700
_cell_angle_beta   90.01727100
_cell_angle_gamma   89.98730300
_symmetry_Int_Tables_number   1
_chemical_formula_structural   CuH12C22NO5
_chemical_formula_sum   'Cu2 H24 C44 N2 O10'
_cell_volume   2555.46995663
_cell_formula_units_Z   2
loop_
 _symmetry_equiv_pos_site_id
 _symmetry_equiv_pos_as_xyz
  1  'x, y, z'
loop_
 _atom_site_type_symbol
 _atom_site_label
 _atom_site_symmetry_multiplicity
 _atom_site_fract_x
 _atom_site_fract_y
 _atom_site_fract_z
 _atom_site_occupancy
  Cu  Cu1  1  0.49789700  0.49994200  0.59151000  1
  Cu  Cu2  1  0.50247700  0.49976100  0.40863400  1
  H  H1  1  0.23402100  0.60568000  0.09391200  1
  H  H2  1  0.76635100  0.39402300  0.90623100  1
  H  H3  1  0.16281300  0.66171000  0.37602100  1
  H  H4  1  0.83756100  0.33799400  0.62412300  1
  H  H5  1  0.06366200  0.42637800  0.26544200  1
  H  H6  1  0.93671200  0.57332500  0.73470200  1
  H  H7  1  0.14454400  0.46798100  0.11556700  1
  H  H8  1  0.85582900  0.53172200  0.88457600  1
  H  H9  1  0.88089500  0.52440200  0.36063100  1
  H  H10  1  0.11947900  0.47530100  0.63951300  1
  H  H11  1  0.47481400  0.07641700  0.64471700  1
  H  H12  1  0.52555900  0.92328600  0.35542600  1
  H  H13  1  0.48021900  0.92309300  0.64503400  1
  H  H14  1  0.52015500  0.07661000  0.35511000  1
  H  H15  1  0.58709900  0.61948800  0.08313300  1
  H  H16  1  0.41327400  0.38021500  0.91701100  1
  H  H17  1  0.58232200  0.61970000  0.91483400  1
  H  H18  1  0.41805200  0.38000300  0.08531000  1
  H  H19  1  0.16291600  0.80586000  0.31452000  1
  H  H20  1  0.29951200  0.85066000  0.26510900  1
  H  H21  1  0.31361800  0.77032300  0.35079100  1
  H  H22  1  0.83745800  0.19384300  0.68562400  1
  H  H23  1  0.68675600  0.22938100  0.64935200  1
  H  H24  1  0.70086100  0.14904300  0.73503400  1
  C  C1  1  0.49462200  0.33986700  0.49973400  1
  C  C2  1  0.50575100  0.65983600  0.50041100  1
  C  C3  1  0.26388100  0.50444200  0.49698300  1
  C  C4  1  0.73649200  0.49526100  0.50316100  1
  C  C5  1  0.20568300  0.64424800  0.23324600  1
  C  C6  1  0.79469000  0.35545500  0.76689700  1
  C  C7  1  0.16119600  0.61997600  0.31808300  1
  C  C8  1  0.83917700  0.37972700  0.68206000  1
  C  C9  1  0.11171300  0.54141700  0.32988300  1
  C  C10  1  0.88866000  0.45828600  0.67026100  1
  C  C11  1  0.10431700  0.48733800  0.25677100  1
  C  C12  1  0.89605600  0.51236500  0.74337200  1
  C  C13  1  0.14956500  0.51069500  0.17267500  1
  C  C14  1  0.85080800  0.48900800  0.82746900  1
  C  C15  1  0.20019300  0.58867800  0.16085600  1
  C  C16  1  0.80017900  0.41102500  0.83928700  1
  C  C17  1  0.93231000  0.51203300  0.42235000  1
  C  C18  1  0.06806300  0.48767100  0.57779400  1
  C  C19  1  0.87206900  0.49502100  0.50353300  1
  C  C20  1  0.12830500  0.50468200  0.49661000  1
  C  C21  1  0.94189800  0.48201600  0.58209000  1
  C  C22  1  0.05847500  0.51768700  0.41805400  1
  C  C23  1  0.48908000  0.95682100  0.58133800  1
  C  C24  1  0.51129300  0.04288200  0.41880500  1
  C  C25  1  0.50347000  0.91389900  0.50027100  1
  C  C26  1  0.49690400  0.08580400  0.49987300  1
  C  C27  1  0.51449900  0.95693000  0.41899800  1
  C  C28  1  0.48587400  0.04277300  0.58114600  1
  C  C29  1  0.50567600  0.82443900  0.50037400  1
  C  C30  1  0.49469700  0.17526500  0.49977000  1
  C  C31  1  0.49392100  0.25039700  0.49976500  1
  C  C32  1  0.50645200  0.74930600  0.50037900  1
  C  C33  1  0.54613900  0.56706000  0.95229600  1
  C  C34  1  0.45423500  0.43264300  0.04784800  1
  C  C35  1  0.49726900  0.50005000  0.90572400  1
  C  C36  1  0.50310400  0.49965300  0.09442000  1
  C  C37  1  0.45138300  0.43281300  0.95350300  1
  C  C38  1  0.54899100  0.56689000  0.04664100  1
  C  C39  1  0.49543700  0.49995500  0.80752900  1
  C  C40  1  0.50493700  0.49974800  0.19261500  1
  C  C41  1  0.25718200  0.72818500  0.21831700  1
  C  C42  1  0.25810400  0.79250400  0.29210100  1
  C  C43  1  0.74319000  0.27151900  0.78182700  1
  C  C44  1  0.74226900  0.20720000  0.70804200  1
  N  N1  1  0.50562700  0.49981500  0.27179100  1
  N  N2  1  0.49474700  0.49988800  0.72835300  1
  O  O1  1  0.48966900  0.37889100  0.57831400  1
  O  O2  1  0.51070500  0.62081200  0.42183000  1
  O  O3  1  0.50228500  0.37854900  0.42115300  1
  O  O4  1  0.49808800  0.62115400  0.57899100  1
  O  O5  1  0.32012100  0.50579100  0.57636200  1
  O  O6  1  0.68025200  0.49391200  0.42378200  1
  O  O7  1  0.32394300  0.49975900  0.41946000  1
  O  O8  1  0.67643100  0.49994400  0.58068400  1
  O  O9  1  0.29911600  0.74642900  0.14362800  1
  O  O10  1  0.70125700  0.25327400  0.85651600  1
