# Generated by REPEAT Assigner based on pymatgen
data_DB0-m3_o11_o25_f0_pcu.sym.45_sqe
_audit_creation_date              2022-05-24
_audit_creation_method            REPEAT_Assigner
_cell_length_a                    16.029635
_cell_length_b                    11.131592
_cell_length_c                    9.994830
_cell_angle_alpha                 89.997391
_cell_angle_beta                  89.994654
_cell_angle_gamma                 90.003421
_cell_volume                      1783.431044
_symmetry_space_group_name_H-M    P1
_symmetry_Int_Tables_number       1
loop_
    _symmetry_equiv_pos_site_id
    _symmetry_equiv_pos_as_xyz
    1  x,y,z
loop_
    _atom_site_type_symbol
    _atom_site_label
    _atom_site_fract_x
    _atom_site_fract_y
    _atom_site_fract_z
    _atom_type_partial_charge
    O   O1   0.510416  0.329645  0.608573  -0.656467
    O   O2   0.510296  0.327370  0.377350  -0.653260
    C   C1   0.510112  0.272327  0.493229  0.809671
    O   O3   0.381921  0.503671  0.596739  -0.679647
    O   O4   0.384331  0.501252  0.365765  -0.607581
    C   C2   0.344367  0.501073  0.480318  0.826532
    Zn  Zn1  0.505568  0.509851  0.637967  1.098075
    Zn  Zn2  0.509115  0.504837  0.333491  0.964863
    O   O5   0.503248  0.687442  0.593805  -0.705039
    O   O6   0.504574  0.684759  0.363534  -0.556628
    O   O7   0.630352  0.514022  0.605817  -0.658355
    O   O8   0.632773  0.509207  0.375012  -0.617079
    C   C3   0.501882  0.742730  0.477908  0.775211
    C   C4   0.670317  0.512807  0.491356  0.767553
    C   C5   0.980306  0.426235  0.572788  0.082297
    C   C6   0.032202  0.396607  0.451307  -0.364057
    C   C7   0.254808  0.499944  0.478813  -0.103197
    C   C8   0.759835  0.512635  0.492898  -0.080186
    C   C9   0.037215  0.531216  0.605603  -0.296842
    C   C10  0.088286  0.501408  0.482326  0.784866
    C   C11  0.982372  0.613272  0.520194  -0.040255
    C   C12  0.926274  0.507271  0.488781  0.485415
    C   C13  0.034961  0.583666  0.396963  -0.273019
    C   C14  0.978104  0.477870  0.367337  0.045821
    C   C15  0.179609  0.500074  0.479629  -0.406245
    C   C16  0.835000  0.510962  0.491954  -0.363800
    H   H1   0.058726  0.649118  0.322487  0.114574
    H   H2   0.960389  0.704083  0.549160  0.064421
    H   H3   0.062893  0.552808  0.705786  0.126708
    C   C17  0.484175  0.948237  0.375729  -0.015336
    C   C18  0.491371  0.874539  0.481785  -0.363795
    H   H4   0.485626  0.913004  0.580891  0.185892
    C   C19  0.468917  0.078234  0.397048  0.067832
    C   C20  0.510926  0.140172  0.491256  -0.342245
    H   H5   0.554272  0.094856  0.557353  0.180802
    C   C21  0.569181  0.500063  0.908037  0.101422
    N   N1   0.503304  0.518409  0.837887  -0.253018
    H   H6   0.626335  0.473284  0.858619  0.167978
    H   H7   0.455157  0.560642  0.887062  0.244921
    C   C22  0.571558  0.531124  0.052085  -0.065794
    N   N2   0.512562  0.498838  0.133229  -0.023867
    C   C23  0.057963  0.272756  0.412301  0.787888
    O   O9   0.005014  0.196982  0.389001  -0.533107
    O   O10  0.142023  0.243091  0.402852  -0.574442
    H   H8   0.148265  0.155966  0.375723  0.379596
    C   C24  0.642173  0.605827  0.095906  0.727380
    O   O11  0.707119  0.603669  0.032481  -0.500371
    O   O12  0.632963  0.689090  0.198205  -0.523796
    H   H9   0.686516  0.736020  0.210220  0.396161
    C   C25  0.460899  0.404589  0.085891  0.702310
    O   O13  0.491707  0.311787  0.043646  -0.463326
    O   O14  0.374684  0.413621  0.098005  -0.531148
    H   H10  0.347215  0.338113  0.062824  0.394217
    C   C26  0.951179  0.335717  0.672439  0.582063
    O   O15  0.002031  0.275755  0.733784  -0.501923
    O   O16  0.866387  0.319293  0.695770  -0.536941
    H   H11  0.857797  0.254862  0.765867  0.403397
    C   C27  0.946557  0.446633  0.231310  0.586270
    O   O17  0.995875  0.424872  0.141684  -0.507934
    O   O18  0.861273  0.442245  0.206066  -0.529394
    H   H12  0.851007  0.419744  0.109359  0.405626
    C   C28  0.486030  0.904348  0.236773  0.783540
    O   O19  0.434327  0.831942  0.197885  -0.543052
    O   O20  0.538771  0.959276  0.144679  -0.598903
    H   H13  0.529393  0.924134  0.052519  0.399642
    C   C29  0.401433  0.136640  0.319211  0.636184
    O   O21  0.383071  0.100687  0.207867  -0.495467
    O   O22  0.352768  0.225951  0.377568  -0.535759
    H   H14  0.308152  0.252994  0.312635  0.422143
