# Generated by REPEAT Assigner based on pymatgen
data_DB0-m15_o16_o80_f0_fsc
_audit_creation_date              2022-05-24
_audit_creation_method            REPEAT_Assigner
_cell_length_a                    6.663365
_cell_length_b                    11.632238
_cell_length_c                    12.346133
_cell_angle_alpha                 92.632616
_cell_angle_beta                  99.795883
_cell_angle_gamma                 74.697571
_cell_volume                      909.561383
_symmetry_space_group_name_H-M    P1
_symmetry_Int_Tables_number       1
loop_
    _symmetry_equiv_pos_site_id
    _symmetry_equiv_pos_as_xyz
    1  x,y,z
loop_
    _atom_site_type_symbol
    _atom_site_label
    _atom_site_fract_x
    _atom_site_fract_y
    _atom_site_fract_z
    _atom_type_partial_charge
    Co  Co1  0.047934  0.881207  0.007159  0.825496
    Co  Co2  0.947959  0.117910  0.991399  0.731587
    O   O1   0.225804  0.884522  0.891137  -0.652973
    O   O2   0.850620  0.912860  0.119441  -0.679684
    O   O3   0.279878  0.904073  0.126108  -0.593796
    O   O4   0.797887  0.893059  0.886227  -0.623487
    O   O5   0.798645  0.114229  0.119415  -0.654735
    O   O6   0.124038  0.086205  0.870038  -0.646389
    O   O7   0.214508  0.104548  0.102903  -0.538000
    O   O8   0.699901  0.095809  0.882351  -0.652038
    C   C1   0.232846  0.980628  0.842292  0.800785
    C   C2   0.765315  0.018999  0.157274  0.834359
    C   C3   0.328814  0.004622  0.152017  0.706387
    C   C4   0.667926  0.993461  0.846727  0.814111
    C   C5   0.077972  0.530304  0.065624  -0.294436
    H   H1   0.855834  0.699421  0.072748  0.167004
    H   H2   0.235137  0.299860  0.073594  0.137345
    H   H3   0.978806  0.481468  0.093325  0.177738
    N   N1   0.131943  0.712481  0.018547  0.152663
    C   C6   0.988792  0.343975  0.940452  -0.111999
    C   C7   0.928528  0.466075  0.928906  -0.202092
    C   C8   0.736833  0.530673  0.953969  -0.108232
    C   C9   0.601623  0.471786  0.986460  0.078698
    C   C10  0.666363  0.348474  0.994887  -0.003780
    C   C11  0.401374  0.532944  0.007900  0.006949
    C   C12  0.273269  0.470549  0.041426  0.256676
    C   C13  0.336710  0.348370  0.047740  -0.275009
    C   C14  0.526606  0.287635  0.018385  -0.026560
    C   C15  0.325601  0.655637  0.996941  -0.254328
    C   C16  0.008657  0.652244  0.053650  -0.114015
    N   N2   0.861830  0.287362  0.977351  0.104108
    H   H4   0.419442  0.708442  0.971185  0.194412
    H   H5   0.136005  0.293361  0.916874  0.168169
    H   H6   0.695559  0.626028  0.944966  0.129113
    H   H7   0.031740  0.511306  0.900030  0.167030
    H   H8   0.559820  0.192366  0.010083  0.168169
    C   C17  0.668913  0.029159  0.256054  0.059233
    C   C18  0.785564  0.049339  0.355141  -0.383147
    C   C19  0.716958  0.038420  0.452456  0.326389
    C   C20  0.837766  0.054389  0.551445  -0.296044
    C   C21  0.773640  0.037580  0.648748  -0.240384
    C   C22  0.473490  0.008852  0.254159  -0.288397
    C   C23  0.409014  0.993297  0.351800  0.228046
    C   C24  0.530834  0.007565  0.450831  -0.087169
    C   C25  0.465233  0.992422  0.548115  -0.105467
    C   C26  0.587127  0.006639  0.647102  0.256870
    C   C27  0.522622  0.991181  0.744687  -0.298681
    C   C28  0.222252  0.962597  0.350226  -0.188727
    C   C29  0.158012  0.945949  0.447574  -0.320263
    C   C30  0.278923  0.961799  0.546574  0.337407
    C   C31  0.210473  0.950779  0.643972  -0.372998
    C   C32  0.328585  0.969416  0.743151  0.032171
    H   H9   0.934493  0.070175  0.356388  0.185191
    H   H10  0.984195  0.078451  0.552794  0.171160
    H   H11  0.869062  0.049398  0.726391  0.234507
    H   H12  0.126689  0.950863  0.272607  0.201933
    H   H13  0.011488  0.921998  0.446244  0.175688
    H   H14  0.061377  0.930175  0.642736  0.183432
