# Generated by REPEAT Assigner based on pymatgen
data_DB0-m23_o20_o27_f0_pcu
_audit_creation_date              2022-05-24
_audit_creation_method            REPEAT_Assigner
_cell_length_a                    10.491759
_cell_length_b                    18.467940
_cell_length_c                    19.117827
_cell_angle_alpha                 75.979665
_cell_angle_beta                  91.323005
_cell_angle_gamma                 90.871917
_cell_volume                      3592.806148
_symmetry_space_group_name_H-M    P1
_symmetry_Int_Tables_number       1
loop_
    _symmetry_equiv_pos_site_id
    _symmetry_equiv_pos_as_xyz
    1  x,y,z
loop_
    _atom_site_type_symbol
    _atom_site_label
    _atom_site_fract_x
    _atom_site_fract_y
    _atom_site_fract_z
    _atom_type_partial_charge
    C   C1   0.007412  0.828998  0.219104  0.465589
    O   O1   0.013414  0.824227  0.152237  -0.558077
    O   O2   0.999073  0.895119  0.232101  -0.608136
    C   C2   0.013756  0.171476  0.780551  0.569099
    O   O3   0.014852  0.176320  0.847569  -0.640666
    O   O4   0.010416  0.105207  0.767297  -0.621450
    C   C3   0.990545  0.107050  0.069352  0.551095
    O   O5   0.993149  0.066254  0.135690  -0.603400
    O   O6   0.997537  0.074082  0.015853  -0.747315
    Cd  Cd1  0.002287  0.951085  0.101887  1.347763
    Cd  Cd2  0.007399  0.049238  0.897559  1.441359
    C   C4   0.000385  0.893065  0.929759  0.542543
    O   O7   0.006842  0.933861  0.863601  -0.606228
    O   O8   0.002528  0.926177  0.983385  -0.668422
    N   N1   0.815876  0.050973  0.896245  -0.435371
    C   C5   0.704115  0.051090  0.896710  0.433247
    C   C6   0.565923  0.050956  0.897666  -0.060310
    C   C7   0.448851  0.050592  0.898798  -0.064512
    C   C8   0.310687  0.049921  0.900382  0.437570
    N   N2   0.198957  0.049298  0.901639  -0.413930
    N   N3   0.195860  0.942198  0.078815  -0.381121
    C   C9   0.307431  0.942417  0.083078  0.386178
    C   C10  0.445324  0.942643  0.087414  -0.041793
    C   C11  0.562261  0.943048  0.090407  -0.048770
    C   C12  0.700209  0.944004  0.093521  0.380675
    N   N4   0.811871  0.945256  0.096067  -0.346580
    C   C13  0.015093  0.224350  0.109535  -0.191998
    H   H1   0.046932  0.192667  0.162060  0.144210
    C   C14  0.010401  0.301228  0.096196  0.108650
    H   H2   0.038812  0.327828  0.138688  0.041246
    C   C15  0.974201  0.343379  0.028715  -0.466658
    C   C16  0.938250  0.307446  0.975712  0.084518
    H   H3   0.905735  0.338806  0.923208  0.042037
    C   C17  0.940330  0.230578  0.989746  -0.161563
    H   H4   0.905940  0.203394  0.949066  0.132629
    C   C18  0.982331  0.188663  0.055837  0.113045
    N   N5   0.976295  0.466241  0.944700  -0.300748
    N   N6   0.978390  0.539995  0.930734  -0.333941
    C   C19  0.977006  0.574684  0.985030  0.883469
    N   N7   0.974115  0.533761  0.053618  -0.304994
    N   N8   0.973368  0.460012  0.067611  -0.332020
    C   C20  0.974103  0.425320  0.013309  0.873444
    C   C21  0.941675  0.692461  0.021232  0.091019
    H   H5   0.905645  0.661043  0.072276  0.045449
    C   C22  0.945648  0.769319  0.007345  -0.120981
    H   H6   0.909202  0.796373  0.046545  0.077384
    C   C23  0.991807  0.811367  0.943078  0.087084
    C   C24  0.027263  0.775766  0.890829  -0.180972
    H   H7   0.062278  0.807559  0.839668  0.138246
    C   C25  0.020713  0.698861  0.903922  0.108350
    H   H8   0.050999  0.672318  0.862641  0.041457
    C   C26  0.979907  0.656621  0.969750  -0.484705
    C   C27  0.015967  0.691880  0.262576  -0.218804
    H   H9   0.019679  0.687018  0.207463  0.126879
    C   C28  0.017287  0.627661  0.317378  0.172342
    H   H10  0.022169  0.574534  0.303333  0.009023
    C   C29  0.012501  0.631629  0.388598  -0.512562
    C   C30  0.006429  0.700971  0.404060  0.149795
    H   H11  0.002498  0.706042  0.459094  0.024923
    C   C31  0.004871  0.765251  0.349091  -0.212953
    H   H12  0.999851  0.818710  0.362493  0.147444
    C   C32  0.009622  0.761069  0.278004  0.156642
    N   N9   0.011551  0.566695  0.516292  -0.312596
    N   N10  0.012433  0.504887  0.568592  -0.288140
    C   C33  0.015345  0.437685  0.552935  0.842726
    N   N11  0.017394  0.433930  0.483549  -0.306406
    N   N12  0.016607  0.495739  0.431251  -0.296896
    C   C34  0.013642  0.562940  0.446906  0.861614
    C   C35  0.015653  0.299548  0.595636  0.142693
    H   H13  0.015264  0.294421  0.540521  0.025541
    C   C36  0.015288  0.235232  0.650559  -0.187207
    H   H14  0.014653  0.181696  0.637041  0.136390
    C   C37  0.015456  0.239472  0.721739  0.084572
    C   C38  0.016207  0.308762  0.737310  -0.201861
    H   H15  0.016251  0.313666  0.792495  0.136571
    C   C39  0.016326  0.373013  0.682543  0.164013
    H   H16  0.016658  0.426216  0.696691  0.005483
    C   C40  0.015916  0.368982  0.611226  -0.491921
