# generated using pymatgen
data_Cu3H6C29NO13
_symmetry_space_group_name_H-M   'P 1'
_cell_length_a   41.97382900
_cell_length_b   28.83841800
_cell_length_c   29.27412800
_cell_angle_alpha   90.00000000
_cell_angle_beta   135.08874500
_cell_angle_gamma   90.00000000
_symmetry_Int_Tables_number   1
_chemical_formula_structural   Cu3H6C29NO13
_chemical_formula_sum   'Cu12 H24 C116 N4 O52'
_cell_volume   25017.57857645
_cell_formula_units_Z   4
loop_
 _symmetry_equiv_pos_site_id
 _symmetry_equiv_pos_as_xyz
  1  'x, y, z'
loop_
 _atom_site_type_symbol
 _atom_site_label
 _atom_site_symmetry_multiplicity
 _atom_site_fract_x
 _atom_site_fract_y
 _atom_site_fract_z
 _atom_site_occupancy
  Cu  Cu1  1  0.51331600  0.49134900  0.55930300  1
  Cu  Cu2  1  0.01331600  0.99134900  0.55930300  1
  Cu  Cu3  1  0.50487400  0.49150800  0.46001400  1
  Cu  Cu4  1  0.00487400  0.99150800  0.46001400  1
  Cu  Cu5  1  0.97416900  0.54028700  0.96953600  1
  Cu  Cu6  1  0.99571900  0.45058400  0.99147600  1
  Cu  Cu7  1  0.47416900  0.04028700  0.96953600  1
  Cu  Cu8  1  0.49571900  0.95058400  0.99147600  1
  Cu  Cu9  1  0.44886500  0.98793300  0.44435900  1
  Cu  Cu10  1  0.94886500  0.48793300  0.44435900  1
  Cu  Cu11  1  0.53842500  0.99519000  0.53449800  1
  Cu  Cu12  1  0.03842500  0.49519000  0.53449800  1
  H  H1  1  0.28184100  0.60490100  0.26961200  1
  H  H2  1  0.27198000  0.47016000  0.23221500  1
  H  H3  1  0.78184100  0.10490100  0.26961200  1
  H  H4  1  0.77197900  0.97016000  0.23221500  1
  H  H5  1  0.22344900  0.55032900  0.15483300  1
  H  H6  1  0.72344900  0.05032900  0.15483300  1
  H  H7  1  0.27131300  0.51457100  0.35988100  1
  H  H8  1  0.77131300  0.01457100  0.35988100  1
  H  H9  1  0.23172700  0.63624600  0.28900600  1
  H  H10  1  0.19032600  0.66911600  0.30499700  1
  H  H11  1  0.18194700  0.62988100  0.34387400  1
  H  H12  1  0.13670900  0.64009500  0.25773200  1
  H  H13  1  0.19196800  0.43416700  0.19553900  1
  H  H14  1  0.16227400  0.37507200  0.22851000  1
  H  H15  1  0.12163700  0.41959800  0.17266200  1
  H  H16  1  0.13687200  0.41001900  0.24720800  1
  H  H17  1  0.73172700  0.13624600  0.28900600  1
  H  H18  1  0.69032600  0.16911600  0.30499700  1
  H  H19  1  0.68194700  0.12988100  0.34387400  1
  H  H20  1  0.63670900  0.14009500  0.25773200  1
  H  H21  1  0.69196800  0.93416700  0.19553900  1
  H  H22  1  0.66227400  0.87507200  0.22851000  1
  H  H23  1  0.62163700  0.91959800  0.17266200  1
  H  H24  1  0.63687200  0.91001900  0.24720800  1
  C  C1  1  0.52126400  0.57967000  0.52095300  1
  C  C2  1  0.49670200  0.40333800  0.49805600  1
  C  C3  1  0.02126400  0.07967000  0.52095300  1
  C  C4  1  0.99670200  0.90333800  0.49805600  1
  C  C5  1  0.42428000  0.50464700  0.43175000  1
  C  C6  1  0.92428000  0.00464700  0.43174900  1
  C  C7  1  0.59373000  0.47706400  0.58744000  1
  C  C8  1  0.09373000  0.97706400  0.58744000  1
  C  C9  1  0.23386200  0.56465200  0.27056600  1
  C  C10  1  0.22906100  0.49372000  0.25107100  1
  C  C11  1  0.73386200  0.06465200  0.27056600  1
  C  C12  1  0.72906100  0.99372000  0.25107100  1
  C  C13  1  0.26536000  0.57178200  0.26246000  1
  C  C14  1  0.25995800  0.49884200  0.24208300  1
  C  C15  1  0.76536000  0.07178200  0.26246000  1
  C  C16  1  0.75995800  0.99884200  0.24208300  1
  C  C17  1  0.37756900  0.51413800  0.38857800  1
  C  C18  1  0.87756900  0.01413800  0.38857800  1
  C  C19  1  0.11496800  0.52815500  0.11602700  1
  C  C20  1  0.61496800  0.02815500  0.11602700  1
  C  C21  1  0.25952900  0.52210300  0.31275000  1
  C  C22  1  0.75952900  0.02210300  0.31275000  1
  C  C23  1  0.28978600  0.52846000  0.30227500  1
  C  C24  1  0.78978600  0.02846000  0.30227500  1
  C  C25  1  0.20336400  0.53594900  0.21016200  1
  C  C26  1  0.70336400  0.03594900  0.21016200  1
  C  C27  1  0.23444600  0.54203900  0.20126400  1
  C  C28  1  0.73444600  0.04203900  0.20126400  1
  C  C29  1  0.33800100  0.52158700  0.35063700  1
  C  C30  1  0.83800100  0.02158700  0.35063700  1
  C  C31  1  0.15475900  0.53415000  0.15846400  1
  C  C32  1  0.65475900  0.03415000  0.15846400  1
  C  C33  1  0.52210300  0.62961600  0.52158800  1
  C  C34  1  0.49104100  0.35375800  0.49250800  1
  C  C35  1  0.02210300  0.12961600  0.52158800  1
  C  C36  1  0.99104100  0.85375800  0.49250800  1
  C  C37  1  0.52072100  0.67149800  0.51978600  1
  C  C38  1  0.48737100  0.31204400  0.48838800  1
  C  C39  1  0.02072100  0.17149800  0.51978600  1
  C  C40  1  0.98737100  0.81204400  0.48838800  1
  C  C41  1  0.51738200  0.72054200  0.51575500  1
  C  C42  1  0.48431900  0.26302700  0.48439000  1
  C  C43  1  0.01738200  0.22054200  0.51575500  1
  C  C44  1  0.98431900  0.76302700  0.48439000  1
  C  C45  1  0.51365700  0.76227500  0.51136000  1
  C  C46  1  0.48284300  0.22117900  0.48192800  1
  C  C47  1  0.01365700  0.26227500  0.51136000  1
  C  C48  1  0.98284300  0.72117900  0.48192800  1
  C  C49  1  0.50880300  0.81118300  0.50572000  1
  C  C50  1  0.48254000  0.17207100  0.48040500  1
  C  C51  1  0.00880300  0.31118300  0.50572000  1
  C  C52  1  0.98254000  0.67207100  0.48040500  1
  C  C53  1  0.50475200  0.85288300  0.50108100  1
  C  C54  1  0.48365200  0.13021600  0.48055200  1
  C  C55  1  0.00475200  0.35288300  0.50108100  1
  C  C56  1  0.98365200  0.63021600  0.48055200  1
  C  C57  1  0.64071400  0.46854200  0.63092300  1
  C  C58  1  0.14071400  0.96854200  0.63092300  1
  C  C59  1  0.68049400  0.46206600  0.66881000  1
  C  C60  1  0.18049400  0.96206600  0.66881000  1
  C  C61  1  0.72731700  0.45667600  0.71466700  1
  C  C62  1  0.22731700  0.95667600  0.71466700  1
  C  C63  1  0.76763000  0.45504200  0.75515200  1
  C  C64  1  0.26763000  0.95504200  0.75515200  1
  C  C65  1  0.81471400  0.45731300  0.80339600  1
  C  C66  1  0.31471400  0.95731300  0.80339600  1
  C  C67  1  0.85466500  0.46302400  0.84479300  1
  C  C68  1  0.35466500  0.96302400  0.84479300  1
  C  C69  1  0.98360900  0.49510400  0.06746100  1
  C  C70  1  0.48360900  0.99510400  0.06746100  1
  C  C71  1  0.06851200  0.51692500  0.06661800  1
  C  C72  1  0.56851200  0.01692500  0.06661800  1
  C  C73  1  0.98650700  0.49572700  0.89380600  1
  C  C74  1  0.48650700  0.99572700  0.89380600  1
  C  C75  1  0.90132500  0.47401500  0.89325800  1
  C  C76  1  0.40132500  0.97401500  0.89325800  1
  C  C77  1  0.49312200  0.99164900  0.40057700  1
  C  C78  1  0.99312200  0.49164900  0.40057700  1
  C  C79  1  0.50055100  0.90265900  0.49636400  1
  C  C80  1  0.48685900  0.08041900  0.48285000  1
  C  C81  1  0.00055100  0.40265900  0.49636400  1
  C  C82  1  0.98686000  0.58041900  0.48285000  1
  C  C83  1  0.49405000  0.99142100  0.57814600  1
  C  C84  1  0.99405000  0.49142100  0.57814500  1
  C  C85  1  0.98479300  0.49521600  0.11865400  1
  C  C86  1  0.48479300  0.99521600  0.11865400  1
  C  C87  1  0.98612800  0.49500800  0.16174100  1
  C  C88  1  0.48612800  0.99500800  0.16174100  1
  C  C89  1  0.98789800  0.49452700  0.21268900  1
  C  C90  1  0.48789800  0.99452700  0.21269000  1
  C  C91  1  0.48943100  0.99400300  0.25596800  1
  C  C92  1  0.98943100  0.49400300  0.25596800  1
  C  C93  1  0.49112500  0.99329000  0.30683300  1
  C  C94  1  0.99112500  0.49329000  0.30683300  1
  C  C95  1  0.49229800  0.99260000  0.34975200  1
  C  C96  1  0.99229800  0.49260000  0.34975200  1
  C  C97  1  0.98820400  0.49588300  0.84558400  1
  C  C98  1  0.48820400  0.99588300  0.84558400  1
  C  C99  1  0.98959600  0.49558400  0.80528700  1
  C  C100  1  0.48959600  0.99558400  0.80528700  1
  C  C101  1  0.99115800  0.49490600  0.75775100  1
  C  C102  1  0.49115800  0.99490600  0.75775100  1
  C  C103  1  0.49236000  0.99418400  0.71726000  1
  C  C104  1  0.99236000  0.49418400  0.71725900  1
  C  C105  1  0.49351500  0.99325600  0.66929700  1
  C  C106  1  0.99351500  0.49325600  0.66929700  1
  C  C107  1  0.49410100  0.99243900  0.62816600  1
  C  C108  1  0.99410100  0.49243900  0.62816600  1
  C  C109  1  0.18970000  0.59665600  0.28717100  1
  C  C110  1  0.17377700  0.63650100  0.29919000  1
  C  C111  1  0.18675400  0.44449100  0.25786500  1
  C  C112  1  0.14953800  0.41009400  0.22442700  1
  C  C113  1  0.68970000  0.09665600  0.28717100  1
  C  C114  1  0.67377700  0.13650100  0.29919000  1
  C  C115  1  0.68675400  0.94449100  0.25786500  1
  C  C116  1  0.64953800  0.91009400  0.22442700  1
  N  N1  1  0.22012200  0.60342500  0.28438700  1
  N  N2  1  0.20811700  0.44952500  0.23912200  1
  N  N3  1  0.72012200  0.10342500  0.28438700  1
  N  N4  1  0.70811700  0.94952500  0.23912200  1
  O  O1  1  0.52062100  0.55833200  0.55995600  1
  O  O2  1  0.50142800  0.42492200  0.54202400  1
  O  O3  1  0.02062100  0.05833200  0.55995600  1
  O  O4  1  0.00142800  0.92492200  0.54202400  1
  O  O5  1  0.51334400  0.55838400  0.47407500  1
  O  O6  1  0.49411800  0.42514900  0.45622100  1
  O  O7  1  0.01334400  0.05838300  0.47407400  1
  O  O8  1  0.99411800  0.92514900  0.45622100  1
  O  O9  1  0.44846800  0.50305100  0.49365300  1
  O  O10  1  0.94846800  0.00305100  0.49365300  1
  O  O11  1  0.44118200  0.50321300  0.40763600  1
  O  O12  1  0.94118200  0.00321300  0.40763600  1
  O  O13  1  0.57748700  0.48306100  0.61201400  1
  O  O14  1  0.07748700  0.98306100  0.61201400  1
  O  O15  1  0.57022300  0.48316000  0.52628000  1
  O  O16  1  0.07022300  0.98316000  0.52628000  1
  O  O17  1  0.97609100  0.53437700  0.03803800  1
  O  O18  1  0.99482500  0.45680700  0.05709200  1
  O  O19  1  0.47609100  0.03437700  0.03803800  1
  O  O20  1  0.49482500  0.95680700  0.05709200  1
  O  O21  1  0.03916100  0.55071100  0.03853200  1
  O  O22  1  0.05778100  0.47294000  0.05737300  1
  O  O23  1  0.53916100  0.05071100  0.03853200  1
  O  O24  1  0.55778100  0.97294000  0.05737300  1
  O  O25  1  0.97856300  0.53483800  0.90753300  1
  O  O26  1  0.99705900  0.45736700  0.92637800  1
  O  O27  1  0.47856300  0.03483800  0.90753400  1
  O  O28  1  0.49705900  0.95736700  0.92637800  1
  O  O29  1  0.91208000  0.51784300  0.90689200  1
  O  O30  1  0.93062100  0.44028400  0.92587100  1
  O  O31  1  0.41208000  0.01784300  0.90689200  1
  O  O32  1  0.43062100  0.94028400  0.92587100  1
  O  O33  1  0.45452000  0.99026900  0.38357400  1
  O  O34  1  0.95452000  0.49026900  0.38357400  1
  O  O35  1  0.53192500  0.99658500  0.46140600  1
  O  O36  1  0.03192500  0.49658500  0.46140600  1
  O  O37  1  0.46015600  0.92116000  0.45756700  1
  O  O38  1  0.44966300  0.05569900  0.44712500  1
  O  O39  1  0.96015600  0.42116000  0.45756700  1
  O  O40  1  0.94966300  0.55569900  0.44712500  1
  O  O41  1  0.53751100  0.92746400  0.53160200  1
  O  O42  1  0.52724200  0.06194100  0.52147700  1
  O  O43  1  0.03751100  0.42746400  0.53160200  1
  O  O44  1  0.02724200  0.56194100  0.52147700  1
  O  O45  1  0.45504500  0.99010900  0.51710500  1
  O  O46  1  0.95504500  0.49010900  0.51710500  1
  O  O47  1  0.53247600  0.99632800  0.59501500  1
  O  O48  1  0.03247600  0.49632800  0.59501500  1
  O  O49  1  0.17491200  0.55806200  0.27982800  1
  O  O50  1  0.19870000  0.46634300  0.30345700  1
  O  O51  1  0.67491200  0.05806200  0.27982800  1
  O  O52  1  0.69870000  0.96634300  0.30345700  1
