# Generated by REPEAT Assigner based on pymatgen
data_DB0-m3_o4_o4_f0_nbo.sym.95
_audit_creation_date              2022-05-24
_audit_creation_method            REPEAT_Assigner
_cell_length_a                    30.577279
_cell_length_b                    21.902419
_cell_length_c                    21.902487
_cell_angle_alpha                 90.000000
_cell_angle_beta                  134.269369
_cell_angle_gamma                 90.000000
_cell_volume                      10503.581530
_symmetry_space_group_name_H-M    P1
_symmetry_Int_Tables_number       1
loop_
    _symmetry_equiv_pos_site_id
    _symmetry_equiv_pos_as_xyz
    1  x,y,z
loop_
    _atom_site_type_symbol
    _atom_site_label
    _atom_site_fract_x
    _atom_site_fract_y
    _atom_site_fract_z
    _atom_type_partial_charge
    O   O1    0.095265  0.514037  0.152272  -0.705787
    O   O2    0.595265  0.014037  0.152272  -0.705802
    O   O3    0.101658  0.518922  0.053274  -0.683623
    O   O4    0.601658  0.018922  0.053274  -0.683620
    C   C1    0.126767  0.516658  0.131985  0.767808
    C   C2    0.626767  0.016658  0.131985  0.767843
    O   O5    0.001931  0.606177  0.056714  -0.710518
    O   O6    0.003037  0.424138  0.060955  -0.681518
    O   O7    0.501931  0.106177  0.056714  -0.710525
    O   O8    0.503037  0.924138  0.060955  -0.681513
    O   O9    0.011823  0.607366  0.961320  -0.678984
    O   O10   0.013245  0.425383  0.965909  -0.702405
    O   O11   0.511823  0.107366  0.961320  -0.678982
    O   O12   0.513245  0.925383  0.965909  -0.702416
    C   C3    0.006683  0.635149  0.009011  0.729324
    C   C4    0.008552  0.396400  0.013611  0.694820
    C   C5    0.506683  0.135149  0.009011  0.729313
    C   C6    0.508552  0.896400  0.013611  0.694829
    Zn  Zn1   0.003620  0.515392  0.076387  1.292597
    Zn  Zn2   0.503620  0.015392  0.076387  1.292594
    Zn  Zn3   0.011254  0.516134  0.945949  1.291335
    Zn  Zn4   0.511254  0.016134  0.945949  1.291315
    O   O13   0.913216  0.512824  0.969020  -0.669480
    O   O14   0.413216  0.012824  0.969020  -0.669457
    O   O15   0.919659  0.517378  0.870162  -0.691794
    O   O16   0.419659  0.017378  0.870162  -0.691780
    C   C7    0.888046  0.515027  0.890298  0.709045
    C   C8    0.388046  0.015027  0.890298  0.709033
    C   C9    0.968503  0.735801  0.006239  0.124882
    C   C10   0.967669  0.295879  0.003906  -0.022360
    C   C11   0.468503  0.235801  0.006239  0.124878
    C   C12   0.467669  0.795879  0.003906  -0.022308
    C   C13   0.008085  0.701733  0.010441  -0.055277
    C   C14   0.010522  0.329856  0.015403  0.006732
    C   C15   0.508085  0.201733  0.010441  -0.055271
    C   C16   0.510522  0.829856  0.015403  0.006662
    C   C17   0.049069  0.733578  0.013995  -0.225854
    C   C18   0.056686  0.297997  0.030963  -0.201847
    C   C19   0.549069  0.233578  0.013995  -0.225854
    C   C20   0.556686  0.797997  0.030963  -0.201788
    H   H1    0.081525  0.708987  0.017721  0.165861
    H   H2    0.092016  0.322595  0.041234  0.160532
    H   H3    0.581525  0.208987  0.017721  0.165864
    H   H4    0.592016  0.822595  0.041234  0.160522
    C   C21   0.050138  0.797257  0.015559  -0.130217
    C   C22   0.058939  0.234350  0.036135  -0.171670
    C   C23   0.550138  0.297257  0.015559  -0.130234
    C   C24   0.558939  0.734350  0.036135  -0.171653
    H   H5    0.083233  0.821179  0.020087  0.120568
    H   H6    0.095566  0.210441  0.048957  0.158054
    H   H7    0.583233  0.321179  0.020087  0.120578
    H   H8    0.595566  0.710441  0.048957  0.158038
    C   C25   0.007958  0.829794  0.008781  -0.000485
    C   C26   0.013559  0.201837  0.022137  -0.114297
    C   C27   0.507958  0.329794  0.008781  -0.000520
    C   C28   0.513559  0.701837  0.022137  -0.114416
    C   C29   0.967262  0.796322  0.002964  0.037808
    C   C30   0.968159  0.235367  0.004906  0.220163
    C   C31   0.467262  0.296322  0.002964  0.037844
    C   C32   0.468159  0.735367  0.004906  0.220187
    C   C33   0.915652  0.802008  0.996148  -0.058980
    C   C34   0.911140  0.229964  0.985471  -0.254772
    C   C35   0.415652  0.302008  0.996148  -0.058999
    C   C36   0.411140  0.729964  0.985471  -0.254734
    C   C37   0.916801  0.730761  0.999224  -0.157587
    C   C38   0.910404  0.301210  0.983723  -0.047292
    C   C39   0.416801  0.230761  0.999224  -0.157578
    C   C40   0.410404  0.801210  0.983723  -0.047323
    H   H9    0.873984  0.820627  0.933604  0.056664
    H   H10   0.873340  0.209310  0.922017  0.085677
    H   H11   0.373984  0.320627  0.933604  0.056663
    H   H12   0.373340  0.709310  0.922017  0.085663
    H   H13   0.929557  0.823241  0.053485  0.025168
    H   H14   0.919365  0.210953  0.039632  0.076427
    H   H15   0.429557  0.323241  0.053485  0.025175
    H   H16   0.419365  0.710953  0.039632  0.076409
    H   H17   0.875958  0.709634  0.938210  0.068679
    H   H18   0.872481  0.320127  0.919087  0.094558
    H   H19   0.375958  0.209634  0.938210  0.068677
    H   H20   0.372481  0.820127  0.919087  0.094564
    H   H21   0.931146  0.712285  0.058105  0.073512
    H   H22   0.917900  0.321978  0.036589  0.060599
    H   H23   0.431146  0.212285  0.058105  0.073507
    H   H24   0.417900  0.821978  0.036589  0.060599
    C   C41   0.225976  0.476333  0.264436  0.076644
    C   C42   0.725976  0.976333  0.264436  0.076650
    C   C43   0.193214  0.518633  0.200207  -0.064913
    C   C44   0.693214  0.018633  0.200207  -0.064941
    C   C45   0.226332  0.562524  0.201049  -0.261938
    C   C46   0.726332  0.062524  0.201049  -0.261920
    H   H25   0.202701  0.596966  0.151726  0.161855
    H   H26   0.702701  0.096966  0.151726  0.161847
    C   C47   0.289958  0.563423  0.266128  -0.012077
    C   C48   0.789958  0.063423  0.266128  -0.012089
    H   H27   0.314812  0.598396  0.265951  0.111258
    H   H28   0.814812  0.098396  0.265951  0.111263
    C   C49   0.321266  0.518472  0.328580  -0.174086
    C   C50   0.821266  0.018472  0.328580  -0.174105
    C   C51   0.286551  0.475200  0.323818  0.172701
    C   C52   0.786551  0.975200  0.323818  0.172725
    C   C53   0.290488  0.419357  0.365740  -0.149345
    C   C54   0.790488  0.919357  0.365740  -0.149407
    C   C55   0.219193  0.420485  0.295387  -0.125939
    C   C56   0.719193  0.920485  0.295387  -0.125937
    H   H29   0.309884  0.428653  0.430419  0.048577
    H   H30   0.310055  0.380131  0.359469  0.070927
    H   H31   0.809884  0.928653  0.430419  0.048591
    H   H32   0.810055  0.880131  0.359469  0.070958
    H   H33   0.198807  0.430176  0.320845  0.069673
    H   H34   0.199042  0.382112  0.249566  0.061568
    H   H35   0.698807  0.930176  0.320845  0.069676
    H   H36   0.699042  0.882112  0.249566  0.061572
    C   C57   0.786586  0.486761  0.831565  0.093088
    C   C58   0.286586  0.986761  0.831565  0.093080
    C   C59   0.821442  0.515323  0.822064  -0.092680
    C   C60   0.321442  0.015323  0.822064  -0.092677
    C   C61   0.790280  0.545949  0.745728  -0.132856
    C   C62   0.290280  0.045949  0.745728  -0.132865
    H   H37   0.815292  0.569953  0.734973  0.139569
    H   H38   0.315292  0.069953  0.734973  0.139571
    C   C63   0.726528  0.548216  0.683792  -0.196536
    C   C64   0.226528  0.048216  0.683792  -0.196509
    H   H39   0.702912  0.573250  0.625403  0.153328
    H   H40   0.202912  0.073250  0.625403  0.153319
    C   C65   0.693355  0.517391  0.695825  -0.090926
    C   C66   0.193355  0.017391  0.695825  -0.090941
    C   C67   0.726094  0.486321  0.770885  0.128210
    C   C68   0.226094  0.986321  0.770885  0.128220
    C   C69   0.719175  0.449769  0.820643  -0.159801
    C   C70   0.219175  0.949769  0.820643  -0.159806
    C   C71   0.790435  0.449956  0.892036  -0.065441
    C   C72   0.290435  0.949956  0.892036  -0.065426
    H   H41   0.699564  0.403970  0.792508  0.074429
    H   H42   0.698212  0.476404  0.837835  0.066081
    H   H43   0.199564  0.903970  0.792508  0.074421
    H   H44   0.198212  0.976404  0.837835  0.066080
    H   H45   0.810592  0.404267  0.903656  0.010678
    H   H46   0.809153  0.476429  0.949162  0.055893
    H   H47   0.310592  0.904267  0.903656  0.010676
    H   H48   0.309153  0.976429  0.949162  0.055889
    O   O17   0.956913  0.017174  0.875377  -0.694922
    O   O18   0.456913  0.517174  0.875377  -0.694898
    O   O19   0.062285  0.020943  0.974212  -0.675949
    O   O20   0.562285  0.520943  0.974212  -0.675942
    C   C73   0.008607  0.020281  0.895481  0.714702
    C   C74   0.508607  0.520281  0.895481  0.714640
    O   O21   0.955727  0.924905  0.964460  -0.684511
    O   O22   0.960532  0.106920  0.974026  -0.686287
    O   O23   0.455727  0.424905  0.964460  -0.684506
    O   O24   0.460532  0.606920  0.974026  -0.686301
    O   O25   0.060914  0.924669  0.058217  -0.649791
    O   O26   0.065858  0.106550  0.070641  -0.676125
    O   O27   0.560914  0.424669  0.058217  -0.649798
    O   O28   0.565858  0.606550  0.070641  -0.676129
    C   C75   0.008134  0.896417  0.010158  0.660086
    C   C76   0.013363  0.135158  0.023157  0.718266
    C   C77   0.508134  0.396417  0.010158  0.660111
    C   C78   0.513363  0.635158  0.023157  0.718385
    Zn  Zn5   0.941696  0.016364  0.951838  1.290686
    Zn  Zn6   0.441696  0.516364  0.951838  1.290674
    Zn  Zn7   0.079852  0.015122  0.081913  1.267996
    Zn  Zn8   0.579852  0.515122  0.081913  1.268004
    O   O29   0.959326  0.012212  0.059673  -0.663445
    O   O30   0.459326  0.512212  0.059673  -0.663338
    O   O31   0.064654  0.012926  0.158429  -0.636743
    O   O32   0.564654  0.512926  0.158429  -0.636684
    C   C79   0.012947  0.010931  0.138429  0.613053
    C   C80   0.512947  0.510931  0.138429  0.612679
    O   O33   0.509810  0.567743  0.422123  -0.675581
    O   O34   0.507892  0.462462  0.426440  -0.702001
    O   O35   0.009810  0.067743  0.422123  -0.675600
    O   O36   0.007892  0.962462  0.426440  -0.702020
    C   C81   0.509479  0.513524  0.396578  0.706227
    C   C82   0.009479  0.013524  0.396578  0.706255
    O   O37   0.417070  0.569719  0.420450  -0.674426
    O   O38   0.415625  0.464533  0.426965  -0.671565
    O   O39   0.917070  0.069719  0.420450  -0.674462
    O   O40   0.915625  0.964533  0.426965  -0.671616
    C   C83   0.387926  0.517471  0.395511  0.709223
    C   C84   0.887926  0.017471  0.395511  0.709302
    Zn  Zn9   0.508019  0.586906  0.510793  1.287377
    Zn  Zn10  0.506862  0.448861  0.516975  1.291709
    Zn  Zn11  0.008019  0.086906  0.510793  1.287398
    Zn  Zn12  0.006862  0.948861  0.516975  1.291677
    O   O41   0.508887  0.573198  0.603220  -0.700276
    O   O42   0.503143  0.468118  0.603739  -0.678687
    O   O43   0.008887  0.073198  0.603220  -0.700279
    O   O44   0.003143  0.968118  0.603739  -0.678651
    O   O45   0.599167  0.571130  0.598892  -0.681637
    O   O46   0.597727  0.466151  0.608816  -0.699678
    O   O47   0.099167  0.071130  0.598892  -0.681620
    O   O48   0.097727  0.966151  0.608816  -0.699618
    C   C85   0.505573  0.522229  0.631410  0.703164
    C   C86   0.005573  0.022229  0.631410  0.703127
    C   C87   0.626783  0.518320  0.631732  0.753671
    C   C88   0.126783  0.018320  0.631732  0.753616
    C   C89   0.966842  0.989358  0.754717  0.113581
    C   C90   0.466842  0.489358  0.754717  0.113582
    C   C91   0.006540  0.024002  0.826980  -0.054675
    C   C92   0.506540  0.524002  0.826980  -0.054662
    C   C93   0.046123  0.061565  0.833188  -0.215645
    C   C94   0.546123  0.561565  0.833188  -0.215633
    H   H49   0.078302  0.090135  0.888720  0.164267
    H   H50   0.578302  0.590135  0.888720  0.164266
    C   C95   0.544244  0.563435  0.767640  -0.156780
    C   C96   0.044244  0.063435  0.767640  -0.156767
    H   H51   0.575473  0.592812  0.773616  0.149859
    H   H52   0.075473  0.092812  0.773616  0.149859
    C   C97   0.504923  0.525417  0.697329  -0.060084
    C   C98   0.004923  0.025417  0.697329  -0.060077
    C   C99   0.467282  0.488758  0.694639  0.112529
    C   C100  0.967282  0.988758  0.694639  0.112524
    C   C101  0.419353  0.441248  0.642747  -0.230660
    C   C102  0.919353  0.941248  0.642747  -0.230645
    C   C103  0.919264  0.941559  0.713934  -0.139378
    C   C104  0.419264  0.441559  0.713934  -0.139371
    H   H53   0.437035  0.398091  0.640270  0.095582
    H   H54   0.376545  0.459478  0.581130  0.128752
    H   H55   0.937035  0.898091  0.640270  0.095578
    H   H56   0.876545  0.959478  0.581130  0.128750
    H   H57   0.937394  0.898734  0.751626  0.075353
    H   H58   0.876238  0.959450  0.691841  0.066426
    H   H59   0.437394  0.398734  0.751626  0.075356
    H   H60   0.376238  0.459450  0.691841  0.066423
    C   C105  0.975624  0.045090  0.201649  0.132653
    C   C106  0.475624  0.545090  0.201649  0.132550
    C   C107  0.014180  0.008342  0.206412  -0.041138
    C   C108  0.514180  0.508342  0.206412  -0.040789
    C   C109  0.052927  0.970359  0.277923  -0.191962
    C   C110  0.552927  0.470359  0.277923  -0.192203
    C   C111  0.550375  0.470964  0.339326  -0.174011
    C   C112  0.050375  0.970964  0.339326  -0.174099
    H   H61   0.579720  0.440952  0.393886  0.134052
    H   H62   0.079720  0.940952  0.393886  0.134071
    C   C113  0.511273  0.510252  0.331861  -0.022202
    C   C114  0.011273  0.010252  0.331861  -0.022143
    C   C115  0.475365  0.547223  0.261762  0.067636
    C   C116  0.975365  0.047223  0.261762  0.067590
    C   C117  0.427891  0.595313  0.219129  -0.140124
    C   C118  0.927891  0.095313  0.219129  -0.140075
    C   C119  0.928570  0.093221  0.148572  -0.207140
    C   C120  0.428570  0.593221  0.148572  -0.207074
    H   H63   0.445915  0.638728  0.255501  0.073008
    H   H64   0.384661  0.578134  0.197036  0.070947
    H   H65   0.945915  0.138728  0.255501  0.073004
    H   H66   0.884661  0.078134  0.197036  0.070933
    H   H67   0.947467  0.135298  0.146190  0.117747
    H   H68   0.885552  0.075355  0.086789  0.087068
    H   H69   0.447467  0.635298  0.146190  0.117752
    H   H70   0.385552  0.575355  0.086789  0.087043
    C   C121  0.095478  0.928002  0.289851  0.416342
    C   C122  0.074563  0.884153  0.229227  -0.377308
    C   C123  0.114800  0.843067  0.242787  0.053299
    C   C124  0.176002  0.845620  0.316843  -0.067207
    Br  Br1   0.231577  0.788931  0.335351  -0.091519
    C   C125  0.196911  0.888855  0.377840  0.009013
    C   C126  0.156675  0.929650  0.364678  -0.308584
    H   H71   0.026520  0.881265  0.171601  0.216192
    H   H72   0.098337  0.808544  0.195605  0.073843
    H   H73   0.244854  0.890647  0.436181  0.084360
    H   H74   0.173428  0.963402  0.412877  0.147385
    C   C127  0.595478  0.428002  0.289851  0.416568
    C   C128  0.574563  0.384153  0.229227  -0.377538
    C   C129  0.614800  0.343067  0.242787  0.053428
    C   C130  0.676002  0.345620  0.316843  -0.067289
    Br  Br2   0.731577  0.288931  0.335351  -0.091514
    C   C131  0.696911  0.388855  0.377840  0.009075
    C   C132  0.656675  0.429650  0.364678  -0.308658
    H   H75   0.526520  0.381265  0.171601  0.216257
    H   H76   0.598337  0.308544  0.195605  0.073845
    H   H77   0.744854  0.390647  0.436181  0.084348
    H   H78   0.673428  0.463402  0.412877  0.147403
