# generated using pymatgen
data_CuH12C17NO8
_symmetry_space_group_name_H-M   'P 1'
_cell_length_a   14.97140900
_cell_length_b   11.05270100
_cell_length_c   9.88093000
_cell_angle_alpha   111.18570500
_cell_angle_beta   99.48410300
_cell_angle_gamma   90.01280700
_symmetry_Int_Tables_number   1
_chemical_formula_structural   CuH12C17NO8
_chemical_formula_sum   'Cu2 H24 C34 N2 O16'
_cell_volume   1500.51854686
_cell_formula_units_Z   2
loop_
 _symmetry_equiv_pos_site_id
 _symmetry_equiv_pos_as_xyz
  1  'x, y, z'
loop_
 _atom_site_type_symbol
 _atom_site_label
 _atom_site_symmetry_multiplicity
 _atom_site_fract_x
 _atom_site_fract_y
 _atom_site_fract_z
 _atom_site_occupancy
  Cu  Cu1  1  0.51289900  0.52988700  0.65165500  1
  Cu  Cu2  1  0.48904600  0.49101800  0.36416400  1
  H  H1  1  0.80400800  0.63849600  0.73075000  1
  H  H2  1  0.19827500  0.38235300  0.28623400  1
  H  H3  1  0.89349600  0.25871000  0.18102000  1
  H  H4  1  0.10919700  0.76370900  0.83511000  1
  H  H5  1  0.05120100  0.28282300  0.17577100  1
  H  H6  1  0.95131700  0.73896600  0.84114500  1
  H  H7  1  0.47924200  0.87383400  0.38013500  1
  H  H8  1  0.52919100  0.14619300  0.63302900  1
  H  H9  1  0.54054500  0.96485100  0.71618100  1
  H  H10  1  0.45674300  0.05627100  0.30024900  1
  H  H11  1  0.57167900  0.63560600  0.93829500  1
  H  H12  1  0.40789300  0.43253500  0.09101300  1
  H  H13  1  0.59718400  0.07518400  0.21048500  1
  H  H14  1  0.67659600  0.08009400  0.09388900  1
  H  H15  1  0.58420500  0.18795000  0.11485100  1
  H  H16  1  0.31531600  0.78485500  0.10187300  1
  H  H17  1  0.31033700  0.89829200  0.00757000  1
  H  H18  1  0.39412000  0.77696300  0.97910900  1
  H  H19  1  0.30576700  0.24836500  0.53112000  1
  H  H20  1  0.24063500  0.28159300  0.67728000  1
  H  H21  1  0.33036900  0.17105300  0.66370200  1
  H  H22  1  0.70510400  0.81236400  0.45665700  1
  H  H23  1  0.73100600  0.78106200  0.27522100  1
  H  H24  1  0.76243600  0.66868200  0.36821200  1
  C  C1  1  0.48556700  0.26376900  0.44352500  1
  C  C2  1  0.51638500  0.75708800  0.57215000  1
  C  C3  1  0.32888800  0.52563800  0.49945800  1
  C  C4  1  0.67316000  0.49568400  0.51650300  1
  C  C5  1  0.83015700  0.57420200  0.63644900  1
  C  C6  1  0.17213800  0.44719000  0.38023400  1
  C  C7  1  0.77133300  0.48942600  0.51757300  1
  C  C8  1  0.23086700  0.53243400  0.49852500  1
  C  C9  1  0.80495400  0.40983800  0.39441200  1
  C  C10  1  0.19743900  0.61332100  0.62118600  1
  C  C11  1  0.89748700  0.41693500  0.39150400  1
  C  C12  1  0.10498900  0.60569600  0.62487100  1
  C  C13  1  0.95527200  0.50583500  0.50978500  1
  C  C14  1  0.04718800  0.51635100  0.50692600  1
  C  C15  1  0.92126500  0.58400000  0.63140500  1
  C  C16  1  0.08112400  0.43790400  0.38534000  1
  C  C17  1  0.93355300  0.33490700  0.27283200  1
  C  C18  1  0.06893700  0.68756300  0.74356800  1
  C  C19  1  0.02446200  0.34678600  0.26961700  1
  C  C20  1  0.97802100  0.67518600  0.74715500  1
  C  C21  1  0.47979400  0.12374300  0.41207000  1
  C  C22  1  0.52138400  0.89707600  0.60349200  1
  C  C23  1  0.50434600  0.07987600  0.52156600  1
  C  C24  1  0.50035300  0.94047200  0.49281200  1
  C  C25  1  0.52693800  0.50333400  0.08247800  1
  C  C26  1  0.50061400  0.47846300  0.92254700  1
  C  C27  1  0.74284600  0.31711900  0.26870100  1
  C  C28  1  0.63386700  0.13975700  0.17167400  1
  C  C29  1  0.26008500  0.70814400  0.74433100  1
  C  C30  1  0.32370500  0.79707000  0.99800800  1
  C  C31  1  0.44116400  0.36096700  0.83269000  1
  C  C32  1  0.30915300  0.26204300  0.64874500  1
  C  C33  1  0.61747400  0.56708600  0.15739700  1
  C  C34  1  0.71060100  0.73529300  0.34952900  1
  N  N1  1  0.47236600  0.46355300  0.14950900  1
  N  N2  1  0.52907200  0.55809300  0.86655200  1
  O  O1  1  0.50228800  0.34051700  0.58180700  1
  O  O2  1  0.49965800  0.68035700  0.43395300  1
  O  O3  1  0.47511300  0.30681300  0.33445700  1
  O  O4  1  0.52693000  0.71404200  0.68118300  1
  O  O5  1  0.38153900  0.54110500  0.62454600  1
  O  O6  1  0.62046300  0.48010400  0.39121800  1
  O  O7  1  0.35992600  0.49831300  0.37559600  1
  O  O8  1  0.64208200  0.52281800  0.64052300  1
  O  O9  1  0.74054200  0.31773500  0.14500500  1
  O  O10  1  0.68779800  0.23171600  0.28991800  1
  O  O11  1  0.31273000  0.77869400  0.71975600  1
  O  O12  1  0.26349800  0.71181100  0.88298400  1
  O  O13  1  0.45206900  0.26274300  0.86100100  1
  O  O14  1  0.36847700  0.36688300  0.73488600  1
  O  O15  1  0.68126500  0.53925200  0.09177800  1
  O  O16  1  0.62815300  0.66734900  0.28758400  1
