# Generated by REPEAT Assigner based on pymatgen
data_DB0-m2_o16_o20_f0_pcu.sym.81
_audit_creation_date              2022-05-24
_audit_creation_method            REPEAT_Assigner
_cell_length_a                    12.183999
_cell_length_b                    13.449841
_cell_length_c                    14.422400
_cell_angle_alpha                 77.692910
_cell_angle_beta                  103.416866
_cell_angle_gamma                 116.281709
_cell_volume                      2044.705931
_symmetry_space_group_name_H-M    P1
_symmetry_Int_Tables_number       1
loop_
    _symmetry_equiv_pos_site_id
    _symmetry_equiv_pos_as_xyz
    1  x,y,z
loop_
    _atom_site_type_symbol
    _atom_site_label
    _atom_site_fract_x
    _atom_site_fract_y
    _atom_site_fract_z
    _atom_type_partial_charge
    O   O1   0.977628  0.320858  0.535557  -0.595938
    O   O2   0.810162  0.364815  0.499060  -0.504947
    C   C1   0.857415  0.291068  0.518811  0.609685
    O   O3   0.095141  0.475511  0.657595  -0.623015
    O   O4   0.935462  0.530792  0.623672  -0.641473
    C   C2   0.018639  0.504075  0.684385  0.962753
    Cu  Cu1  0.100922  0.475675  0.523270  0.904061
    Cu  Cu2  0.905068  0.526723  0.485254  0.762578
    O   O5   0.196632  0.637445  0.511693  -0.620135
    O   O6   0.027678  0.681536  0.469603  -0.586842
    O   O7   0.074031  0.475325  0.384536  -0.625622
    O   O8   0.908343  0.523891  0.351008  -0.609346
    C   C3   0.147926  0.710508  0.485674  0.719553
    C   C4   0.988363  0.499365  0.324117  0.919137
    C   C5   0.021371  0.502764  0.784691  -0.352303
    C   C6   0.017238  0.502148  0.867536  0.140080
    C   C7   0.007856  0.501777  0.963457  -0.049152
    C   C8   0.998737  0.501542  0.044986  -0.044624
    C   C9   0.989422  0.501169  0.140924  0.140898
    C   C10  0.985409  0.500584  0.223787  -0.348276
    C   C11  0.270823  0.009866  0.382666  -0.268791
    H   H1   0.091731  0.876436  0.378715  0.122863
    H   H2   0.439926  0.202605  0.330016  0.139703
    H   H3   0.236521  0.066230  0.333317  0.130567
    C   C12  0.232267  0.828814  0.467757  -0.133864
    C   C13  0.821617  0.101111  0.593321  -0.097803
    C   C14  0.746560  0.991286  0.617754  -0.092612
    C   C15  0.622030  0.949040  0.582536  -0.212786
    C   C16  0.569783  0.015351  0.517805  0.109493
    C   C17  0.647981  0.126159  0.489437  0.150055
    C   C18  0.441802  0.974171  0.480776  -0.147439
    C   C19  0.395974  0.044740  0.417009  0.351051
    C   C20  0.475109  0.150053  0.384010  -0.283969
    C   C21  0.599702  0.189176  0.417348  -0.181822
    C   C22  0.357469  0.864429  0.504411  -0.006306
    C   C23  0.188775  0.902785  0.408745  -0.089429
    C   C24  0.773723  0.170704  0.531321  -0.117041
    H   H4   0.385419  0.803280  0.550936  0.113826
    H   H5   0.917765  0.132679  0.626452  0.120202
    H   H6   0.570244  0.863041  0.608117  0.142193
    H   H7   0.785009  0.938169  0.667663  0.105988
    H   H8   0.656906  0.269099  0.382968  0.145401
    C   C25  0.349988  0.329740  0.648220  -0.116161
    H   H9   0.171812  0.311041  0.661499  0.150968
    H   H10  0.563964  0.308699  0.689427  0.127831
    N   N1   0.247841  0.437407  0.551373  -0.035331
    C   C26  0.757664  0.642301  0.383362  -0.039102
    C   C27  0.658338  0.670088  0.353827  -0.129882
    C   C28  0.556377  0.616390  0.399586  -0.135096
    C   C29  0.553325  0.533397  0.476662  0.087613
    C   C30  0.656935  0.508337  0.504957  0.168877
    C   C31  0.449919  0.474201  0.525717  -0.090358
    C   C32  0.451404  0.389844  0.600250  0.259069
    C   C33  0.555815  0.369163  0.628861  -0.235778
    C   C34  0.655875  0.427241  0.582382  -0.150182
    C   C35  0.344643  0.496881  0.503394  -0.047914
    C   C36  0.250184  0.356800  0.623640  -0.078513
    N   N2   0.757912  0.563630  0.458654  -0.053011
    H   H11  0.336251  0.561920  0.448344  0.117347
    H   H12  0.835828  0.684404  0.345058  0.154802
    H   H13  0.481790  0.641823  0.371225  0.133504
    H   H14  0.659741  0.733781  0.293435  0.116904
    H   H15  0.732451  0.405812  0.610530  0.169019
    C   C37  0.343493  0.236519  0.724429  0.172498
    C   C38  0.339885  0.139214  0.703843  -0.136021
    C   C39  0.329259  0.050339  0.775046  0.072656
    Cl  Cl1  0.325834  0.927636  0.748840  -0.097672
    C   C40  0.320649  0.057799  0.866727  -0.104829
    C   C41  0.321855  0.153903  0.887073  -0.112555
    C   C42  0.332428  0.242840  0.815930  -0.182825
    H   H16  0.345066  0.132423  0.631771  0.109670
    H   H17  0.312113  0.988030  0.922486  0.106414
    H   H18  0.314197  0.159444  0.958811  0.123395
    H   H19  0.333041  0.317888  0.832305  0.118112
