# Generated by REPEAT Assigner based on pymatgen
data_DB0-m29_o82_o45_f0_pts.sym.5
_audit_creation_date              2022-05-24
_audit_creation_method            REPEAT_Assigner
_cell_length_a                    14.319914
_cell_length_b                    9.384058
_cell_length_c                    17.708917
_cell_angle_alpha                 89.177228
_cell_angle_beta                  90.971203
_cell_angle_gamma                 109.811522
_cell_volume                      2238.440785
_symmetry_space_group_name_H-M    P1
_symmetry_Int_Tables_number       1
loop_
    _symmetry_equiv_pos_site_id
    _symmetry_equiv_pos_as_xyz
    1  x,y,z
loop_
    _atom_site_type_symbol
    _atom_site_label
    _atom_site_fract_x
    _atom_site_fract_y
    _atom_site_fract_z
    _atom_type_partial_charge
    C   C1   0.232869  0.924072  0.898643  0.194885
    C   C2   0.135923  0.877814  0.871373  -0.108677
    C   C3   0.061871  0.899014  0.913478  0.004437
    C   C4   0.915322  0.054182  0.912557  -0.162007
    C   C5   0.250335  0.972005  0.973127  -0.229244
    C   C6   0.175410  0.996440  0.014515  0.107249
    C   C7   0.082881  0.974385  0.981724  0.063146
    C   C8   0.010670  0.012433  0.021621  -0.105470
    C   C9   0.826086  0.051790  0.881201  -0.153321
    C   C10  0.742972  0.017650  0.925191  0.103049
    C   C11  0.922966  0.022739  0.988879  0.171633
    C   C12  0.844584  0.019552  0.034822  0.030357
    C   C13  0.752357  0.006155  0.002794  -0.064154
    C   C14  0.192529  0.041869  0.089081  -0.074970
    C   C15  0.117078  0.057049  0.131032  -0.190001
    C   C16  0.026688  0.041109  0.097990  0.233571
    C   C17  0.953024  0.056751  0.142231  -0.252148
    C   C18  0.861282  0.039352  0.111877  -0.054086
    H   H1   0.986923  0.850239  0.892132  0.068515
    H   H2   0.979026  0.086541  0.876273  0.137189
    H   H3   0.820572  0.068445  0.820992  0.145106
    H   H4   0.262516  0.059870  0.117923  0.078315
    H   H5   0.130049  0.084723  0.190200  0.128707
    H   H6   0.966146  0.079558  0.201851  0.157974
    H   H7   0.807462  0.055565  0.149459  0.103782
    O   O1   0.600502  0.049392  0.032720  -0.476816
    C   C19  0.665178  0.982565  0.050213  0.497600
    O   O2   0.456241  0.697920  0.100001  -0.419828
    O   O3   0.651042  0.893280  0.109640  -0.434947
    O   O4   0.485380  0.867034  0.194959  -0.468356
    C   C20  0.467552  0.727347  0.172474  0.456643
    Fe  Fe1  0.494583  0.007563  0.108666  1.353851
    O   O5   0.365367  0.905078  0.054670  -0.568737
    O   O6   0.413288  0.141727  0.003548  -0.487102
    C   C21  0.348277  0.004347  0.008264  0.760083
    O   O7   0.522278  0.214728  0.151603  -0.608474
    O   O8   0.419686  0.082746  0.244459  -0.487034
    C   C22  0.472661  0.212084  0.213524  0.603662
    O   O9   0.450354  0.751553  0.750399  -0.575977
    O   O10  0.540329  0.867157  0.648394  -0.500029
    C   C23  0.487754  0.743328  0.684129  0.570486
    O   O11  0.633216  0.060745  0.828923  -0.567682
    O   O12  0.570876  0.866390  0.911688  -0.437820
    C   C24  0.645230  0.984076  0.888770  0.526661
    O   O13  0.301929  0.926143  0.774905  -0.420387
    O   O14  0.494124  0.098527  0.701420  -0.441989
    C   C25  0.477935  0.219715  0.725603  0.454772
    O   O15  0.403867  0.941848  0.874936  -0.420341
    C   C26  0.314639  0.924963  0.848404  0.419230
    O   O16  0.467269  0.234218  0.798231  -0.465433
    Fe  Fe2  0.494278  0.964639  0.788824  1.377111
    C   C27  0.475276  0.341066  0.673146  0.210832
    C   C28  0.476078  0.322921  0.595790  -0.387782
    H   H8   0.475550  0.216688  0.572667  0.185421
    C   C29  0.476699  0.439966  0.547102  0.420909
    C   C30  0.480625  0.578247  0.576354  -0.195629
    H   H9   0.484579  0.674665  0.540837  0.104075
    C   C31  0.478579  0.595660  0.653308  0.106926
    C   C32  0.473790  0.476663  0.701490  -0.255898
    N   N1   0.474678  0.416249  0.468255  -0.143144
    N   N2   0.468240  0.526002  0.430882  -0.203565
    C   C33  0.466555  0.621758  0.304179  -0.285826
    C   C34  0.468659  0.606215  0.226231  0.272433
    C   C35  0.473283  0.472438  0.197687  -0.357015
    C   C36  0.471730  0.354112  0.245246  0.177633
    C   C37  0.467213  0.368236  0.322122  -0.366843
    H   H10  0.466137  0.272399  0.357108  0.154282
    C   C38  0.467101  0.503872  0.351956  0.533963
    H   H11  0.474428  0.493247  0.761753  0.177564
    H   H12  0.475920  0.457751  0.137476  0.224350
    Cl  Cl1  0.101253  0.784047  0.784924  0.008348
    Cl  Cl2  0.461525  0.787635  0.345614  0.045983
