# generated using pymatgen
data_Fe2H20C45(NO8)2
_symmetry_space_group_name_H-M   'P 1'
_cell_length_a   13.43712200
_cell_length_b   14.46407600
_cell_length_c   11.37874400
_cell_angle_alpha   94.31947700
_cell_angle_beta   85.85413200
_cell_angle_gamma   107.89217100
_symmetry_Int_Tables_number   1
_chemical_formula_structural   Fe2H20C45(NO8)2
_chemical_formula_sum   'Fe2 H20 C45 N2 O16'
_cell_volume   2095.76949646
_cell_formula_units_Z   1
loop_
 _symmetry_equiv_pos_site_id
 _symmetry_equiv_pos_as_xyz
  1  'x, y, z'
loop_
 _atom_site_type_symbol
 _atom_site_label
 _atom_site_symmetry_multiplicity
 _atom_site_fract_x
 _atom_site_fract_y
 _atom_site_fract_z
 _atom_site_occupancy
  Fe  Fe1  1  0.50846800  0.00083600  0.25874200  1
  Fe  Fe2  1  0.49798700  0.00627700  0.74236000  1
  H  H1  1  0.19043700  0.00478800  0.25803500  1
  H  H2  1  0.02516300  0.01773400  0.20940000  1
  H  H3  1  0.11747900  0.00162000  0.84193000  1
  H  H4  1  0.01101000  0.08731800  0.82668000  1
  H  H5  1  0.84112700  0.08080600  0.76687500  1
  H  H6  1  0.86990200  0.95516300  0.14724800  1
  H  H7  1  0.44707200  0.62959200  0.27835800  1
  H  H8  1  0.55142000  0.71211200  0.68568100  1
  H  H9  1  0.54524200  0.37276800  0.72452700  1
  H  H10  1  0.45072100  0.29324600  0.31373500  1
  H  H11  1  0.26126000  0.43251500  0.34448200  1
  H  H12  1  0.28889400  0.35308100  0.98363000  1
  H  H13  1  0.56084400  0.45572100  0.17586000  1
  H  H14  1  0.35932700  0.45908200  0.78998200  1
  H  H15  1  0.37215800  0.58378000  0.76093300  1
  H  H16  1  0.35300200  0.54635700  0.90970500  1
  H  H17  1  0.50193900  0.60550400  0.01534100  1
  H  H18  1  0.69075600  0.64382100  0.03280000  1
  H  H19  1  0.80417300  0.62445400  0.85933900  1
  H  H20  1  0.72819800  0.56857400  0.66714900  1
  C  C1  1  0.17434100  0.00329900  0.16609100  1
  C  C2  1  0.07930500  0.00987800  0.13752000  1
  C  C3  1  0.05713000  0.01048000  0.02070600  1
  C  C4  1  0.13407900  0.00599500  0.93376600  1
  C  C5  1  0.23268900  0.00562300  0.96220300  1
  C  C6  1  0.25196400  0.00307200  0.08043100  1
  C  C7  1  0.94418600  0.05637000  0.88533900  1
  C  C8  1  0.84747600  0.05588500  0.85239800  1
  C  C9  1  0.75928900  0.02047500  0.92500000  1
  C  C10  1  0.76952500  0.99160500  0.03606100  1
  C  C11  1  0.86547400  0.98509700  0.06468600  1
  C  C12  1  0.95395000  0.01657400  0.98938200  1
  C  C13  1  0.68355200  0.97621300  0.12792100  1
  C  C14  1  0.47935600  0.81586100  0.33885300  1
  C  C15  1  0.35494200  0.01097000  0.12126200  1
  C  C16  1  0.47706600  0.14959700  0.40541400  1
  C  C17  1  0.52628900  0.85613700  0.59376700  1
  C  C18  1  0.65655100  0.00434700  0.87730900  1
  C  C19  1  0.51712300  0.18747100  0.66161100  1
  C  C20  1  0.31297600  0.00765700  0.86537600  1
  C  C21  1  0.46798100  0.64514300  0.36900800  1
  C  C22  1  0.48536600  0.73979000  0.41586400  1
  C  C23  1  0.51206400  0.76061300  0.53285300  1
  C  C24  1  0.52755100  0.68986700  0.59688400  1
  C  C25  1  0.51275900  0.59569000  0.54937300  1
  C  C26  1  0.48046300  0.57260000  0.43537200  1
  C  C27  1  0.52927200  0.52499700  0.61561700  1
  C  C28  1  0.51420300  0.43074300  0.56698600  1
  C  C29  1  0.48350400  0.40810800  0.45233300  1
  C  C30  1  0.46389900  0.47800200  0.38747500  1
  C  C31  1  0.52638000  0.35796000  0.63319300  1
  C  C32  1  0.51167300  0.26400400  0.58504100  1
  C  C33  1  0.48873700  0.24438500  0.46697700  1
  C  C34  1  0.47228800  0.31490000  0.40334400  1
  C  C35  1  0.30983800  0.42549100  0.26642300  1
  C  C36  1  0.32539500  0.38081400  0.06596700  1
  C  C37  1  0.47688300  0.43851100  0.17246000  1
  C  C38  1  0.41677900  0.44890800  0.27300800  1
  C  C39  1  0.57120900  0.55271700  0.73302400  1
  C  C40  1  0.50683900  0.56184300  0.83125700  1
  C  C41  1  0.39111400  0.53625600  0.82208600  1
  C  C42  1  0.55059400  0.59574600  0.93848400  1
  C  C43  1  0.65707500  0.61777100  0.94858800  1
  C  C44  1  0.72062800  0.60686800  0.85145700  1
  C  C45  1  0.67783900  0.57505300  0.74380000  1
  N  N1  1  0.26576600  0.39186800  0.16307400  1
  N  N2  1  0.43011900  0.40391000  0.07074500  1
  O  O1  1  0.60905900  0.01660800  0.12033000  1
  O  O2  1  0.46226800  0.79435700  0.22649900  1
  O  O3  1  0.68966900  0.93544300  0.22516000  1
  O  O4  1  0.50018900  0.90683300  0.37959700  1
  O  O5  1  0.36443200  0.95034800  0.19702300  1
  O  O6  1  0.43367600  0.08904300  0.10000200  1
  O  O7  1  0.55540000  0.13412200  0.33928800  1
  O  O8  1  0.38569000  0.08227800  0.40925400  1
  O  O9  1  0.45131900  0.87133300  0.66599800  1
  O  O10  1  0.61671800  0.92422800  0.58313300  1
  O  O11  1  0.64394400  0.06081900  0.79830800  1
  O  O12  1  0.58006800  0.92531900  0.90151500  1
  O  O13  1  0.29620400  0.02604900  0.75863800  1
  O  O14  1  0.50019200  0.09709100  0.61977400  1
  O  O15  1  0.40139000  0.99168000  0.88435700  1
  O  O16  1  0.53191000  0.20818700  0.77452500  1
