# Generated by REPEAT Assigner based on pymatgen
data_DB0-m2_o9_o27_f0_pcu.sym.57_sqe
_audit_creation_date              2022-05-24
_audit_creation_method            REPEAT_Assigner
_cell_length_a                    10.878604
_cell_length_b                    19.313966
_cell_length_c                    17.777735
_cell_angle_alpha                 89.972826
_cell_angle_beta                  89.997851
_cell_angle_gamma                 89.992177
_cell_volume                      3735.261487
_symmetry_space_group_name_H-M    P1
_symmetry_Int_Tables_number       1
loop_
    _symmetry_equiv_pos_site_id
    _symmetry_equiv_pos_as_xyz
    1  x,y,z
loop_
    _atom_site_type_symbol
    _atom_site_label
    _atom_site_fract_x
    _atom_site_fract_y
    _atom_site_fract_z
    _atom_type_partial_charge
    O   O1   0.495339  0.396851  0.560299  -0.574579
    O   O2   0.514442  0.603400  0.442296  -0.524628
    O   O3   0.505542  0.402449  0.431579  -0.549932
    O   O4   0.506500  0.597723  0.570566  -0.503849
    C   C1   0.497623  0.366581  0.493986  0.673367
    C   C2   0.510014  0.633556  0.508324  0.600786
    O   O5   0.326693  0.502773  0.565762  -0.533906
    O   O6   0.684652  0.497832  0.436596  -0.583129
    O   O7   0.327417  0.503102  0.436727  -0.525857
    O   O8   0.683792  0.496371  0.565573  -0.560235
    C   C3   0.268965  0.504774  0.500887  0.631145
    C   C4   0.742218  0.495213  0.501464  0.703806
    Cu  Cu1  0.505242  0.496947  0.576153  0.789580
    Cu  Cu2  0.506014  0.503031  0.426179  0.774954
    H   H1   0.254582  0.670502  0.210640  0.081388
    H   H2   0.762876  0.333092  0.795291  0.091791
    C   C5   0.236768  0.663861  0.330088  -0.197094
    C   C6   0.781508  0.336809  0.675749  -0.158431
    H   H3   0.290146  0.710108  0.340292  0.123708
    H   H4   0.732137  0.289023  0.666893  0.125950
    C   C7   0.188317  0.627237  0.389725  -0.025221
    C   C8   0.827471  0.372912  0.615060  -0.103444
    H   H5   0.203282  0.645450  0.446411  0.051302
    H   H6   0.814277  0.352940  0.558902  0.093225
    C   C9   0.120148  0.568047  0.377026  0.030630
    C   C10  0.891479  0.433861  0.626233  0.104552
    C   C11  0.098526  0.546561  0.304134  -0.062958
    C   C12  0.911476  0.457511  0.698493  -0.143163
    H   H7   0.044719  0.500606  0.293550  0.083747
    H   H8   0.962611  0.504748  0.707885  0.108584
    C   C13  0.147175  0.583129  0.244445  -0.179530
    C   C14  0.864711  0.421565  0.759119  -0.122823
    H   H9   0.130801  0.565837  0.187438  0.109586
    H   H10  0.879652  0.440517  0.815640  0.102216
    C   C15  0.216474  0.641735  0.257420  -0.028122
    C   C16  0.799414  0.361312  0.747721  -0.079541
    C   C17  0.938205  0.523800  0.441045  -0.145052
    C   C18  0.072880  0.476989  0.561275  -0.204781
    H   H11  0.885673  0.544968  0.394848  0.104593
    H   H12  0.125102  0.455129  0.607028  0.110714
    C   C19  0.877678  0.494793  0.501666  -0.125884
    C   C20  0.133551  0.505870  0.500712  -0.039390
    C   C21  0.946429  0.470759  0.562394  0.103749
    C   C22  0.064699  0.530495  0.440275  0.060014
    C   C23  0.506431  0.254851  0.559219  -0.070572
    C   C24  0.547786  0.745224  0.447341  -0.074227
    H   H13  0.511186  0.282683  0.611762  0.103713
    H   H14  0.574876  0.717354  0.397393  0.086381
    C   C25  0.511259  0.183741  0.562316  0.059221
    C   C26  0.551376  0.816496  0.445089  0.081974
    H   H15  0.519006  0.158862  0.616492  0.034755
    H   H16  0.580090  0.841561  0.393653  0.032009
    C   C27  0.508553  0.145363  0.497228  -0.507982
    C   C28  0.519558  0.854705  0.507620  -0.484081
    C   C29  0.497517  0.178726  0.428924  0.131358
    C   C30  0.483401  0.820605  0.572149  0.052577
    H   H17  0.494075  0.146874  0.379519  -0.053943
    H   H18  0.455295  0.850458  0.620533  0.025260
    C   C31  0.489094  0.250687  0.424333  0.107262
    C   C32  0.476909  0.748991  0.574975  0.047540
    C   C33  0.497018  0.289667  0.491143  -0.138668
    C   C34  0.511175  0.710198  0.511529  -0.095340
    N   N1   0.530707  0.032415  0.436796  -0.300813
    N   N2   0.503889  0.967728  0.568674  -0.343982
    N   N3   0.533639  0.964035  0.439268  -0.373756
    N   N4   0.501512  0.036121  0.566237  -0.343458
    C   C35  0.519928  0.930806  0.505217  0.928515
    C   C36  0.514408  0.069365  0.500214  0.915571
    C   C37  0.593140  0.543894  0.275287  -0.125433
    C   C38  0.422889  0.454034  0.726485  -0.030296
    H   H19  0.662792  0.572892  0.305202  0.161508
    H   H20  0.357041  0.423022  0.696095  0.117612
    C   C39  0.593343  0.543639  0.197468  0.142376
    C   C40  0.421127  0.454671  0.804173  0.075865
    H   H21  0.664041  0.571915  0.167799  0.017380
    H   H22  0.353665  0.423474  0.833279  0.030434
    C   C41  0.505181  0.506226  0.158895  -0.504855
    C   C42  0.504463  0.494978  0.843403  -0.421872
    C   C43  0.418045  0.470387  0.199631  0.123890
    C   C44  0.589644  0.532883  0.803390  -0.029600
    H   H23  0.347931  0.439970  0.172087  -0.004842
    H   H24  0.657344  0.564602  0.831306  0.034209
    C   C45  0.420727  0.471747  0.276950  0.114717
    C   C46  0.588422  0.531233  0.725966  0.256345
    H   H25  0.352861  0.442817  0.307979  0.060269
    H   H26  0.654420  0.562334  0.695359  0.033328
    N   N5   0.506891  0.508722  0.313780  -0.031690
    N   N6   0.505723  0.492228  0.688590  -0.083172
    N   N7   0.419688  0.465359  0.039939  -0.313556
    N   N8   0.587557  0.536598  0.962241  -0.309591
    N   N9   0.419139  0.462566  0.965633  -0.346625
    N   N10  0.588184  0.539355  0.036526  -0.343809
    C   C47  0.503416  0.498136  0.925886  0.889186
    C   C48  0.504235  0.503675  0.076327  0.907160
    C   C49  0.469552  0.285360  0.348798  -0.269654
    C   C50  0.445122  0.236622  0.283142  0.280573
    C   C51  0.416136  0.278384  0.213029  -0.414636
    H   H27  0.331766  0.309513  0.222080  0.115931
    H   H28  0.494299  0.313093  0.199570  0.090571
    H   H29  0.400790  0.242553  0.165226  0.081257
    H   H30  0.527979  0.204914  0.271286  -0.003240
    H   H31  0.364729  0.203151  0.295567  -0.016611
    H   H32  0.387937  0.319448  0.353170  0.084400
    H   H33  0.552310  0.316137  0.334328  0.093409
    C   C52  0.427234  0.718326  0.646391  -0.071720
    C   C53  0.295927  0.693185  0.635352  0.245077
    C   C54  0.247443  0.662956  0.708291  -0.353566
    H   H34  0.305722  0.618654  0.725688  0.062166
    H   H35  0.248128  0.703050  0.752908  0.078733
    H   H36  0.151899  0.644651  0.699626  0.076411
    H   H37  0.237380  0.737586  0.618533  -0.042172
    H   H38  0.290940  0.653132  0.590984  -0.003606
    H   H39  0.487932  0.677370  0.668813  -0.009655
    H   H40  0.424917  0.758734  0.690569  0.050241
