# Generated by REPEAT Assigner based on pymatgen
data_DB0-m29_o90_o101_f0_pts.sym.90
_audit_creation_date              2022-05-24
_audit_creation_method            REPEAT_Assigner
_cell_length_a                    16.597291
_cell_length_b                    17.271220
_cell_length_c                    11.069565
_cell_angle_alpha                 109.213568
_cell_angle_beta                  95.438185
_cell_angle_gamma                 107.262913
_cell_volume                      2795.512856
_symmetry_space_group_name_H-M    P1
_symmetry_Int_Tables_number       1
loop_
    _symmetry_equiv_pos_site_id
    _symmetry_equiv_pos_as_xyz
    1  x,y,z
loop_
    _atom_site_type_symbol
    _atom_site_label
    _atom_site_fract_x
    _atom_site_fract_y
    _atom_site_fract_z
    _atom_type_partial_charge
    C   C1   0.795235  0.000611  0.145909  -0.187207
    C   C2   0.714823  0.994631  0.087680  0.054229
    C   C3   0.704608  0.005399  0.968934  -0.022162
    C   C4   0.774774  0.018401  0.909040  -0.329547
    C   C5   0.847853  0.002860  0.953085  0.411081
    C   C6   0.857893  0.992418  0.071911  0.160503
    C   C7   0.912307  0.000091  0.881808  -0.524599
    C   C8   0.989176  0.996978  0.935820  0.341423
    C   C9   0.993218  0.971113  0.040377  0.351560
    C   C10  0.928025  0.970326  0.111153  -0.328892
    C   C11  0.059388  0.013181  0.877792  -0.355884
    C   C12  0.133280  0.999267  0.920980  0.203669
    C   C13  0.136650  0.971629  0.024280  0.337908
    C   C14  0.062801  0.946908  0.072030  -0.481532
    C   C15  0.202685  0.009418  0.859575  -0.122172
    C   C16  0.280969  0.010536  0.917820  -0.003049
    C   C17  0.287909  0.994095  0.032506  0.073381
    C   C18  0.214247  0.970575  0.081945  -0.271833
    O   O1   0.583153  0.016109  0.146193  -0.664926
    C   C19  0.644887  0.984731  0.160526  0.584424
    O   O2   0.458172  0.819478  0.144855  -0.425573
    O   O3   0.644070  0.943508  0.241159  -0.471653
    O   O4   0.499022  0.915641  0.353445  -0.511177
    C   C20  0.475799  0.834471  0.270025  0.481606
    Fe  Fe1  0.505372  0.000964  0.268020  1.490365
    O   O5   0.383896  0.955624  0.164260  -0.563586
    O   O6   0.440155  0.075580  0.116406  -0.390815
    C   C21  0.373405  0.008099  0.105883  0.589307
    O   O7   0.552327  0.120394  0.410769  -0.612405
    O   O8   0.409791  0.092120  0.411465  -0.542291
    C   C22  0.490347  0.144074  0.458852  0.443525
    O   O9   0.450476  0.888375  0.589792  -0.636109
    O   O10  0.595266  0.917292  0.611714  -0.537389
    C   C23  0.515774  0.865810  0.552495  0.507751
    O   O11  0.609445  0.052541  0.850851  -0.663773
    O   O12  0.552200  0.927751  0.885982  -0.446162
    C   C24  0.619242  0.996553  0.902321  0.844418
    O   O13  0.366379  0.083333  0.796716  -0.423266
    O   O14  0.498059  0.093927  0.658376  -0.465350
    C   C25  0.530066  0.175890  0.740733  0.551240
    O   O15  0.407389  0.982624  0.850023  -0.579642
    C   C26  0.354468  0.026363  0.853478  0.501466
    O   O16  0.555616  0.192086  0.864931  -0.432514
    Fe  Fe2  0.490495  0.005406  0.737934  1.439208
    C   C27  0.510331  0.230535  0.559853  0.440903
    C   C28  0.506394  0.295499  0.515934  -0.405671
    C   C29  0.523773  0.379474  0.602255  0.027212
    C   C30  0.547501  0.398742  0.734527  -0.206409
    C   C31  0.551149  0.334373  0.781016  0.175284
    C   C32  0.531542  0.247995  0.693905  -0.220256
    N   N1   0.580732  0.523490  0.589588  -0.347511
    N   N2   0.573879  0.582492  0.541500  -0.366309
    C   C33  0.502089  0.565859  0.455264  0.836550
    N   N3   0.437229  0.488715  0.418106  -0.349549
    N   N4   0.444102  0.429707  0.466102  -0.337397
    C   C34  0.515804  0.446374  0.552474  0.820575
    C   C35  0.467500  0.613509  0.274652  -0.219181
    C   C36  0.460035  0.677134  0.229006  0.162398
    C   C37  0.477295  0.762930  0.316674  -0.134563
    C   C38  0.500014  0.780484  0.450627  0.359777
    C   C39  0.508645  0.716331  0.493517  -0.358400
    C   C40  0.493185  0.632943  0.406514  0.003076
    I   I1   0.827912  0.060525  0.353998  0.119530
    I   I2   0.571509  0.525459  0.872161  0.066922
    I   I3   0.583556  0.378602  0.987892  0.079605
    I   I4   0.445362  0.487542  0.136072  0.082266
    I   I5   0.422658  0.631717  0.022429  0.087543
    I   I6   0.536970  0.746055  0.696535  0.167161
    I   I7   0.775058  0.075690  0.765895  0.231325
    I   I8   0.881111  0.949142  0.673694  0.144578
    I   I9   0.067581  0.101900  0.780766  0.045187
    I   I10  0.181988  0.989559  0.657562  0.030906
    I   I11  0.224982  0.961927  0.268985  0.225445
    I   I12  0.037429  0.827662  0.103626  0.104005
    I   I13  0.938674  0.937661  0.279354  0.193171
    I   I14  0.479995  0.264661  0.312419  0.168272
