# Generated by REPEAT Assigner based on pymatgen
data_DB0-m3_o11_o20_f0_pcu.sym.18
_audit_creation_date              2022-05-24
_audit_creation_method            REPEAT_Assigner
_cell_length_a                    14.534699
_cell_length_b                    11.136094
_cell_length_c                    9.925820
_cell_angle_alpha                 89.997371
_cell_angle_beta                  89.983024
_cell_angle_gamma                 90.000000
_cell_volume                      1606.590919
_symmetry_space_group_name_H-M    P1
_symmetry_Int_Tables_number       1
loop_
    _symmetry_equiv_pos_site_id
    _symmetry_equiv_pos_as_xyz
    1  x,y,z
loop_
    _atom_site_type_symbol
    _atom_site_label
    _atom_site_fract_x
    _atom_site_fract_y
    _atom_site_fract_z
    _atom_type_partial_charge
    O   O1   0.500014  0.325597  0.615417  -0.693405
    O   O2   0.500525  0.323816  0.382677  -0.663523
    C   C1   0.499994  0.268709  0.499453  0.771855
    O   O3   0.362977  0.504858  0.609663  -0.677301
    O   O4   0.362793  0.502234  0.376755  -0.700724
    C   C2   0.320193  0.503449  0.493291  0.975472
    Zn  Zn1  0.500103  0.505458  0.646263  1.067703
    Zn  Zn2  0.499807  0.501554  0.339204  1.055360
    O   O5   0.500200  0.682978  0.602735  -0.668325
    O   O6   0.500399  0.681666  0.369946  -0.655697
    O   O7   0.637057  0.504248  0.608265  -0.651563
    O   O8   0.636950  0.502311  0.375601  -0.662168
    C   C3   0.500026  0.738248  0.486450  0.721990
    C   C4   0.679729  0.503103  0.491878  0.875423
    C   C5   0.221465  0.503403  0.493389  -0.345214
    C   C6   0.138560  0.503349  0.493205  0.142314
    C   C7   0.041414  0.503275  0.492805  -0.046605
    C   C8   0.958509  0.503207  0.492422  -0.036088
    C   C9   0.861363  0.503130  0.492026  0.116255
    C   C10  0.778458  0.503089  0.491834  -0.305813
    C   C11  0.500013  0.939188  0.382630  -0.046995
    C   C12  0.500197  0.869644  0.492326  -0.260427
    H   H1   0.499788  0.897394  0.284039  0.108836
    H   H2   0.500457  0.907238  0.592418  0.159302
    C   C13  0.500100  0.072274  0.387787  -0.025481
    C   C14  0.500003  0.137051  0.501957  -0.284545
    H   H3   0.500167  0.118417  0.291720  0.107960
    H   H4   0.499817  0.095970  0.600363  0.155547
    C   C15  0.556557  0.572374  0.924772  0.058655
    N   N1   0.501085  0.512841  0.847928  -0.310853
    H   H5   0.441385  0.484913  0.893728  0.250278
    C   C16  0.537029  0.582889  0.071229  0.120584
    N   N2   0.500633  0.496255  0.137728  -0.278053
    H   H6   0.557510  0.662330  0.126019  0.141338
    H   H7   0.492644  0.416543  0.086863  0.253847
    C   C17  0.641234  0.630328  0.866212  0.240775
    C   C18  0.693652  0.708875  0.965004  -0.350131
    H   H8   0.650471  0.785793  0.997285  0.078567
    H   H9   0.716961  0.655411  0.052914  0.084942
    H   H10  0.755416  0.745154  0.913539  0.096313
    H   H11  0.688983  0.558646  0.833315  0.043514
    H   H12  0.621916  0.687108  0.779432  0.036081
