# generated using pymatgen
data_ZnH16C26NO4
_symmetry_space_group_name_H-M   'P 1'
_cell_length_a   8.54315300
_cell_length_b   11.32980300
_cell_length_c   17.47202900
_cell_angle_alpha   90.85595300
_cell_angle_beta   90.07517900
_cell_angle_gamma   107.88612300
_symmetry_Int_Tables_number   1
_chemical_formula_structural   ZnH16C26NO4
_chemical_formula_sum   'Zn2 H32 C52 N2 O8'
_cell_volume   1609.21069670
_cell_formula_units_Z   2
loop_
 _symmetry_equiv_pos_site_id
 _symmetry_equiv_pos_as_xyz
  1  'x, y, z'
loop_
 _atom_site_type_symbol
 _atom_site_label
 _atom_site_symmetry_multiplicity
 _atom_site_fract_x
 _atom_site_fract_y
 _atom_site_fract_z
 _atom_site_occupancy
  Zn  Zn1  1  0.00359600  0.49420600  0.91447700  1
  Zn  Zn2  1  0.99948600  0.50733200  0.08530700  1
  H  H1  1  0.71948600  0.02447600  0.05023600  1
  H  H2  1  0.28358300  0.97706000  0.94955100  1
  H  H3  1  0.06161500  0.89093100  0.01982600  1
  H  H4  1  0.94145300  0.11059500  0.97996700  1
  H  H5  1  0.54011600  0.58901500  0.96563800  1
  H  H6  1  0.46294600  0.41252300  0.03414500  1
  H  H7  1  0.42656600  0.90691800  0.04804800  1
  H  H8  1  0.57650500  0.09462500  0.95172900  1
  H  H9  1  0.91161700  0.29466700  0.80344400  1
  H  H10  1  0.09696600  0.70650400  0.19635000  1
  H  H11  1  0.85527800  0.18661100  0.68194000  1
  H  H12  1  0.15625400  0.81434100  0.31781500  1
  H  H13  1  0.15521500  0.79621500  0.69977300  1
  H  H14  1  0.83994500  0.20576600  0.29999100  1
  H  H15  1  0.79741500  0.08287700  0.56426100  1
  H  H16  1  0.21592900  0.91785400  0.43544500  1
  H  H17  1  0.10125100  0.68328500  0.81151800  1
  H  H18  1  0.89693800  0.31849700  0.18831300  1
  H  H19  1  0.67488700  0.06028600  0.36419000  1
  H  H20  1  0.95707500  0.96263800  0.40941500  1
  H  H21  1  0.99813000  0.09532800  0.34917700  1
  H  H22  1  0.85044500  0.94979900  0.31918700  1
  H  H23  1  0.74340300  0.90921800  0.49575700  1
  H  H24  1  0.60282700  0.86048900  0.41671500  1
  H  H25  1  0.56676100  0.96617500  0.48720800  1
  H  H26  1  0.13386000  0.95427700  0.63517000  1
  H  H27  1  0.49367700  0.03588500  0.60733500  1
  H  H28  1  0.41583200  0.87443600  0.63211100  1
  H  H29  1  0.38104700  0.99293200  0.69462900  1
  H  H30  1  0.35497600  0.08260300  0.50427900  1
  H  H31  1  0.28043700  0.15123700  0.58409100  1
  H  H32  1  0.13614800  0.06215900  0.51411700  1
  C  C1  1  0.57970100  0.68589100  0.98189400  1
  C  C2  1  0.42336500  0.31564600  0.01788900  1
  C  C3  1  0.74487500  0.74703100  0.99105700  1
  C  C4  1  0.25818800  0.25449900  0.00873600  1
  C  C5  1  0.79751900  0.87202800  0.00951500  1
  C  C6  1  0.20555000  0.12950200  0.99027800  1
  C  C7  1  0.68152100  0.92972300  0.02928400  1
  C  C8  1  0.32154900  0.07181400  0.97050200  1
  C  C9  1  0.51565400  0.86367600  0.02812000  1
  C  C10  1  0.48741700  0.13786600  0.97165800  1
  C  C11  1  0.46428200  0.74294000  0.00095100  1
  C  C12  1  0.53878900  0.25860400  0.99882500  1
  C  C13  1  0.97443500  0.94061400  0.00862300  1
  C  C14  1  0.02863500  0.06091400  0.99117200  1
  C  C15  1  0.29121100  0.66764800  0.00104000  1
  C  C16  1  0.71186300  0.33389600  0.99873800  1
  C  C17  1  0.14737400  0.32980000  0.00624300  1
  C  C18  1  0.85568000  0.67172400  0.99354600  1
  C  C19  1  0.95525600  0.38161200  0.77376100  1
  C  C20  1  0.05143200  0.61968300  0.22602600  1
  C  C21  1  0.06111700  0.59806900  0.77823500  1
  C  C22  1  0.93945800  0.40361400  0.22156900  1
  C  C23  1  0.89804600  0.27405100  0.65273500  1
  C  C24  1  0.11233800  0.72697000  0.34702500  1
  C  C25  1  0.95419900  0.38302500  0.69460200  1
  C  C26  1  0.05356500  0.61818000  0.30517500  1
  C  C27  1  0.00799600  0.49423800  0.65731600  1
  C  C28  1  0.99769100  0.50708200  0.34246300  1
  C  C29  1  0.06192700  0.60220400  0.69946900  1
  C  C30  1  0.93986500  0.39939100  0.30033000  1
  C  C31  1  0.11548700  0.71470000  0.66361300  1
  C  C32  1  0.88376600  0.28702500  0.33618400  1
  C  C33  1  0.83654500  0.16743300  0.53240300  1
  C  C34  1  0.17194400  0.83368600  0.46740800  1
  C  C35  1  0.89491400  0.27687900  0.57372400  1
  C  C36  1  0.11430800  0.72418900  0.42604900  1
  C  C37  1  0.94904300  0.38847000  0.53659500  1
  C  C38  1  0.05870500  0.61265100  0.46316100  1
  C  C39  1  0.83028900  0.16756500  0.45298000  1
  C  C40  1  0.17294800  0.83379400  0.54690900  1
  C  C41  1  0.88632800  0.28095000  0.41551800  1
  C  C42  1  0.11732100  0.72037000  0.58425900  1
  C  C43  1  0.00639400  0.49781300  0.57855200  1
  C  C44  1  0.00046900  0.50337000  0.42120600  1
  C  C45  1  0.06129000  0.61050000  0.54200000  1
  C  C46  1  0.94530500  0.39066700  0.45775300  1
  C  C47  1  0.76243200  0.04779000  0.40777900  1
  C  C48  1  0.90084000  0.01212900  0.36881500  1
  C  C49  1  0.66342200  0.93967300  0.45559400  1
  C  C50  1  0.22980700  0.95387100  0.59263100  1
  C  C51  1  0.39027000  0.96463200  0.63418000  1
  C  C52  1  0.25194100  0.06912100  0.54511300  1
  N  N1  1  0.00867000  0.48881000  0.81418700  1
  N  N2  1  0.99444200  0.51272800  0.18560100  1
  O  O1  1  0.22198300  0.63136500  0.06721500  1
  O  O2  1  0.78111600  0.37014600  0.93256100  1
  O  O3  1  0.22147500  0.62425400  0.93512600  1
  O  O4  1  0.78158000  0.37731500  0.06465300  1
  O  O5  1  0.11698200  0.36730000  0.93869700  1
  O  O6  1  0.88610400  0.63424400  0.06109300  1
  O  O7  1  0.10779200  0.37372900  0.07071700  1
  O  O8  1  0.89520500  0.62776100  0.92906900  1
