# generated using pymatgen
data_Zn3H12C29O12
_symmetry_space_group_name_H-M   'P 1'
_cell_length_a   21.54285800
_cell_length_b   29.06784200
_cell_length_c   29.06610300
_cell_angle_alpha   90.00000000
_cell_angle_beta   90.00000000
_cell_angle_gamma   90.00000000
_symmetry_Int_Tables_number   1
_chemical_formula_structural   Zn3H12C29O12
_chemical_formula_sum   'Zn12 H48 C116 O48'
_cell_volume   18201.32137356
_cell_formula_units_Z   4
loop_
 _symmetry_equiv_pos_site_id
 _symmetry_equiv_pos_as_xyz
  1  'x, y, z'
loop_
 _atom_site_type_symbol
 _atom_site_label
 _atom_site_symmetry_multiplicity
 _atom_site_fract_x
 _atom_site_fract_y
 _atom_site_fract_z
 _atom_site_occupancy
  Zn  Zn1  1  0.99959000  0.94438000  0.00013500  1
  Zn  Zn2  1  0.49959000  0.44438000  0.50013500  1
  Zn  Zn3  1  0.99957600  0.04871100  0.00140900  1
  Zn  Zn4  1  0.49957600  0.54871100  0.50140900  1
  Zn  Zn5  1  0.49972900  0.00064700  0.94843600  1
  Zn  Zn6  1  0.49949100  0.00249600  0.05272100  1
  Zn  Zn7  1  0.99972900  0.50064700  0.44843600  1
  Zn  Zn8  1  0.99949100  0.50249600  0.55272100  1
  Zn  Zn9  1  0.07007000  0.00140000  0.50088600  1
  Zn  Zn10  1  0.92933900  0.00156700  0.50055800  1
  Zn  Zn11  1  0.57007000  0.50140000  0.00088600  1
  Zn  Zn12  1  0.42933900  0.50156700  0.00055800  1
  H  H1  1  0.28517500  0.07652600  0.01661500  1
  H  H2  1  0.71537000  0.07744400  0.00857200  1
  H  H3  1  0.78517500  0.57652600  0.51661500  1
  H  H4  1  0.21537000  0.57744400  0.50857200  1
  H  H5  1  0.21061500  0.02183100  0.07479700  1
  H  H6  1  0.79021400  0.04210300  0.93716100  1
  H  H7  1  0.79002200  0.02985300  0.07263200  1
  H  H8  1  0.20883700  0.05109300  0.94195900  1
  H  H9  1  0.71061500  0.52183100  0.57479700  1
  H  H10  1  0.29021400  0.54210300  0.43716100  1
  H  H11  1  0.29002200  0.52985300  0.57263200  1
  H  H12  1  0.70883700  0.55109300  0.44195900  1
  H  H13  1  0.29092300  0.94683800  0.05779900  1
  H  H14  1  0.70895100  0.96632400  0.92997300  1
  H  H15  1  0.70848400  0.95407100  0.06588500  1
  H  H16  1  0.28866500  0.97620300  0.92454200  1
  H  H17  1  0.79092300  0.44683800  0.55779900  1
  H  H18  1  0.20895100  0.46632400  0.42997300  1
  H  H19  1  0.20848400  0.45407100  0.56588500  1
  H  H20  1  0.78866500  0.47620300  0.42454200  1
  H  H21  1  0.22126700  0.81571000  0.99275900  1
  H  H22  1  0.21704500  0.82839600  0.93180600  1
  H  H23  1  0.28860700  0.80730300  0.95658400  1
  H  H24  1  0.29444400  0.89090400  0.94201600  1
  H  H25  1  0.29825400  0.87833900  0.00288300  1
  H  H26  1  0.18483700  0.89479300  0.00984400  1
  H  H27  1  0.18199300  0.90847800  0.94906100  1
  H  H28  1  0.77705200  0.82004300  0.95505700  1
  H  H29  1  0.77538200  0.81503000  0.01718100  1
  H  H30  1  0.70635000  0.80292200  0.98391700  1
  H  H31  1  0.69963700  0.87918000  0.02121900  1
  H  H32  1  0.70108200  0.88415300  0.95921900  1
  H  H33  1  0.81421200  0.90106000  0.96172300  1
  H  H34  1  0.81332700  0.89544300  0.02381000  1
  H  H35  1  0.72126700  0.31571000  0.49275900  1
  H  H36  1  0.71704500  0.32839600  0.43180600  1
  H  H37  1  0.78860700  0.30730300  0.45658400  1
  H  H38  1  0.79444400  0.39090400  0.44201600  1
  H  H39  1  0.79825400  0.37833900  0.50288300  1
  H  H40  1  0.68483700  0.39479300  0.50984400  1
  H  H41  1  0.68199300  0.40847800  0.44906100  1
  H  H42  1  0.27705200  0.32004300  0.45505700  1
  H  H43  1  0.27538200  0.31503000  0.51718100  1
  H  H44  1  0.20635000  0.30292200  0.48391700  1
  H  H45  1  0.19963700  0.37918000  0.52121900  1
  H  H46  1  0.20108200  0.38415300  0.45921900  1
  H  H47  1  0.31421200  0.40106000  0.46172300  1
  H  H48  1  0.31332700  0.39544300  0.52381000  1
  C  C1  1  0.00024500  0.99479500  0.09067300  1
  C  C2  1  0.99893100  0.99832800  0.91086900  1
  C  C3  1  0.50024500  0.49479500  0.59067300  1
  C  C4  1  0.49893100  0.49832800  0.41086900  1
  C  C5  1  0.12100100  0.99743800  0.00028000  1
  C  C6  1  0.87816100  0.99560500  0.00117000  1
  C  C7  1  0.62100100  0.49743800  0.50028000  1
  C  C8  1  0.37816100  0.49560500  0.50117000  1
  C  C9  1  0.22919500  0.01145700  0.04077000  1
  C  C10  1  0.77090400  0.02210700  0.96632400  1
  C  C11  1  0.77078700  0.01543800  0.04032100  1
  C  C12  1  0.22818200  0.02740600  0.96819800  1
  C  C13  1  0.72919500  0.51145700  0.54077000  1
  C  C14  1  0.27090400  0.52210700  0.46632400  1
  C  C15  1  0.27078700  0.51543800  0.54032100  1
  C  C16  1  0.72818200  0.52740600  0.46819800  1
  C  C17  1  0.26830300  0.04129900  0.00901600  1
  C  C18  1  0.73161200  0.04139300  0.00534600  1
  C  C19  1  0.76830300  0.54129900  0.50901600  1
  C  C20  1  0.23161200  0.54139300  0.50534600  1
  C  C21  1  0.30951200  0.00042500  0.99965600  1
  C  C22  1  0.68968600  0.00003000  0.00154000  1
  C  C23  1  0.80951200  0.50042500  0.49965600  1
  C  C24  1  0.18968600  0.50003000  0.50154000  1
  C  C25  1  0.27169700  0.97055300  0.03153900  1
  C  C26  1  0.72770400  0.98080700  0.96241000  1
  C  C27  1  0.72756300  0.97408600  0.03665300  1
  C  C28  1  0.27066100  0.98660700  0.95872900  1
  C  C29  1  0.77169700  0.47055300  0.53153900  1
  C  C30  1  0.22770400  0.48080700  0.46241000  1
  C  C31  1  0.22756300  0.47408600  0.53665300  1
  C  C32  1  0.77066100  0.48660700  0.45872900  1
  C  C33  1  0.23196800  0.95725000  0.99076500  1
  C  C34  1  0.76646500  0.95538100  0.99759200  1
  C  C35  1  0.73196800  0.45725000  0.49076500  1
  C  C36  1  0.26646500  0.45538100  0.49759200  1
  C  C37  1  0.19005100  0.99752200  0.99996700  1
  C  C38  1  0.80910600  0.99612200  0.00131400  1
  C  C39  1  0.69005100  0.49752200  0.49996700  1
  C  C40  1  0.30910600  0.49612200  0.50131400  1
  C  C41  1  0.00052600  0.99462300  0.14001800  1
  C  C42  1  0.99867200  0.99880300  0.86152200  1
  C  C43  1  0.50052600  0.49462300  0.64001800  1
  C  C44  1  0.49867200  0.49880300  0.36152200  1
  C  C45  1  0.00073100  0.99515200  0.18146400  1
  C  C46  1  0.99851000  0.99925100  0.82007300  1
  C  C47  1  0.50073100  0.49515200  0.68146400  1
  C  C48  1  0.49851000  0.49925100  0.32007300  1
  C  C49  1  0.00093200  0.99632700  0.23001900  1
  C  C50  1  0.99837000  0.99980300  0.77150300  1
  C  C51  1  0.50093200  0.49632700  0.73001900  1
  C  C52  1  0.49837000  0.49980300  0.27150300  1
  C  C53  1  0.00107200  0.99759000  0.27145200  1
  C  C54  1  0.99828300  0.00026500  0.73005200  1
  C  C55  1  0.50107200  0.49759000  0.77145200  1
  C  C56  1  0.49828300  0.50026500  0.23005200  1
  C  C57  1  0.00120000  0.99916200  0.31999600  1
  C  C58  1  0.99820500  0.00076200  0.68148100  1
  C  C59  1  0.50120000  0.49916200  0.81999600  1
  C  C60  1  0.49820500  0.50076200  0.18148100  1
  C  C61  1  0.00127400  0.00037200  0.36142900  1
  C  C62  1  0.99814600  0.00111400  0.64003000  1
  C  C63  1  0.50127400  0.50037200  0.86142900  1
  C  C64  1  0.49814600  0.50111400  0.14003000  1
  C  C65  1  0.49947800  0.09148200  0.00006800  1
  C  C66  1  0.99947800  0.59148200  0.50006800  1
  C  C67  1  0.37835600  0.00153000  0.99950700  1
  C  C68  1  0.62086200  0.00156400  0.00162500  1
  C  C69  1  0.87835600  0.50153000  0.49950700  1
  C  C70  1  0.12086200  0.50156400  0.50162500  1
  C  C71  1  0.49975900  0.91161200  0.00108500  1
  C  C72  1  0.99975900  0.41161200  0.50108500  1
  C  C73  1  0.00113600  0.09140900  0.50090400  1
  C  C74  1  0.50113600  0.59140900  0.00090400  1
  C  C75  1  0.00131800  0.00143100  0.41076700  1
  C  C76  1  0.99807500  0.00140600  0.59067900  1
  C  C77  1  0.50131800  0.50143100  0.91076700  1
  C  C78  1  0.49807500  0.50140600  0.09067900  1
  C  C79  1  0.99827600  0.91157500  0.50053200  1
  C  C80  1  0.49827600  0.41157500  0.00053200  1
  C  C81  1  0.49930000  0.14080700  0.99913500  1
  C  C82  1  0.99930000  0.64080700  0.49913500  1
  C  C83  1  0.49914000  0.18224700  0.99881100  1
  C  C84  1  0.99914000  0.68224700  0.49881100  1
  C  C85  1  0.49894600  0.23080400  0.99884900  1
  C  C86  1  0.99894600  0.73080400  0.49884900  1
  C  C87  1  0.99878100  0.77224700  0.49912400  1
  C  C88  1  0.49878100  0.27224700  0.99912400  1
  C  C89  1  0.99859200  0.82080200  0.49961800  1
  C  C90  1  0.49859200  0.32080200  0.99961800  1
  C  C91  1  0.99843900  0.86224100  0.50007200  1
  C  C92  1  0.49843900  0.36224100  0.00007200  1
  C  C93  1  0.50001100  0.86227200  0.00200900  1
  C  C94  1  0.00001100  0.36227200  0.50200900  1
  C  C95  1  0.50023100  0.82082300  0.00233300  1
  C  C96  1  0.00023100  0.32082300  0.50233300  1
  C  C97  1  0.50047200  0.77225000  0.00232500  1
  C  C98  1  0.00047200  0.27225000  0.50232500  1
  C  C99  1  0.00065200  0.23079500  0.50210100  1
  C  C100  1  0.50065200  0.73079500  0.00210100  1
  C  C101  1  0.00083700  0.18221900  0.50168800  1
  C  C102  1  0.50083700  0.68221900  0.00168800  1
  C  C103  1  0.00097800  0.14076600  0.50130300  1
  C  C104  1  0.50097800  0.64076600  0.00130300  1
  C  C105  1  0.21162500  0.90840500  0.98025500  1
  C  C106  1  0.26793200  0.87807600  0.97207300  1
  C  C107  1  0.24723800  0.82916700  0.96269400  1
  C  C108  1  0.78570300  0.90536800  0.99319200  1
  C  C109  1  0.72866400  0.87484000  0.99003300  1
  C  C110  1  0.74826700  0.82493800  0.98630300  1
  C  C111  1  0.71162500  0.40840500  0.48025500  1
  C  C112  1  0.76793200  0.37807600  0.47207300  1
  C  C113  1  0.74723800  0.32916700  0.46269400  1
  C  C114  1  0.28570300  0.40536800  0.49319200  1
  C  C115  1  0.22866400  0.37484000  0.49003300  1
  C  C116  1  0.24826700  0.32493800  0.48630300  1
  O  O1  1  0.99864700  0.95522100  0.06898800  1
  O  O2  1  0.99760300  0.95837600  0.93186200  1
  O  O3  1  0.49864700  0.45522100  0.56898800  1
  O  O4  1  0.49760300  0.45837600  0.43186200  1
  O  O5  1  0.00148400  0.03471100  0.06966600  1
  O  O6  1  0.00060700  0.03786900  0.93257000  1
  O  O7  1  0.50148400  0.53471100  0.56966600  1
  O  O8  1  0.50060700  0.53786900  0.43257000  1
  O  O9  1  0.09190900  0.95781300  0.00078400  1
  O  O10  1  0.90682800  0.95583400  0.00152300  1
  O  O11  1  0.59190900  0.45781300  0.50078400  1
  O  O12  1  0.40682800  0.45583400  0.50152300  1
  O  O13  1  0.09235900  0.03725200  0.00012700  1
  O  O14  1  0.90724000  0.03526800  0.00072600  1
  O  O15  1  0.59235900  0.53725200  0.50012700  1
  O  O16  1  0.40724000  0.53526800  0.50072600  1
  O  O17  1  0.49812600  0.06924800  0.96078400  1
  O  O18  1  0.50097500  0.07103600  0.04024900  1
  O  O19  1  0.99812600  0.56924800  0.46078400  1
  O  O20  1  0.00097500  0.57103600  0.54024900  1
  O  O21  1  0.40697400  0.99947900  0.95974900  1
  O  O22  1  0.59225600  0.00350700  0.04140000  1
  O  O23  1  0.59197800  0.99961600  0.96194200  1
  O  O24  1  0.40723400  0.00347300  0.03920000  1
  O  O25  1  0.90697400  0.49947900  0.45974900  1
  O  O26  1  0.09225600  0.50350700  0.54140000  1
  O  O27  1  0.09197800  0.49961600  0.46194200  1
  O  O28  1  0.90723400  0.50347300  0.53920000  1
  O  O29  1  0.49831100  0.93206800  0.96090100  1
  O  O30  1  0.50103800  0.93385400  0.04037800  1
  O  O31  1  0.99831100  0.43206800  0.46090100  1
  O  O32  1  0.00103800  0.43385400  0.54037800  1
  O  O33  1  0.05481500  0.07015700  0.49983900  1
  O  O34  1  0.94757000  0.06994100  0.50178400  1
  O  O35  1  0.55481500  0.57015700  0.99983900  1
  O  O36  1  0.44757000  0.56994100  0.00178400  1
  O  O37  1  0.05496300  0.00254600  0.43207400  1
  O  O38  1  0.94443200  0.00035400  0.56936900  1
  O  O39  1  0.94770100  0.00046300  0.43216400  1
  O  O40  1  0.05169300  0.00242500  0.56928100  1
  O  O41  1  0.55496300  0.50254600  0.93207400  1
  O  O42  1  0.44443200  0.50035400  0.06936900  1
  O  O43  1  0.44770100  0.50046300  0.93216400  1
  O  O44  1  0.55169300  0.50242500  0.06928100  1
  O  O45  1  0.05185700  0.93302600  0.49965100  1
  O  O46  1  0.94458000  0.93281100  0.50160600  1
  O  O47  1  0.55185700  0.43302600  0.99965100  1
  O  O48  1  0.44458000  0.43281100  0.00160600  1
