# Generated by REPEAT Assigner based on pymatgen
data_DB0-m29_o84_o470_f0_pts.sym.67
_audit_creation_date              2022-05-24
_audit_creation_method            REPEAT_Assigner
_cell_length_a                    13.098122
_cell_length_b                    12.584147
_cell_length_c                    12.974924
_cell_angle_alpha                 80.440672
_cell_angle_beta                  100.642750
_cell_angle_gamma                 117.325421
_cell_volume                      1859.202083
_symmetry_space_group_name_H-M    P1
_symmetry_Int_Tables_number       1
loop_
    _symmetry_equiv_pos_site_id
    _symmetry_equiv_pos_as_xyz
    1  x,y,z
loop_
    _atom_site_type_symbol
    _atom_site_label
    _atom_site_fract_x
    _atom_site_fract_y
    _atom_site_fract_z
    _atom_type_partial_charge
    C   C1   0.201599  0.994179  0.875168  0.044664
    C   C2   0.093457  0.971462  0.821205  -0.167152
    C   C3   0.007065  0.972627  0.868215  0.198259
    C   C4   0.897375  0.945623  0.813642  -0.094780
    C   C5   0.814204  0.949429  0.862202  -0.110332
    C   C6   0.224337  0.020315  0.980139  -0.215120
    C   C7   0.138319  0.025124  0.027027  0.184214
    C   C8   0.030013  0.000932  0.971177  -0.075147
    C   C9   0.944965  0.005543  0.018624  -0.069824
    C   C10  0.836984  0.982116  0.964061  0.165632
    C   C11  0.752454  0.989038  0.011906  -0.188643
    C   C12  0.159705  0.056499  0.129505  -0.057680
    C   C13  0.075188  0.059480  0.175787  -0.251928
    C   C14  0.967856  0.033711  0.121000  0.260435
    C   C15  0.884773  0.037466  0.169749  -0.196903
    C   C16  0.776549  0.016282  0.116834  0.035218
    H   H1   0.076961  0.950147  0.741162  0.123786
    H   H2   0.730276  0.923573  0.817857  0.125033
    H   H3   0.241931  0.080869  0.177119  0.118966
    H   H4   0.094582  0.083403  0.255774  0.157698
    H   H5   0.906850  0.060049  0.250219  0.135616
    O   O1   0.593875  0.020085  0.128031  -0.578982
    C   C17  0.693247  0.024482  0.175480  0.612976
    O   O2   0.534816  0.792642  0.283655  -0.493342
    O   O3   0.717279  0.031946  0.277572  -0.512210
    O   O4   0.436316  0.876730  0.339089  -0.625483
    C   C18  0.470610  0.791955  0.350419  0.582586
    Fe  Fe1  0.484755  0.005856  0.222566  1.454907
    O   O5   0.331832  0.969641  0.133975  -0.689218
    O   O6   0.433312  0.123427  0.017796  -0.461332
    C   C19  0.334678  0.036715  0.044427  0.870279
    O   O7   0.572567  0.161265  0.289535  -0.614860
    O   O8   0.449006  0.228920  0.187697  -0.544088
    C   C20  0.524346  0.235389  0.270849  0.673042
    O   O9   0.405759  0.852907  0.701660  -0.617669
    O   O10  0.523050  0.779463  0.807102  -0.525227
    C   C21  0.451485  0.776578  0.721681  0.650843
    O   O11  0.647181  0.042238  0.858221  -0.694513
    O   O12  0.543432  0.890222  0.974478  -0.463350
    C   C22  0.642870  0.975397  0.948026  0.862049
    O   O13  0.263899  0.981714  0.714702  -0.498463
    O   O14  0.543492  0.137661  0.654011  -0.628241
    C   C23  0.508424  0.221862  0.642418  0.593508
    O   O15  0.385635  0.992985  0.864935  -0.561953
    C   C24  0.286437  0.988182  0.816957  0.591718
    O   O16  0.443668  0.220622  0.708910  -0.504895
    Fe  Fe2  0.494410  0.007629  0.769755  1.454930
    C   C25  0.457121  0.715873  0.451903  0.036478
    C   C26  0.438487  0.760088  0.534072  -0.135842
    C   C27  0.446454  0.710591  0.636251  0.070504
    C   C28  0.470048  0.612751  0.657153  -0.272600
    C   C29  0.479632  0.560992  0.575602  0.288813
    C   C30  0.472228  0.610774  0.472479  -0.005487
    C   C31  0.498944  0.459975  0.599136  -0.209896
    C   C32  0.506228  0.402631  0.520186  -0.005268
    C   C33  0.498519  0.452231  0.417040  0.281191
    C   C34  0.479432  0.553383  0.393524  -0.233828
    C   C35  0.521492  0.297624  0.540787  0.027815
    C   C36  0.539607  0.253076  0.458523  -0.114359
    C   C37  0.530888  0.302148  0.356289  0.031628
    C   C38  0.507415  0.400051  0.335439  -0.252522
    H   H6   0.428822  0.842062  0.520855  0.140625
    H   H7   0.479887  0.575744  0.737656  0.160795
    H   H8   0.549069  0.170976  0.471665  0.131449
    H   H9   0.497005  0.436664  0.254885  0.168138
    H   H10  0.466887  0.583504  0.311695  0.154085
    H   H11  0.511412  0.429813  0.680967  0.155479
    C   C39  0.863794  0.911467  0.702432  0.038407
    C   C40  0.851660  0.788148  0.699119  -0.018748
    C   C41  0.822686  0.740858  0.607660  -0.410861
    H   H12  0.927672  0.977927  0.650653  0.066409
    H   H13  0.779373  0.911365  0.669835  0.045408
    H   H14  0.865856  0.736647  0.771236  0.083962
    H   H15  0.808100  0.791775  0.535283  0.175725
    H   H16  0.813620  0.651180  0.605415  0.147475
