data_DB0-m3_o11_o28_f0_pcu.sym.31_repeat
_audit_creation_date              2024-02-20
_audit_creation_method            'Materials Studio'
_symmetry_space_group_name_H-M    'P1'
_symmetry_Int_Tables_number       1
_symmetry_cell_setting            triclinic
loop_
_symmetry_equiv_pos_as_xyz
  x,y,z
_cell_length_a                    23.4161
_cell_length_b                    11.1358
_cell_length_c                    10.0025
_cell_angle_alpha                 89.9974
_cell_angle_beta                  89.9816
_cell_angle_gamma                 90.0113
loop_
_atom_site_label
_atom_site_type_symbol
_atom_site_fract_x
_atom_site_fract_y
_atom_site_fract_z
_atom_site_U_iso_or_equiv
_atom_site_adp_type
_atom_site_occupancy
O1     O     0.49473   0.32969   0.61342   0.00000  Uiso   1.00
O2     O     0.49530   0.33120   0.38270   0.00000  Uiso   1.00
C1     C     0.49303   0.27464   0.49805   0.00000  Uiso   1.00
O3     O     0.41566   0.51963   0.62001   0.00000  Uiso   1.00
O4     O     0.41647   0.52249   0.38942   0.00000  Uiso   1.00
C2     C     0.38932   0.52522   0.50431   0.00000  Uiso   1.00
Zn1    Zn    0.50052   0.50676   0.65674   0.00000  Uiso   1.00
Zn2    Zn    0.50135   0.51084   0.35223   0.00000  Uiso   1.00
O5     O     0.50658   0.68620   0.62613   0.00000  Uiso   1.00
O6     O     0.50702   0.68824   0.39518   0.00000  Uiso   1.00
O7     O     0.58541   0.49512   0.61995   0.00000  Uiso   1.00
O8     O     0.58620   0.49748   0.38928   0.00000  Uiso   1.00
C3     C     0.50860   0.74304   0.51118   0.00000  Uiso   1.00
C4     C     0.61247   0.49245   0.50515   0.00000  Uiso   1.00
C5     C     0.88101   0.59795   0.52213   0.00000  Uiso   1.00
N1     N     0.85419   0.49155   0.50852   0.00000  Uiso   1.00
C6     C     0.88429   0.38918   0.49439   0.00000  Uiso   1.00
C7     C     0.94339   0.39185   0.49463   0.00000  Uiso   1.00
C8     C     0.97142   0.49973   0.50779   0.00000  Uiso   1.00
C9     C     0.94002   0.60368   0.52125   0.00000  Uiso   1.00
C10    C     0.97457   0.28734   0.48223   0.00000  Uiso   1.00
C11    C     0.03345   0.29017   0.48308   0.00000  Uiso   1.00
C12    C     0.06209   0.39940   0.49565   0.00000  Uiso   1.00
C13    C     0.03043   0.50379   0.50742   0.00000  Uiso   1.00
C14    C     0.05796   0.61281   0.51886   0.00000  Uiso   1.00
C15    C     0.02647   0.71717   0.53169   0.00000  Uiso   1.00
C16    C     0.96774   0.71263   0.53330   0.00000  Uiso   1.00
C17    C     0.12153   0.40731   0.49649   0.00000  Uiso   1.00
N2     N     0.14741   0.51504   0.50714   0.00000  Uiso   1.00
C18    C     0.11688   0.61694   0.51775   0.00000  Uiso   1.00
O9     O     0.85004   0.69899   0.53380   0.00000  Uiso   1.00
O10    O     0.85653   0.28407   0.48272   0.00000  Uiso   1.00
H1     H     0.95341   0.20159   0.47205   0.00000  Uiso   1.00
O11    O     0.15424   0.30882   0.48427   0.00000  Uiso   1.00
O12    O     0.14415   0.72257   0.52975   0.00000  Uiso   1.00
H2     H     0.04707   0.80359   0.54098   0.00000  Uiso   1.00
H3     H     0.94419   0.79553   0.54378   0.00000  Uiso   1.00
C19    C     0.23660   0.57323   0.40096   0.00000  Uiso   1.00
H4     H     0.21196   0.61003   0.31927   0.00000  Uiso   1.00
C20    C     0.29569   0.57697   0.39873   0.00000  Uiso   1.00
C21    C     0.32655   0.52850   0.50449   0.00000  Uiso   1.00
C22    C     0.29759   0.47912   0.61181   0.00000  Uiso   1.00
H5     H     0.32066   0.44038   0.69482   0.00000  Uiso   1.00
C23    C     0.23882   0.47446   0.61245   0.00000  Uiso   1.00
H6     H     0.21677   0.43419   0.69618   0.00000  Uiso   1.00
C24    C     0.20821   0.52103   0.50692   0.00000  Uiso   1.00
C25    C     0.76406   0.45358   0.39527   0.00000  Uiso   1.00
H7     H     0.78721   0.42855   0.30600   0.00000  Uiso   1.00
C26    C     0.70515   0.45431   0.39399   0.00000  Uiso   1.00
H8     H     0.68311   0.42767   0.30400   0.00000  Uiso   1.00
C27    C     0.67505   0.48747   0.50703   0.00000  Uiso   1.00
C28    C     0.70452   0.51854   0.62174   0.00000  Uiso   1.00
H9     H     0.68200   0.54521   0.71124   0.00000  Uiso   1.00
C29    C     0.76339   0.51965   0.62212   0.00000  Uiso   1.00
H10    H     0.78602   0.54567   0.71176   0.00000  Uiso   1.00
C30    C     0.79334   0.48759   0.50883   0.00000  Uiso   1.00
C31    C     0.50275   0.94102   0.40517   0.00000  Uiso   1.00
C32    C     0.51309   0.87427   0.51383   0.00000  Uiso   1.00
H11    H     0.49463   0.89737   0.31026   0.00000  Uiso   1.00
H12    H     0.52567   0.91555   0.60687   0.00000  Uiso   1.00
C33    C     0.50646   0.07365   0.40596   0.00000  Uiso   1.00
C34    C     0.48526   0.14427   0.50284   0.00000  Uiso   1.00
H13    H     0.52625   0.11586   0.32001   0.00000  Uiso   1.00
C35    C     0.53155   0.57370   0.92814   0.00000  Uiso   1.00
N3     N     0.50108   0.50088   0.85679   0.00000  Uiso   1.00
C36    C     0.54102   0.55937   0.07423   0.00000  Uiso   1.00
N4     N     0.50172   0.51806   0.15211   0.00000  Uiso   1.00
H14    H     0.46243   0.50893   0.10777   0.00000  Uiso   1.00
N5     N     0.45271   0.09764   0.61227   0.00000  Uiso   1.00
H15    H     0.47988   0.06870   0.68828   0.00000  Uiso   1.00
H16    H     0.42544   0.02959   0.57950   0.00000  Uiso   1.00
N6     N     0.55861   0.67313   0.86438   0.00000  Uiso   1.00
H17    H     0.54635   0.75097   0.91501   0.00000  Uiso   1.00
H18    H     0.60275   0.66295   0.87364   0.00000  Uiso   1.00
N7     N     0.49830   0.38284   0.90206   0.00000  Uiso   1.00
H19    H     0.46064   0.36970   0.95576   0.00000  Uiso   1.00
H20    H     0.53493   0.36050   0.95597   0.00000  Uiso   1.00
N8     N     0.59349   0.60287   0.12783   0.00000  Uiso   1.00
H21    H     0.58455   0.66049   0.20728   0.00000  Uiso   1.00
H22    H     0.61749   0.52950   0.15966   0.00000  Uiso   1.00
N9     N     0.06339   0.17938   0.47058   0.00000  Uiso   1.00
H23    H     0.05049   0.12391   0.54915   0.00000  Uiso   1.00
H24    H     0.05073   0.13948   0.38089   0.00000  Uiso   1.00
N10    N     0.32426   0.63362   0.28956   0.00000  Uiso   1.00
H25    H     0.34397   0.71101   0.32631   0.00000  Uiso   1.00
H26    H     0.29400   0.66043   0.21909   0.00000  Uiso   1.00
