# Generated by REPEAT Assigner based on pymatgen
data_DB0-m3_o7_o13_f0_pcu.sym.11
_audit_creation_date              2022-05-24
_audit_creation_method            REPEAT_Assigner
_cell_length_a                    13.165256
_cell_length_b                    17.788000
_cell_length_c                    16.595766
_cell_angle_alpha                 90.000473
_cell_angle_beta                  95.491272
_cell_angle_gamma                 90.009709
_cell_volume                      3868.620066
_symmetry_space_group_name_H-M    P1
_symmetry_Int_Tables_number       1
loop_
    _symmetry_equiv_pos_site_id
    _symmetry_equiv_pos_as_xyz
    1  x,y,z
loop_
    _atom_site_type_symbol
    _atom_site_label
    _atom_site_fract_x
    _atom_site_fract_y
    _atom_site_fract_z
    _atom_type_partial_charge
    O   O1   0.492689  0.389537  0.569468  -0.689827
    O   O2   0.488710  0.613896  0.431541  -0.720665
    O   O3   0.488005  0.389897  0.430317  -0.705271
    O   O4   0.493336  0.613582  0.570588  -0.709678
    C   C1   0.490219  0.354461  0.499782  0.797985
    C   C2   0.491176  0.649013  0.501126  0.831383
    O   O5   0.340965  0.501742  0.560781  -0.608353
    O   O6   0.640391  0.501795  0.440328  -0.552672
    O   O7   0.336431  0.502212  0.421750  -0.647736
    O   O8   0.645026  0.501235  0.579176  -0.663736
    C   C3   0.290490  0.501690  0.488598  0.723488
    C   C4   0.691000  0.501151  0.512312  0.662361
    Zn  Zn1  0.493531  0.501458  0.592205  1.052065
    Zn  Zn2  0.487910  0.502010  0.408808  1.039868
    C   C5   0.803662  0.498963  0.519148  -0.097141
    C   C6   0.177861  0.501469  0.481271  -0.157754
    C   C7   0.020964  0.512468  0.396070  -0.270406
    C   C8   0.960750  0.489884  0.604508  -0.280493
    C   C9   0.125904  0.512408  0.405834  -0.096377
    C   C10  0.855884  0.493181  0.595212  -0.108051
    C   C11  0.122215  0.490659  0.547624  0.271719
    C   C12  0.859122  0.502055  0.451667  0.218459
    C   C13  0.016209  0.494640  0.538037  0.086833
    C   C14  0.965255  0.503090  0.461907  0.084895
    H   H1   0.815611  0.490148  0.648851  0.116759
    H   H2   0.166419  0.521142  0.353001  0.110699
    H   H3   0.983850  0.521392  0.335962  0.164284
    H   H4   0.998170  0.484831  0.665073  0.157146
    C   C15  0.492171  0.848802  0.572021  0.189045
    C   C16  0.484310  0.155417  0.426708  0.304054
    C   C17  0.490188  0.771172  0.572498  -0.245392
    C   C18  0.481944  0.233013  0.427049  -0.309138
    H   H5   0.485866  0.742150  0.629274  0.161334
    H   H6   0.473488  0.262643  0.369957  0.190947
    C   C19  0.492681  0.731495  0.501015  -0.088233
    C   C20  0.490461  0.271972  0.499528  -0.082084
    C   C21  0.497051  0.770217  0.429125  -0.251907
    C   C22  0.499628  0.232523  0.571706  -0.212550
    H   H7   0.498637  0.740475  0.372483  0.163580
    H   H8   0.507125  0.261700  0.629082  0.134631
    C   C23  0.499838  0.847770  0.428762  0.228193
    C   C24  0.499446  0.154914  0.571353  0.192635
    C   C25  0.495721  0.887096  0.500008  0.160111
    C   C26  0.492586  0.116359  0.498888  0.102752
    C   C27  0.494715  0.967843  0.499194  -0.150891
    C   C28  0.493785  0.035608  0.498797  -0.094135
    C   C29  0.454918  0.441279  0.833027  0.208765
    C   C30  0.549975  0.550631  0.170333  0.177865
    C   C31  0.457763  0.441576  0.750120  -0.209417
    C   C32  0.548869  0.549167  0.253360  -0.060311
    H   H9   0.427683  0.394131  0.714940  0.234776
    H   H10  0.599572  0.585512  0.290714  0.154314
    N   N1   0.496469  0.500941  0.712911  -0.008209
    N   N2   0.485172  0.502641  0.288158  -0.053878
    C   C33  0.535152  0.560215  0.756183  -0.212431
    C   C34  0.422206  0.456246  0.242843  -0.162904
    H   H11  0.565866  0.607551  0.725708  0.213295
    H   H12  0.371416  0.419388  0.271764  0.181964
    C   C35  0.535741  0.560962  0.839439  0.215995
    C   C36  0.423211  0.454872  0.159706  0.199839
    C   C37  0.494347  0.501360  0.878099  0.194641
    C   C38  0.487305  0.502686  0.123136  0.131875
    C   C39  0.491845  0.501887  0.964400  -0.171783
    C   C40  0.489580  0.502229  0.036815  -0.053551
    O   O9   0.810195  0.506261  0.375072  -0.344398
    C   C41  0.801930  0.432035  0.347017  0.148742
    H   H13  0.822499  0.392101  0.397249  0.007238
    H   H14  0.853569  0.423342  0.298840  -0.005610
    H   H15  0.722267  0.420951  0.321815  0.010435
    O   O10  0.171013  0.476287  0.622685  -0.358685
    C   C42  0.176570  0.397866  0.628743  0.206023
    H   H16  0.257468  0.380312  0.639413  -0.007896
    H   H17  0.142374  0.371250  0.572093  -0.020105
    H   H18  0.134714  0.378759  0.679909  -0.011562
    O   O11  0.573278  0.621886  0.882966  -0.299692
    C   C43  0.679044  0.612192  0.892245  0.139036
    H   H19  0.714174  0.645022  0.845324  0.011764
    H   H20  0.698495  0.551878  0.886647  -0.001958
    H   H21  0.709433  0.632208  0.953114  0.045120
    O   O12  0.358827  0.407993  0.113718  -0.307197
    C   C44  0.406173  0.337639  0.118272  0.129427
    H   H22  0.374693  0.303348  0.165864  0.026911
    H   H23  0.489730  0.344162  0.132586  0.001643
    H   H24  0.391739  0.308743  0.059071  0.048696
    O   O13  0.486555  0.887815  0.642513  -0.286122
    C   C45  0.585785  0.888184  0.680802  0.115783
    H   H25  0.600897  0.943180  0.711077  0.032806
    H   H26  0.641819  0.879876  0.635776  0.002610
    H   H27  0.594168  0.842632  0.726591  0.011798
    O   O14  0.474900  0.117238  0.354795  -0.359870
    C   C46  0.571164  0.120693  0.326121  0.151300
    H   H28  0.582287  0.070390  0.288560  0.055019
    H   H29  0.631490  0.121685  0.377556  -0.011064
    H   H30  0.576740  0.171787  0.288489  -0.014766
    O   O15  0.503354  0.885673  0.357344  -0.329613
    C   C47  0.605094  0.881802  0.340237  0.195625
    H   H31  0.615827  0.832635  0.300827  -0.018985
    H   H32  0.656104  0.876788  0.397164  -0.012528
    H   H33  0.625065  0.933785  0.308500  0.007110
    O   O16  0.510041  0.116206  0.642914  -0.301180
    C   C48  0.412788  0.114943  0.669980  0.171889
    H   H34  0.353694  0.122392  0.618331  -0.016120
    H   H35  0.406220  0.160632  0.714665  -0.007855
    H   H36  0.400543  0.059944  0.698999  0.025743
    O   O17  0.416186  0.380617  0.870525  -0.333459
    C   C49  0.310370  0.390071  0.861460  0.211728
    H   H37  0.290796  0.449781  0.848545  -0.007694
    H   H38  0.278579  0.373409  0.918345  0.021259
    H   H39  0.276681  0.354306  0.811067  -0.002654
    O   O18  0.615952  0.597131  0.135340  -0.282883
    C   C50  0.569120  0.667673  0.131666  0.017677
    H   H40  0.485275  0.661469  0.131474  0.020424
    H   H41  0.585768  0.696454  0.075128  0.076152
    H   H42  0.599111  0.701886  0.184557  0.066355
