# generated using pymatgen
data_Zn3H21C46BrO12
_symmetry_space_group_name_H-M   'P 1'
_cell_length_a   38.01763300
_cell_length_b   21.95579700
_cell_length_c   21.91504400
_cell_angle_alpha   90.00000000
_cell_angle_beta   122.69883500
_cell_angle_gamma   90.00000000
_symmetry_Int_Tables_number   1
_chemical_formula_structural   Zn3H21C46BrO12
_chemical_formula_sum   'Zn12 H84 C184 Br4 O48'
_cell_volume   15393.66323655
_cell_formula_units_Z   4
loop_
 _symmetry_equiv_pos_site_id
 _symmetry_equiv_pos_as_xyz
  1  'x, y, z'
loop_
 _atom_site_type_symbol
 _atom_site_label
 _atom_site_symmetry_multiplicity
 _atom_site_fract_x
 _atom_site_fract_y
 _atom_site_fract_z
 _atom_site_occupancy
  Zn  Zn1  1  0.99986300  0.06927000  0.49991100  1
  Zn  Zn2  1  0.49986300  0.56927000  0.49991100  1
  Zn  Zn3  1  0.00026000  0.93131700  0.50006600  1
  Zn  Zn4  1  0.50026000  0.43131700  0.50006600  1
  Zn  Zn5  1  0.49766900  0.99990200  0.06666800  1
  Zn  Zn6  1  0.50244700  0.00012100  0.93325400  1
  Zn  Zn7  1  0.99766900  0.49990200  0.06666800  1
  Zn  Zn8  1  0.00244700  0.50012100  0.93325400  1
  Zn  Zn9  1  0.04741700  0.99972300  0.04395300  1
  Zn  Zn10  1  0.95274700  0.00016200  0.95644900  1
  Zn  Zn11  1  0.54741700  0.49972300  0.04395300  1
  Zn  Zn12  1  0.45274700  0.50016200  0.95644900  1
  H  H1  1  0.77293500  0.94740500  0.36676200  1
  H  H2  1  0.22684800  0.94928500  0.63290800  1
  H  H3  1  0.27293500  0.44740500  0.36676200  1
  H  H4  1  0.72684800  0.44928500  0.63290800  1
  H  H5  1  0.72115700  0.05161900  0.31422100  1
  H  H6  1  0.27934200  0.05273400  0.68587500  1
  H  H7  1  0.22115700  0.55161900  0.31422100  1
  H  H8  1  0.77934200  0.55273400  0.68587500  1
  H  H9  1  0.72370200  0.89539700  0.22707900  1
  H  H10  1  0.27573800  0.89674900  0.77235900  1
  H  H11  1  0.22370200  0.39539700  0.22707900  1
  H  H12  1  0.77573800  0.39674900  0.77235900  1
  H  H13  1  0.77884600  0.94675200  0.19216300  1
  H  H14  1  0.22096900  0.94910100  0.80753800  1
  H  H15  1  0.27884600  0.44675200  0.19216300  1
  H  H16  1  0.72096900  0.44910100  0.80753800  1
  H  H17  1  0.72707900  0.05095900  0.13963700  1
  H  H18  1  0.27345200  0.05254300  0.86049400  1
  H  H19  1  0.22707900  0.55095900  0.13963700  1
  H  H20  1  0.77345200  0.55254300  0.86049400  1
  H  H21  1  0.77629900  0.10296900  0.27930100  1
  H  H22  1  0.22457000  0.10508300  0.72105500  1
  H  H23  1  0.27629900  0.60296900  0.27930100  1
  H  H24  1  0.72457000  0.60508300  0.72105500  1
  H  H25  1  0.10342000  0.13939200  0.79277800  1
  H  H26  1  0.89746200  0.14290900  0.20720200  1
  H  H27  1  0.60342000  0.63939200  0.79277800  1
  H  H28  1  0.39746200  0.64290900  0.20720200  1
  H  H29  1  0.93390100  0.93255100  0.57906800  1
  H  H30  1  0.06541100  0.93417600  0.42124900  1
  H  H31  1  0.43390100  0.43255100  0.57906800  1
  H  H32  1  0.56541100  0.43417600  0.42124900  1
  H  H33  1  0.89416600  0.85821900  0.59693500  1
  H  H34  1  0.10552400  0.85994900  0.40417900  1
  H  H35  1  0.39416600  0.35821900  0.59693500  1
  H  H36  1  0.60552400  0.35994900  0.40417900  1
  H  H37  1  0.90614900  0.84189600  0.71748000  1
  H  H38  1  0.09449900  0.84408000  0.28426200  1
  H  H39  1  0.40614900  0.34189600  0.71748000  1
  H  H40  1  0.59449900  0.34408000  0.28426200  1
  H  H41  1  0.95549900  0.90332200  0.81832800  1
  H  H42  1  0.04554300  0.90558500  0.18312800  1
  H  H43  1  0.45549900  0.40332200  0.81832800  1
  H  H44  1  0.54554300  0.40558500  0.18312800  1
  H  H45  1  0.04123100  0.09601700  0.89818800  1
  H  H46  1  0.95815700  0.09606000  0.10015200  1
  H  H47  1  0.54123100  0.59601700  0.89818800  1
  H  H48  1  0.45815700  0.59606000  0.10015200  1
  H  H49  1  0.09089400  0.15684100  0.89005800  1
  H  H50  1  0.90900000  0.15802600  0.10843000  1
  H  H51  1  0.59089400  0.65684100  0.89005800  1
  H  H52  1  0.40900000  0.65802600  0.10843000  1
  H  H53  1  0.06386900  0.06465700  0.70093800  1
  H  H54  1  0.93729500  0.06906900  0.30007500  1
  H  H55  1  0.56386900  0.56465700  0.70093800  1
  H  H56  1  0.43729500  0.56906900  0.30007500  1
  H  H57  1  0.39528900  0.19618300  0.04442000  1
  H  H58  1  0.60371900  0.19673100  0.95657700  1
  H  H59  1  0.89528900  0.69618300  0.04442000  1
  H  H60  1  0.10371900  0.69673100  0.95657700  1
  H  H61  1  0.56446900  0.14165000  0.99473600  1
  H  H62  1  0.43499900  0.14117800  0.00716300  1
  H  H63  1  0.06446900  0.64165000  0.99473600  1
  H  H64  1  0.93499900  0.64117800  0.00716300  1
  H  H65  1  0.04211000  0.86006600  0.94416000  1
  H  H66  1  0.95583700  0.86010000  0.05491100  1
  H  H67  1  0.54211000  0.36006600  0.94416000  1
  H  H68  1  0.45583700  0.36010000  0.05491100  1
  H  H69  1  0.60302700  0.80526300  0.23943600  1
  H  H70  1  0.39827700  0.80275800  0.75903000  1
  H  H71  1  0.10302700  0.30526300  0.23943600  1
  H  H72  1  0.89827700  0.30275800  0.75903000  1
  H  H73  1  0.43702000  0.85828200  0.87048600  1
  H  H74  1  0.56384700  0.85967000  0.12723700  1
  H  H75  1  0.93702000  0.35828200  0.87048600  1
  H  H76  1  0.06384700  0.35967000  0.12723700  1
  H  H77  1  0.91032400  0.19349100  0.75523500  1
  H  H78  1  0.09170300  0.19595700  0.24478600  1
  H  H79  1  0.41032400  0.69349100  0.75523500  1
  H  H80  1  0.59170300  0.69595700  0.24478600  1
  H  H81  1  0.95883300  0.13938900  0.86395600  1
  H  H82  1  0.04348500  0.14070200  0.13687100  1
  H  H83  1  0.45883300  0.63938900  0.86395600  1
  H  H84  1  0.54348500  0.64070200  0.13687100  1
  C  C1  1  0.99876000  0.99885000  0.61829900  1
  C  C2  1  0.00133600  0.00171000  0.38173600  1
  C  C3  1  0.49876000  0.49885000  0.61829900  1
  C  C4  1  0.50133600  0.50171000  0.38173600  1
  C  C5  1  0.91833500  0.99876400  0.42112000  1
  C  C6  1  0.08182200  0.00181100  0.57885900  1
  C  C7  1  0.41833500  0.49876400  0.42112000  1
  C  C8  1  0.58182200  0.50181100  0.57885900  1
  C  C9  1  0.73485100  0.02782600  0.28715400  1
  C  C10  1  0.26549200  0.02923400  0.71285500  1
  C  C11  1  0.23485100  0.52782600  0.28715400  1
  C  C12  1  0.76549200  0.52923400  0.71285500  1
  C  C13  1  0.76192600  0.97089300  0.31463800  1
  C  C14  1  0.23802800  0.97269300  0.68514000  1
  C  C15  1  0.26192600  0.47089300  0.31463800  1
  C  C16  1  0.73802800  0.47269300  0.68514000  1
  C  C17  1  0.87344700  0.99872300  0.37687700  1
  C  C18  1  0.12671000  0.00179600  0.62307800  1
  C  C19  1  0.37344700  0.49872300  0.37687700  1
  C  C20  1  0.62671000  0.50179600  0.62307800  1
  C  C21  1  0.62658100  0.99986700  0.12880900  1
  C  C22  1  0.37357300  0.99991400  0.87106800  1
  C  C23  1  0.12658100  0.49986700  0.12880900  1
  C  C24  1  0.87357300  0.49991400  0.87106800  1
  C  C25  1  0.76376100  0.05589200  0.26683900  1
  C  C26  1  0.23678200  0.05782700  0.73330600  1
  C  C27  1  0.26376100  0.55589200  0.26683900  1
  C  C28  1  0.73678200  0.55782700  0.73330600  1
  C  C29  1  0.79003600  0.99896700  0.29351800  1
  C  C30  1  0.21012100  0.00128300  0.70639700  1
  C  C31  1  0.29003600  0.49896700  0.29351800  1
  C  C32  1  0.71012100  0.50128300  0.70639700  1
  C  C33  1  0.73808500  0.02747000  0.19175900  1
  C  C34  1  0.26227400  0.02913400  0.80826200  1
  C  C35  1  0.23808500  0.52747000  0.19175900  1
  C  C36  1  0.76227400  0.52913400  0.80826200  1
  C  C37  1  0.70997000  0.99939900  0.21286700  1
  C  C38  1  0.29018500  0.00054700  0.78701500  1
  C  C39  1  0.20997000  0.49939900  0.21286700  1
  C  C40  1  0.79018500  0.50054700  0.78701500  1
  C  C41  1  0.76515100  0.97054200  0.21923200  1
  C  C42  1  0.23482000  0.97259900  0.78055800  1
  C  C43  1  0.26515100  0.47054200  0.21923200  1
  C  C44  1  0.73482000  0.47259900  0.78055800  1
  C  C45  1  0.73624300  0.94247100  0.23954400  1
  C  C46  1  0.26352300  0.94400400  0.76010500  1
  C  C47  1  0.23624300  0.44247100  0.23954400  1
  C  C48  1  0.76352300  0.44400400  0.76010500  1
  C  C49  1  0.83577800  0.99878800  0.33938700  1
  C  C50  1  0.16437900  0.00162800  0.66055000  1
  C  C51  1  0.33577800  0.49878800  0.33938700  1
  C  C52  1  0.66437900  0.50162800  0.66055000  1
  C  C53  1  0.66423600  0.99966100  0.16675500  1
  C  C54  1  0.33591800  0.00015800  0.83312100  1
  C  C55  1  0.16423600  0.49966100  0.16675500  1
  C  C56  1  0.83591800  0.50015800  0.83312100  1
  C  C57  1  0.94079600  0.92714300  0.63334300  1
  C  C58  1  0.05892900  0.92898100  0.36720700  1
  C  C59  1  0.44079600  0.42714300  0.63334300  1
  C  C60  1  0.55892900  0.42898100  0.36720700  1
  C  C61  1  0.91720600  0.88515200  0.64246500  1
  C  C62  1  0.08270000  0.88699400  0.35854000  1
  C  C63  1  0.41720600  0.38515200  0.64246500  1
  C  C64  1  0.58270000  0.38699400  0.35854000  1
  C  C65  1  0.92366800  0.87635000  0.70966900  1
  C  C66  1  0.07675900  0.87842600  0.29167400  1
  C  C67  1  0.42366800  0.37635000  0.70966900  1
  C  C68  1  0.57675900  0.37842600  0.29167400  1
  C  C69  1  0.95154100  0.91260500  0.76667300  1
  C  C70  1  0.04906600  0.91467900  0.23448700  1
  C  C71  1  0.45154100  0.41260500  0.76667300  1
  C  C72  1  0.54906600  0.41467900  0.23448700  1
  C  C73  1  0.97378500  0.95794100  0.75717400  1
  C  C74  1  0.02650400  0.95982600  0.24346400  1
  C  C75  1  0.47378500  0.45794100  0.75717400  1
  C  C76  1  0.52650400  0.45982600  0.24346400  1
  C  C77  1  0.97118900  0.96139600  0.69172100  1
  C  C78  1  0.02885600  0.96344900  0.30869300  1
  C  C79  1  0.47118900  0.46139600  0.69172100  1
  C  C80  1  0.52885600  0.46344900  0.30869300  1
  C  C81  1  0.99851700  0.99940200  0.81214200  1
  C  C82  1  0.00165500  0.00089400  0.18811200  1
  C  C83  1  0.49851700  0.49940200  0.81214200  1
  C  C84  1  0.50165500  0.50089400  0.18811200  1
  C  C85  1  0.02327800  0.04068700  0.80340000  1
  C  C86  1  0.97681200  0.04235000  0.19638700  1
  C  C87  1  0.52327800  0.54068700  0.80340000  1
  C  C88  1  0.47681200  0.54235000  0.19638700  1
  C  C89  1  0.02605600  0.03676800  0.74304900  1
  C  C90  1  0.97427600  0.03929000  0.25703400  1
  C  C91  1  0.52605600  0.53676800  0.74304900  1
  C  C92  1  0.47427600  0.53929000  0.25703400  1
  C  C93  1  0.99863200  0.99901900  0.68537400  1
  C  C94  1  0.00152900  0.00151700  0.31478500  1
  C  C95  1  0.49863200  0.49901900  0.68537400  1
  C  C96  1  0.50152900  0.50151700  0.31478500  1
  C  C97  1  0.04541500  0.08627500  0.85429100  1
  C  C98  1  0.95440500  0.08730500  0.14472400  1
  C  C99  1  0.54541500  0.58627500  0.85429100  1
  C  C100  1  0.45440500  0.58730500  0.14472400  1
  C  C101  1  0.07345200  0.12220500  0.84963000  1
  C  C102  1  0.92661500  0.12383700  0.14939000  1
  C  C103  1  0.57345200  0.62220500  0.84963000  1
  C  C104  1  0.42661500  0.62383700  0.14939000  1
  C  C105  1  0.08020700  0.11278600  0.79497800  1
  C  C106  1  0.92039600  0.11569800  0.20485500  1
  C  C107  1  0.58020700  0.61278600  0.79497800  1
  C  C108  1  0.42039600  0.61569800  0.20485500  1
  C  C109  1  0.05668700  0.07059600  0.74186600  1
  C  C110  1  0.94403600  0.07394100  0.25847500  1
  C  C111  1  0.55668700  0.57059600  0.74186600  1
  C  C112  1  0.44403600  0.57394100  0.25847500  1
  C  C113  1  0.49980500  0.11947900  0.00110000  1
  C  C114  1  0.99980500  0.61947900  0.00110000  1
  C  C115  1  0.58171800  0.00007300  0.08369500  1
  C  C116  1  0.41843500  0.99975800  0.91618500  1
  C  C117  1  0.08171800  0.50007300  0.08369500  1
  C  C118  1  0.91843500  0.49975800  0.91618500  1
  C  C119  1  0.50029000  0.88048200  0.99880400  1
  C  C120  1  0.00029000  0.38048200  0.99880400  1
  C  C121  1  0.00099400  0.11930300  0.00053100  1
  C  C122  1  0.50099400  0.61930300  0.00053100  1
  C  C123  1  0.99867300  0.99945900  0.87931800  1
  C  C124  1  0.00150200  0.00040400  0.12099500  1
  C  C125  1  0.49867300  0.49945900  0.87931800  1
  C  C126  1  0.50150200  0.50040400  0.12099500  1
  C  C127  1  0.99916700  0.88067500  0.99988100  1
  C  C128  1  0.49916700  0.38067500  0.99988100  1
  C  C129  1  0.55730800  0.18926900  0.98245000  1
  C  C130  1  0.44183400  0.18893000  0.01884500  1
  C  C131  1  0.05730800  0.68926900  0.98245000  1
  C  C132  1  0.94183400  0.68893000  0.01884500  1
  C  C133  1  0.58066300  0.22051900  0.96202000  1
  C  C134  1  0.41822100  0.22012100  0.03876800  1
  C  C135  1  0.08066300  0.72051900  0.96202000  1
  C  C136  1  0.91822100  0.72012100  0.03876800  1
  C  C137  1  0.07398400  0.78149500  0.94685000  1
  C  C138  1  0.92447300  0.78124900  0.05315000  1
  C  C139  1  0.57398400  0.28149500  0.94685000  1
  C  C140  1  0.42447300  0.28124900  0.05315000  1
  C  C141  1  0.04615700  0.81220800  0.95721600  1
  C  C142  1  0.95214900  0.81212000  0.04252900  1
  C  C143  1  0.54615700  0.31220800  0.95721600  1
  C  C144  1  0.45214900  0.31212000  0.04252900  1
  C  C145  1  0.02402800  0.78184400  0.98193700  1
  C  C146  1  0.97454700  0.78177500  0.01833100  1
  C  C147  1  0.52402800  0.28184400  0.98193700  1
  C  C148  1  0.47454700  0.28177500  0.01833100  1
  C  C149  1  0.52682900  0.21891300  0.98823300  1
  C  C150  1  0.47214800  0.21878100  0.01277900  1
  C  C151  1  0.02682900  0.71891300  0.98823300  1
  C  C152  1  0.97214800  0.71878100  0.01277900  1
  C  C153  1  0.99922200  0.81366100  0.00001700  1
  C  C154  1  0.49922200  0.31366100  0.00001700  1
  C  C155  1  0.49960300  0.18674500  0.00072900  1
  C  C156  1  0.99960300  0.68674500  0.00072900  1
  C  C157  1  0.44395200  0.81050500  0.87217600  1
  C  C158  1  0.55722200  0.81184000  0.12623100  1
  C  C159  1  0.94395200  0.31050500  0.87217600  1
  C  C160  1  0.05722200  0.31184000  0.12623100  1
  C  C161  1  0.42092900  0.77904000  0.80808300  1
  C  C162  1  0.58049500  0.78102200  0.19074200  1
  C  C163  1  0.92092900  0.27904000  0.80808300  1
  C  C164  1  0.08049500  0.28102200  0.19074200  1
  C  C165  1  0.92742700  0.21791800  0.80604900  1
  C  C166  1  0.07440000  0.21987900  0.19364300  1
  C  C167  1  0.42742700  0.71791800  0.80604900  1
  C  C168  1  0.57440000  0.71987900  0.19364300  1
  C  C169  1  0.95482500  0.18733400  0.86900400  1
  C  C170  1  0.04715800  0.18863100  0.13114100  1
  C  C171  1  0.45482500  0.68733400  0.86900400  1
  C  C172  1  0.54715800  0.68863100  0.13114100  1
  C  C173  1  0.97656900  0.21793100  0.93511100  1
  C  C174  1  0.02517000  0.21857200  0.06462100  1
  C  C175  1  0.47656900  0.71793100  0.93511100  1
  C  C176  1  0.52517000  0.71857200  0.06462100  1
  C  C177  1  0.47383400  0.78090800  0.93564700  1
  C  C178  1  0.52749200  0.78156200  0.06320700  1
  C  C179  1  0.97383400  0.28090800  0.93564700  1
  C  C180  1  0.02749200  0.28156200  0.06320700  1
  C  C181  1  0.00094300  0.18635800  0.00009000  1
  C  C182  1  0.50094300  0.68635800  0.00009000  1
  C  C183  1  0.50053200  0.81327100  0.99922200  1
  C  C184  1  0.00053200  0.31327100  0.99922200  1
  Br  Br1  1  0.10443600  0.82431900  0.91420700  1
  Br  Br2  1  0.89362600  0.82402300  0.08503700  1
  Br  Br3  1  0.60443600  0.32431900  0.91420700  1
  Br  Br4  1  0.39362600  0.32402300  0.08503700  1
  O  O1  1  0.99884200  0.05130600  0.58959900  1
  O  O2  1  0.00266800  0.05425700  0.41146000  1
  O  O3  1  0.49884200  0.55130600  0.58959900  1
  O  O4  1  0.50266800  0.55425700  0.41146000  1
  O  O5  1  0.99918100  0.94630800  0.59012700  1
  O  O6  1  0.99958300  0.94931300  0.40887100  1
  O  O7  1  0.49918100  0.44630800  0.59012700  1
  O  O8  1  0.49958300  0.44931300  0.40887100  1
  O  O9  1  0.93779500  0.05134500  0.43757700  1
  O  O10  1  0.06235600  0.05438300  0.55976900  1
  O  O11  1  0.43779500  0.55134500  0.43757700  1
  O  O12  1  0.56235600  0.55438300  0.55976900  1
  O  O13  1  0.93776900  0.94624100  0.44237300  1
  O  O14  1  0.06238400  0.94919300  0.56032400  1
  O  O15  1  0.43776900  0.44624100  0.44237300  1
  O  O16  1  0.56238400  0.44919300  0.56032400  1
  O  O17  1  0.49991700  0.09088600  0.05382500  1
  O  O18  1  0.49988500  0.09059400  0.94868000  1
  O  O19  1  0.99991700  0.59088600  0.05382500  1
  O  O20  1  0.99988500  0.59059400  0.94868000  1
  O  O21  1  0.56061700  0.00020500  0.11521500  1
  O  O22  1  0.43952800  0.99727100  0.88470300  1
  O  O23  1  0.06061700  0.50020500  0.11521500  1
  O  O24  1  0.93952800  0.49727100  0.88470300  1
  O  O25  1  0.56393900  0.99966100  0.01307900  1
  O  O26  1  0.43621200  0.00203500  0.98676200  1
  O  O27  1  0.06393900  0.49966100  0.01307900  1
  O  O28  1  0.93621200  0.50203500  0.98676200  1
  O  O29  1  0.49855100  0.90931700  0.04965400  1
  O  O30  1  0.50191300  0.90903900  0.94772000  1
  O  O31  1  0.99855100  0.40931700  0.04965400  1
  O  O32  1  0.00191300  0.40903900  0.94772000  1
  O  O33  1  0.03703900  0.09072500  0.03329700  1
  O  O34  1  0.96494800  0.09070100  0.96797600  1
  O  O35  1  0.53703900  0.59072500  0.03329700  1
  O  O36  1  0.46494800  0.59070100  0.96797600  1
  O  O37  1  0.03480500  0.99868100  0.94152700  1
  O  O38  1  0.96539800  0.99756500  0.05887000  1
  O  O39  1  0.53480500  0.49868100  0.94152700  1
  O  O40  1  0.46539800  0.49756500  0.05887000  1
  O  O41  1  0.96272600  0.00058200  0.87441900  1
  O  O42  1  0.03741600  0.00317200  0.12589200  1
  O  O43  1  0.46272600  0.50058200  0.87441900  1
  O  O44  1  0.53741600  0.50317200  0.12589200  1
  O  O45  1  0.03519000  0.90925800  0.03595100  1
  O  O46  1  0.96314700  0.90920300  0.96348400  1
  O  O47  1  0.53519000  0.40925800  0.03595100  1
  O  O48  1  0.46314700  0.40920300  0.96348400  1
