# Generated by REPEAT Assigner based on pymatgen
data_DB0-m3_o12_o27_f0_pcu.sym.76
_audit_creation_date              2022-05-24
_audit_creation_method            REPEAT_Assigner
_cell_length_a                    10.286889
_cell_length_b                    11.358618
_cell_length_c                    19.330333
_cell_angle_alpha                 90.008161
_cell_angle_beta                  80.501515
_cell_angle_gamma                 92.491023
_cell_volume                      2225.521804
_symmetry_space_group_name_H-M    P1
_symmetry_Int_Tables_number       1
loop_
    _symmetry_equiv_pos_site_id
    _symmetry_equiv_pos_as_xyz
    1  x,y,z
loop_
    _atom_site_type_symbol
    _atom_site_label
    _atom_site_fract_x
    _atom_site_fract_y
    _atom_site_fract_z
    _atom_type_partial_charge
    O   O1   0.420626  0.687633  0.513117  -0.599820
    O   O2   0.579374  0.312367  0.486883  -0.599839
    O   O3   0.644460  0.660040  0.495738  -0.670838
    O   O4   0.355541  0.339960  0.504262  -0.670785
    C   C1   0.543755  0.728543  0.504881  0.744713
    C   C2   0.456245  0.271458  0.495119  0.744651
    O   O5   0.378488  0.503213  0.611893  -0.531520
    O   O6   0.621512  0.496788  0.388107  -0.531639
    O   O7   0.601820  0.473683  0.595283  -0.490827
    O   O8   0.398181  0.526317  0.404717  -0.490885
    C   C3   0.487917  0.485018  0.636138  0.537906
    C   C4   0.512084  0.514982  0.363862  0.538109
    Zn  Zn1  0.352298  0.517870  0.510677  0.987981
    Zn  Zn2  0.647703  0.482130  0.489324  0.987993
    C   C5   0.370881  0.507592  0.757693  0.162045
    C   C6   0.629119  0.492408  0.242307  0.162264
    H   H1   0.281991  0.527071  0.737759  0.003225
    H   H2   0.718009  0.472929  0.262241  0.003227
    C   C7   0.369410  0.512437  0.829227  -0.189816
    C   C8   0.630591  0.487563  0.170773  -0.190060
    C   C9   0.483696  0.491373  0.856295  -0.071483
    C   C10  0.516305  0.508628  0.143705  -0.071178
    C   C11  0.596857  0.465642  0.810541  -0.328719
    C   C12  0.403143  0.534359  0.189459  -0.328971
    H   H3   0.686684  0.447823  0.830016  0.125584
    H   H4   0.313316  0.552178  0.169984  0.125763
    C   C13  0.597394  0.460828  0.739332  0.335410
    C   C14  0.402607  0.539172  0.260669  0.335431
    H   H5   0.687792  0.440479  0.705352  -0.015198
    H   H6   0.312209  0.559522  0.294648  -0.015252
    C   C15  0.484612  0.482597  0.712339  -0.223724
    C   C16  0.515389  0.517403  0.287661  -0.223798
    N   N1   0.606337  0.527446  0.952261  -0.369954
    N   N2   0.393663  0.472555  0.047739  -0.369986
    N   N3   0.615312  0.530709  0.019682  -0.228801
    N   N4   0.384689  0.469292  0.980318  -0.228995
    C   C17  0.509329  0.502514  0.068347  0.753844
    C   C18  0.490671  0.497487  0.931653  0.754114
    C   C19  0.572152  0.855305  0.513063  -0.147953
    C   C20  0.427848  0.144695  0.486938  -0.147980
    C   C21  0.494931  0.935712  0.491264  0.001128
    C   C22  0.505070  0.064288  0.508736  0.001283
    N   N5   0.842273  0.459864  0.475976  -0.136407
    N   N6   0.157728  0.540137  0.524024  -0.136501
    C   C23  0.927757  0.511367  0.509314  0.036084
    C   C24  0.072244  0.488634  0.490687  0.036125
    H   H7   0.123655  0.596427  0.563492  0.101047
    H   H8   0.876346  0.403573  0.436508  0.100951
    I   I1   0.192031  0.565462  0.890381  0.004910
    I   I2   0.807970  0.434538  0.109619  0.004883
    I   I3   0.594550  0.122143  0.595335  -0.005470
    I   I4   0.405451  0.877857  0.404665  -0.005456
    I   I5   0.235334  0.104365  0.465783  0.083968
    I   I6   0.764667  0.895636  0.534217  0.084043
    I   I7   0.141414  0.371695  0.407866  0.132565
    I   I8   0.858587  0.628305  0.592134  0.132611
