# Generated by REPEAT Assigner based on pymatgen
data_DB0-m3_o160_o96_f0_fsc.sym.1_sqe
_audit_creation_date              2022-05-24
_audit_creation_method            REPEAT_Assigner
_cell_length_a                    13.331045
_cell_length_b                    13.306164
_cell_length_c                    16.229797
_cell_angle_alpha                 94.727007
_cell_angle_beta                  90.046272
_cell_angle_gamma                 90.615649
_cell_volume                      2868.961658
_symmetry_space_group_name_H-M    P1
_symmetry_Int_Tables_number       1
loop_
    _symmetry_equiv_pos_site_id
    _symmetry_equiv_pos_as_xyz
    1  x,y,z
loop_
    _atom_site_type_symbol
    _atom_site_label
    _atom_site_fract_x
    _atom_site_fract_y
    _atom_site_fract_z
    _atom_type_partial_charge
    C   C1   0.820754  0.030697  0.215927  0.058338
    C   C2   0.759104  0.071013  0.160917  0.025461
    C   C3   0.809575  0.070908  0.087178  0.308873
    N   N1   0.903193  0.035241  0.096278  -0.481398
    C   C4   0.910659  0.012019  0.175920  0.321548
    C   C5   0.767334  0.094533  0.016452  -0.378836
    C   C6   0.809384  0.071700  0.933404  0.124432
    C   C7   0.753212  0.056865  0.861892  0.062409
    C   C8   0.817315  0.033461  0.798077  0.132944
    C   C9   0.913143  0.035538  0.832509  0.075931
    N   N2   0.907093  0.060269  0.914932  -0.145399
    C   C10  0.008088  0.019509  0.787543  -0.370794
    C   C11  0.091704  0.988425  0.823165  0.315264
    C   C12  0.181605  0.969718  0.783165  0.062012
    C   C13  0.243215  0.929309  0.838151  0.015250
    C   C14  0.192726  0.929398  0.911879  0.328446
    N   N3   0.099136  0.965140  0.902791  -0.487264
    C   C15  0.234946  0.905727  0.982595  -0.393070
    C   C16  0.192937  0.928681  0.065637  0.131397
    C   C17  0.249151  0.943630  0.137115  0.061240
    C   C18  0.185085  0.967129  0.200937  0.136264
    C   C19  0.089235  0.964986  0.166544  0.073125
    N   N4   0.095238  0.940133  0.084135  -0.148777
    C   C20  0.994310  0.981021  0.211541  -0.373441
    H   H1   0.690885  0.120229  0.018514  0.162170
    H   H2   0.008086  0.028461  0.721859  0.174588
    H   H3   0.311373  0.879966  0.980531  0.165826
    H   H4   0.994347  0.972124  0.277233  0.174383
    H   H5   0.966197  0.075565  0.956080  0.260826
    H   H6   0.036115  0.924764  0.043018  0.257255
    C   C21  0.350557  0.936403  0.148994  -0.214691
    C   C22  0.386766  0.952503  0.228595  -0.095837
    C   C23  0.323919  0.979747  0.294766  -0.044539
    C   C24  0.220598  0.987201  0.281432  -0.268488
    C   C25  0.787498  0.009720  0.293206  -0.319003
    C   C26  0.689822  0.035844  0.313314  0.060203
    C   C27  0.630534  0.084566  0.258979  -0.096629
    C   C28  0.663537  0.100313  0.181114  -0.227425
    C   C29  0.651810  0.064092  0.849977  -0.211271
    C   C30  0.615648  0.048078  0.770353  -0.102823
    C   C31  0.678539  0.020951  0.704184  -0.028409
    C   C32  0.781854  0.013501  0.717553  -0.271035
    C   C33  0.214898  0.990766  0.705921  -0.317539
    C   C34  0.312571  0.964636  0.685822  0.055708
    C   C35  0.371827  0.915826  0.740119  -0.102262
    C   C36  0.338782  0.899993  0.817956  -0.221184
    H   H7   0.401388  0.916442  0.098685  0.132175
    H   H8   0.170086  0.005362  0.332415  0.130171
    H   H9   0.834177  0.973465  0.336154  0.137064
    H   H10  0.555120  0.106538  0.276200  0.120337
    H   H11  0.614270  0.134377  0.138835  0.122731
    H   H12  0.600944  0.083962  0.900281  0.133551
    H   H13  0.832396  0.995393  0.666581  0.132741
    H   H14  0.168256  0.027101  0.662994  0.136423
    H   H15  0.447238  0.893856  0.722885  0.123870
    H   H16  0.388020  0.865865  0.860220  0.119229
    H   H17  0.465895  0.943312  0.239566  0.132664
    H   H18  0.536518  0.057226  0.759358  0.133841
    O   O1   0.391393  0.079578  0.413694  -0.687260
    O   O2   0.414552  0.908323  0.400251  -0.724108
    C   C37  0.371788  0.989495  0.377041  0.824557
    O   O3   0.621524  0.924652  0.407423  -0.702645
    O   O4   0.598983  0.096609  0.427421  -0.687874
    C   C38  0.643303  0.017863  0.391422  0.741633
    O   O5   0.610956  0.920824  0.585422  -0.678083
    O   O6   0.588186  0.092688  0.598627  -0.671957
    C   C39  0.630675  0.011183  0.621902  0.779881
    O   O7   0.381078  0.075752  0.591815  -0.700296
    O   O8   0.403293  0.904209  0.571578  -0.719454
    C   C40  0.359085  0.982724  0.607744  0.755073
    Zn  Zn1  0.516060  0.889074  0.489511  1.066143
    Zn  Zn2  0.486280  0.111505  0.509577  1.066753
    C   C41  0.566095  0.294147  0.530207  -0.314120
    N   N5   0.478293  0.243446  0.519732  0.117716
    C   C42  0.394342  0.292944  0.503068  -0.156507
    C   C43  0.397467  0.395596  0.495574  -0.052875
    C   C44  0.488045  0.448957  0.503831  -0.312197
    C   C45  0.572312  0.396362  0.522888  0.733824
    C   C46  0.418794  0.610749  0.472743  -0.262064
    C   C47  0.498200  0.551905  0.493260  0.348580
    C   C48  0.591235  0.598408  0.504360  -0.077205
    C   C49  0.672707  0.542399  0.524259  0.268050
    N   N6   0.662070  0.443187  0.532488  -0.655713
    C   C50  0.432646  0.712143  0.467038  -0.053382
    N   N7   0.523242  0.757008  0.479309  0.084431
    C   C51  0.602715  0.701346  0.497701  -0.133633
    H   H19  0.324390  0.252020  0.492792  0.158070
    H   H20  0.674632  0.737643  0.510372  0.145570
    H   H21  0.745674  0.577883  0.533079  0.088400
    H   H22  0.327476  0.429802  0.481509  0.121094
    H   H23  0.343648  0.582232  0.462799  0.162789
    H   H24  0.634442  0.254312  0.540624  0.172539
    H   H25  0.366957  0.755856  0.456688  0.155694
