# Generated by REPEAT Assigner based on pymatgen
data_DB0-m3_o15_o21_f0_pcu.sym.15
_audit_creation_date              2022-05-24
_audit_creation_method            REPEAT_Assigner
_cell_length_a                    9.884354
_cell_length_b                    11.041371
_cell_length_c                    14.078595
_cell_angle_alpha                 89.988413
_cell_angle_beta                  85.263843
_cell_angle_gamma                 89.998901
_cell_volume                      1531.246587
_symmetry_space_group_name_H-M    P1
_symmetry_Int_Tables_number       1
loop_
    _symmetry_equiv_pos_site_id
    _symmetry_equiv_pos_as_xyz
    1  x,y,z
loop_
    _atom_site_type_symbol
    _atom_site_label
    _atom_site_fract_x
    _atom_site_fract_y
    _atom_site_fract_z
    _atom_type_partial_charge
    O   O1   0.387168  0.684253  0.494832  -0.640502
    O   O2   0.612832  0.315748  0.505168  -0.640470
    O   O3   0.618723  0.676338  0.493631  -0.613175
    O   O4   0.381277  0.323663  0.506369  -0.613168
    C   C1   0.506654  0.738740  0.489442  0.736061
    C   C2   0.493346  0.261260  0.510558  0.736057
    O   O5   0.363993  0.510065  0.642090  -0.708264
    O   O6   0.636007  0.489936  0.357910  -0.708249
    O   O7   0.596595  0.500988  0.641770  -0.701449
    O   O8   0.403405  0.499013  0.358231  -0.701465
    C   C3   0.475279  0.507019  0.686298  0.942635
    C   C4   0.524721  0.492982  0.313703  0.942730
    Zn  Zn1  0.346062  0.504146  0.499783  1.022977
    Zn  Zn2  0.653938  0.495855  0.500218  1.022951
    C   C5   0.535879  0.489851  0.211458  -0.319381
    C   C6   0.464121  0.510149  0.788542  -0.319276
    C   C7   0.553477  0.484924  0.023151  -0.061406
    C   C8   0.446523  0.515077  0.976849  -0.061319
    C   C9   0.455767  0.512489  0.874398  0.062150
    C   C10  0.544232  0.487511  0.125603  0.062230
    H   H1   0.352377  0.541604  0.016307  0.145174
    H   H2   0.647623  0.458396  0.983693  0.145198
    H   H3   0.949318  0.918097  0.565332  0.013314
    H   H4   0.050682  0.081904  0.434669  0.013337
    C   C11  0.305511  0.883535  0.402719  -0.198477
    C   C12  0.694489  0.116466  0.597282  -0.198444
    C   C13  0.182614  0.936846  0.391511  -0.083258
    C   C14  0.817386  0.063154  0.608489  -0.083324
    C   C15  0.151280  0.044269  0.436205  0.107090
    C   C16  0.848720  0.955731  0.563796  0.107225
    C   C17  0.248751  0.105462  0.481267  -0.274275
    C   C18  0.751249  0.894539  0.518734  -0.274380
    C   C19  0.379046  0.058285  0.484781  0.212526
    C   C20  0.620954  0.941715  0.515219  0.212596
    C   C21  0.399079  0.937977  0.457832  0.104800
    C   C22  0.600921  0.062024  0.542169  0.104757
    C   C23  0.486363  0.125297  0.518257  -0.239726
    C   C24  0.513637  0.874704  0.481743  -0.239726
    H   H5   0.327566  0.799776  0.365083  0.154308
    H   H6   0.672434  0.200225  0.634917  0.154312
    H   H7   0.108946  0.891693  0.351238  0.087218
    H   H8   0.891054  0.108308  0.648763  0.087211
    H   H9   0.214920  0.185299  0.519645  0.126297
    H   H10  0.785080  0.814702  0.480356  0.126305
    H   H11  0.904215  0.218338  0.266828  0.131667
    H   H12  0.095785  0.781662  0.733172  0.131662
    C   C25  0.846712  0.646755  0.624637  -0.216843
    C   C26  0.153288  0.353246  0.375363  -0.216724
    C   C27  0.906403  0.718780  0.689148  0.146706
    C   C28  0.093596  0.281221  0.310852  0.146573
    C   C29  0.044617  0.723079  0.686168  -0.153123
    C   C30  0.955383  0.276922  0.313832  -0.153060
    C   C31  0.120654  0.655408  0.620125  -0.134614
    C   C32  0.879346  0.344593  0.379876  -0.134687
    C   C33  0.062806  0.575534  0.558779  0.121760
    C   C34  0.937194  0.424467  0.441221  0.121829
    C   C35  0.921189  0.570659  0.561097  0.189710
    C   C36  0.078811  0.429342  0.438904  0.189648
    N   N1   0.142579  0.505152  0.497660  -0.161947
    N   N2   0.857421  0.494849  0.502340  -0.161980
    H   H13  0.740567  0.654618  0.624344  0.196474
    H   H14  0.259433  0.345382  0.375656  0.196415
    H   H15  0.226621  0.669326  0.619140  0.202240
    H   H16  0.773379  0.330674  0.380860  0.202234
    N   N3   0.825645  0.791952  0.755749  0.545087
    O   O9   0.883606  0.862035  0.814540  -0.370505
    O   O10  0.693838  0.787224  0.759742  -0.371439
    N   N4   0.174355  0.208048  0.244252  0.545228
    O   O11  0.116394  0.137965  0.185460  -0.370574
    O   O12  0.306162  0.212776  0.240258  -0.371464
