# generated using pymatgen
data_ZnH18C19NO8
_symmetry_space_group_name_H-M   'P 1'
_cell_length_a   16.13749400
_cell_length_b   14.98591900
_cell_length_c   10.79934900
_cell_angle_alpha   90.00000000
_cell_angle_beta   89.99706300
_cell_angle_gamma   90.00000000
_symmetry_Int_Tables_number   1
_chemical_formula_structural   ZnH18C19NO8
_chemical_formula_sum   'Zn2 H36 C38 N2 O16'
_cell_volume   2611.66248370
_cell_formula_units_Z   2
loop_
 _symmetry_equiv_pos_site_id
 _symmetry_equiv_pos_as_xyz
  1  'x, y, z'
loop_
 _atom_site_type_symbol
 _atom_site_label
 _atom_site_symmetry_multiplicity
 _atom_site_fract_x
 _atom_site_fract_y
 _atom_site_fract_z
 _atom_site_occupancy
  Zn  Zn1  1  0.50723700  0.60146500  0.47885800  1
  Zn  Zn2  1  0.50718600  0.39851200  0.47894800  1
  H  H1  1  0.51321400  0.64094800  0.06504600  1
  H  H2  1  0.47438600  0.35769700  0.09171800  1
  H  H3  1  0.47454800  0.64229400  0.86611400  1
  H  H4  1  0.51302300  0.35897800  0.89279000  1
  H  H5  1  0.63129100  0.54147500  0.09405300  1
  H  H6  1  0.61489800  0.42395900  0.06805300  1
  H  H7  1  0.61503700  0.57581100  0.88990500  1
  H  H8  1  0.63127000  0.45826700  0.86391900  1
  H  H9  1  0.93060600  0.64187300  0.48034900  1
  H  H10  1  0.93063800  0.35780300  0.48124800  1
  H  H11  1  0.39020200  0.08184500  0.39275400  1
  H  H12  1  0.39027600  0.91790600  0.39300400  1
  H  H13  1  0.61573300  0.81281000  0.71623200  1
  H  H14  1  0.55886900  0.91592000  0.73307500  1
  H  H15  1  0.66812200  0.91244700  0.76913800  1
  H  H16  1  0.55890100  0.08613900  0.73202600  1
  H  H17  1  0.61745100  0.18812000  0.71488500  1
  H  H18  1  0.66819500  0.08758700  0.76810600  1
  H  H19  1  0.41150600  0.73925100  0.04903700  1
  H  H20  1  0.43341300  0.71621500  0.21096400  1
  H  H21  1  0.32857200  0.72171000  0.15635100  1
  H  H22  1  0.36872700  0.35884700  0.23361600  1
  H  H23  1  0.34684300  0.29742700  0.09157200  1
  H  H24  1  0.27107500  0.37010700  0.15748800  1
  H  H25  1  0.36893100  0.64109000  0.72411100  1
  H  H26  1  0.34701000  0.70264900  0.86602300  1
  H  H27  1  0.27124300  0.62994300  0.80016400  1
  H  H28  1  0.41113200  0.26081000  0.90843800  1
  H  H29  1  0.43326300  0.28402800  0.74663300  1
  H  H30  1  0.32835100  0.27863200  0.80095300  1
  H  H31  1  0.15271200  0.72283100  0.62194200  1
  H  H32  1  0.08550900  0.63267200  0.66794600  1
  H  H33  1  0.04148400  0.73761500  0.61660100  1
  H  H34  1  0.08584300  0.36757300  0.66882900  1
  H  H35  1  0.15238200  0.27674600  0.62319300  1
  H  H36  1  0.04105900  0.26284700  0.61805900  1
  C  C1  1  0.34523300  0.50003700  0.47900200  1
  C  C2  1  0.50578400  0.50007100  0.23616000  1
  C  C3  1  0.66917700  0.49992600  0.47884600  1
  C  C4  1  0.50586400  0.49990200  0.72174100  1
  C  C5  1  0.46671300  0.58776900  0.04821100  1
  C  C6  1  0.45228400  0.42045900  0.04869300  1
  C  C7  1  0.45239600  0.57955700  0.90915300  1
  C  C8  1  0.46660600  0.41224400  0.90962600  1
  C  C9  1  0.59062200  0.49174000  0.04830400  1
  C  C10  1  0.50273100  0.49994800  0.09717200  1
  C  C11  1  0.50277200  0.50001000  0.86071400  1
  C  C12  1  0.59065700  0.50807200  0.90964100  1
  C  C13  1  0.96432900  0.57954300  0.48185800  1
  C  C14  1  0.96435100  0.42014800  0.48236800  1
  C  C15  1  0.92166800  0.49984000  0.48159600  1
  C  C16  1  0.04989600  0.42002200  0.48392600  1
  C  C17  1  0.04986800  0.57969800  0.48341300  1
  C  C18  1  0.09263700  0.49987200  0.48269900  1
  C  C19  1  0.83275400  0.49985000  0.48027900  1
  C  C20  1  0.18161600  0.49993300  0.48092300  1
  C  C21  1  0.25629600  0.50001100  0.47982800  1
  C  C22  1  0.75808900  0.49988700  0.47946100  1
  C  C23  1  0.44129800  0.95396900  0.43425300  1
  C  C24  1  0.44126700  0.04589900  0.43408400  1
  C  C25  1  0.50689500  0.90791300  0.48520900  1
  C  C26  1  0.50687800  0.09208700  0.48476000  1
  C  C27  1  0.57200700  0.95386700  0.53886400  1
  C  C28  1  0.57203400  0.04629700  0.53852600  1
  C  C29  1  0.50729000  0.81211800  0.48150000  1
  C  C30  1  0.50717200  0.18786700  0.48107100  1
  C  C31  1  0.61931100  0.88638000  0.70656600  1
  C  C32  1  0.61982100  0.11446800  0.70545500  1
  C  C33  1  0.39230900  0.70053800  0.13167800  1
  C  C34  1  0.33847800  0.36121500  0.14174400  1
  C  C35  1  0.33864200  0.63882200  0.81596300  1
  C  C36  1  0.39208700  0.29966500  0.82586100  1
  C  C37  1  0.09277600  0.68935800  0.60282500  1
  C  C38  1  0.09267300  0.31066300  0.60398300  1
  N  N1  1  0.50730600  0.26505500  0.47886900  1
  N  N2  1  0.50744900  0.73492600  0.47910100  1
  O  O1  1  0.38373600  0.57712900  0.47903100  1
  O  O2  1  0.38370500  0.42293900  0.47899600  1
  O  O3  1  0.50717100  0.57698900  0.29433100  1
  O  O4  1  0.50746600  0.42319400  0.29447700  1
  O  O5  1  0.63068200  0.57689800  0.47853500  1
  O  O6  1  0.63064500  0.42298100  0.47924700  1
  O  O7  1  0.50756500  0.57674300  0.66340900  1
  O  O8  1  0.50719800  0.42302600  0.66355200  1
  O  O9  1  0.63900000  0.90818800  0.58415300  1
  O  O10  1  0.63916400  0.09211400  0.58311500  1
  O  O11  1  0.39186400  0.60853000  0.10776300  1
  O  O12  1  0.36750100  0.43357700  0.07189800  1
  O  O13  1  0.36760000  0.56651200  0.88596700  1
  O  O14  1  0.39173500  0.39163900  0.85003300  1
  O  O15  1  0.09223600  0.65876000  0.48062600  1
  O  O16  1  0.09228600  0.34096200  0.48163800  1
