# generated using pymatgen
data_Cu3H30C48(N2O5)4
_symmetry_space_group_name_H-M   'P 1'
_cell_length_a   36.58402100
_cell_length_b   30.04283800
_cell_length_c   21.61917600
_cell_angle_alpha   90.00000000
_cell_angle_beta   55.24870800
_cell_angle_gamma   90.00000000
_symmetry_Int_Tables_number   1
_chemical_formula_structural   Cu3H30C48(N2O5)4
_chemical_formula_sum   'Cu12 H120 C192 N32 O80'
_cell_volume   19523.15390199
_cell_formula_units_Z   4
loop_
 _symmetry_equiv_pos_site_id
 _symmetry_equiv_pos_as_xyz
  1  'x, y, z'
loop_
 _atom_site_type_symbol
 _atom_site_label
 _atom_site_symmetry_multiplicity
 _atom_site_fract_x
 _atom_site_fract_y
 _atom_site_fract_z
 _atom_site_occupancy
  Cu  Cu1  1  0.00000000  0.53821700  0.50000000  1
  Cu  Cu2  1  0.49954700  0.49419200  0.94015800  1
  Cu  Cu3  1  0.00045300  0.99419200  0.05984200  1
  Cu  Cu4  1  0.99954700  0.99419200  0.94015800  1
  Cu  Cu5  1  0.50000000  0.03821700  0.50000000  1
  Cu  Cu6  1  0.00000000  0.45097700  0.50000000  1
  Cu  Cu7  1  0.50000000  0.95097700  0.50000000  1
  Cu  Cu8  1  0.95667600  0.49443700  0.04140600  1
  Cu  Cu9  1  0.04332300  0.49443700  0.95859400  1
  Cu  Cu10  1  0.45667600  0.99443700  0.04140600  1
  Cu  Cu11  1  0.54332300  0.99443700  0.95859400  1
  Cu  Cu12  1  0.50045300  0.49419200  0.05984200  1
  H  H1  1  0.06416800  0.63341300  0.89518200  1
  H  H2  1  0.87072100  0.57630100  0.31592500  1
  H  H3  1  0.84014700  0.58912100  0.55215000  1
  H  H4  1  0.68351100  0.03943700  0.44203800  1
  H  H5  1  0.65985200  0.08912100  0.44785000  1
  H  H6  1  0.31648900  0.03943700  0.55796200  1
  H  H7  1  0.34014700  0.08912100  0.55215000  1
  H  H8  1  0.87098100  0.45220800  0.97721300  1
  H  H9  1  0.87612700  0.48270000  0.90704000  1
  H  H10  1  0.12902000  0.45220800  0.02278700  1
  H  H11  1  0.12387300  0.48270000  0.09296000  1
  H  H12  1  0.37098100  0.95220800  0.97721300  1
  H  H13  1  0.62927900  0.07630100  0.68407500  1
  H  H14  1  0.37612700  0.98270000  0.90704000  1
  H  H15  1  0.62902000  0.95220800  0.02278700  1
  H  H16  1  0.62387300  0.98270000  0.09295900  1
  H  H17  1  0.13981300  0.36540000  0.43582600  1
  H  H18  1  0.17682500  0.38586900  0.45159000  1
  H  H19  1  0.86018700  0.36540000  0.56417400  1
  H  H20  1  0.82317400  0.38587000  0.54841000  1
  H  H21  1  0.63981300  0.86540000  0.43582600  1
  H  H22  1  0.67682500  0.88586900  0.45159000  1
  H  H23  1  0.36018700  0.86540100  0.56417400  1
  H  H24  1  0.37072100  0.07630100  0.31592500  1
  H  H25  1  0.32317400  0.88587000  0.54841000  1
  H  H26  1  0.06647800  0.54786700  0.79860800  1
  H  H27  1  0.93352200  0.54786700  0.20139200  1
  H  H28  1  0.56647800  0.04786700  0.79860800  1
  H  H29  1  0.43352200  0.04786700  0.20139200  1
  H  H30  1  0.22809800  0.44374500  0.32514400  1
  H  H31  1  0.77190200  0.44374500  0.67485600  1
  H  H32  1  0.72809800  0.94374500  0.32514400  1
  H  H33  1  0.93583200  0.63341300  0.10481800  1
  H  H34  1  0.27190200  0.94374500  0.67485600  1
  H  H35  1  0.13441000  0.55331000  0.30921500  1
  H  H36  1  0.86559000  0.55331000  0.69078500  1
  H  H37  1  0.63440900  0.05331000  0.30921500  1
  H  H38  1  0.36559000  0.05331000  0.69078500  1
  H  H39  1  0.21458500  0.55691600  0.22255800  1
  H  H40  1  0.78541500  0.55691600  0.77744200  1
  H  H41  1  0.71458500  0.05691600  0.22255800  1
  H  H42  1  0.28541500  0.05691600  0.77744200  1
  H  H43  1  0.36382300  0.54224500  0.20697000  1
  H  H44  1  0.56416800  0.13341200  0.89518200  1
  H  H45  1  0.63617700  0.54224500  0.79303000  1
  H  H46  1  0.86382300  0.04224500  0.20697000  1
  H  H47  1  0.13617700  0.04224500  0.79303000  1
  H  H48  1  0.35955700  0.45037900  0.06138900  1
  H  H49  1  0.64044300  0.45037900  0.93861100  1
  H  H50  1  0.85955700  0.95037900  0.06138900  1
  H  H51  1  0.14044300  0.95037900  0.93861100  1
  H  H52  1  0.47248600  0.35510700  0.11785900  1
  H  H53  1  0.52751400  0.35510700  0.88214100  1
  H  H54  1  0.97248600  0.85510700  0.11785900  1
  H  H55  1  0.43583200  0.13341300  0.10481800  1
  H  H56  1  0.02751400  0.85510700  0.88214100  1
  H  H57  1  0.06428300  0.71400300  0.89571900  1
  H  H58  1  0.93571700  0.71400300  0.10428100  1
  H  H59  1  0.56428300  0.21400300  0.89571900  1
  H  H60  1  0.43571700  0.21400300  0.10428100  1
  H  H61  1  0.47291500  0.27454000  0.11753600  1
  H  H62  1  0.52708500  0.27453900  0.88246400  1
  H  H63  1  0.97291500  0.77454000  0.11753600  1
  H  H64  1  0.02708500  0.77453900  0.88246400  1
  H  H65  1  0.05995000  0.35623600  0.99424600  1
  H  H66  1  0.08074500  0.52351000  0.56213800  1
  H  H67  1  0.94005000  0.35623600  0.00575400  1
  H  H68  1  0.55995000  0.85623600  0.99424600  1
  H  H69  1  0.44005000  0.85623600  0.00575400  1
  H  H70  1  0.44181700  0.71560800  0.11111100  1
  H  H71  1  0.55818300  0.71560800  0.88888900  1
  H  H72  1  0.94181700  0.21560800  0.11111100  1
  H  H73  1  0.05818300  0.21560800  0.88888900  1
  H  H74  1  0.27755100  0.58575400  0.38419200  1
  H  H75  1  0.29496200  0.53233100  0.36672300  1
  H  H76  1  0.72244900  0.58575400  0.61580800  1
  H  H77  1  0.91925500  0.52351000  0.43786200  1
  H  H78  1  0.70503800  0.53233100  0.63327700  1
  H  H79  1  0.77755100  0.08575400  0.38419200  1
  H  H80  1  0.79496200  0.03233100  0.36672300  1
  H  H81  1  0.22244900  0.08575400  0.61580800  1
  H  H82  1  0.20503800  0.03233100  0.63327700  1
  H  H83  1  0.21012300  0.45371200  0.16301400  1
  H  H84  1  0.24413400  0.49827200  0.11877500  1
  H  H85  1  0.78987600  0.45371200  0.83698600  1
  H  H86  1  0.75586600  0.49827200  0.88122500  1
  H  H87  1  0.71012300  0.95371200  0.16301400  1
  H  H88  1  0.58074500  0.02351000  0.56213800  1
  H  H89  1  0.74413400  0.99827200  0.11877500  1
  H  H90  1  0.28987600  0.95371200  0.83698600  1
  H  H91  1  0.25586600  0.99827200  0.88122500  1
  H  H92  1  0.13133800  0.26940700  0.97233300  1
  H  H93  1  0.12587300  0.29215500  0.90660000  1
  H  H94  1  0.86866200  0.26940700  0.02766700  1
  H  H95  1  0.87412700  0.29215500  0.09340000  1
  H  H96  1  0.63133800  0.76940700  0.97233300  1
  H  H97  1  0.62587300  0.79215500  0.90660000  1
  H  H98  1  0.36866200  0.76940700  0.02766700  1
  H  H99  1  0.41925500  0.02351000  0.43786200  1
  H  H100  1  0.37412700  0.79215500  0.09340000  1
  H  H101  1  0.90984700  0.51517400  0.74450400  1
  H  H102  1  0.86862600  0.47814500  0.79635900  1
  H  H103  1  0.09015300  0.51517400  0.25549500  1
  H  H104  1  0.13137400  0.47814500  0.20364200  1
  H  H105  1  0.40984700  0.01517400  0.74450400  1
  H  H106  1  0.36862600  0.97814500  0.79635900  1
  H  H107  1  0.59015300  0.01517400  0.25549500  1
  H  H108  1  0.63137400  0.97814500  0.20364200  1
  H  H109  1  0.36476000  0.62691600  0.18089600  1
  H  H110  1  0.12927900  0.57630100  0.68407500  1
  H  H111  1  0.38036700  0.65503200  0.22993600  1
  H  H112  1  0.63524000  0.62691600  0.81910400  1
  H  H113  1  0.61963300  0.65503200  0.77006400  1
  H  H114  1  0.86476000  0.12691600  0.18089600  1
  H  H115  1  0.88036700  0.15503200  0.22993600  1
  H  H116  1  0.13524000  0.12691600  0.81910400  1
  H  H117  1  0.11963300  0.15503200  0.77006400  1
  H  H118  1  0.18351100  0.53943700  0.44203800  1
  H  H119  1  0.15985200  0.58912100  0.44785000  1
  H  H120  1  0.81648900  0.53943700  0.55796200  1
  C  C1  1  0.08485600  0.49491800  0.41802200  1
  C  C2  1  0.96423300  0.65070800  0.05843200  1
  C  C3  1  0.72523300  0.50218200  0.78407700  1
  C  C4  1  0.77476700  0.00218200  0.21592300  1
  C  C5  1  0.22523300  0.00218200  0.78407700  1
  C  C6  1  0.00000000  0.62749800  0.00000000  1
  C  C7  1  0.50000000  0.12749800  0.00000000  1
  C  C8  1  0.03566000  0.69658400  0.94144000  1
  C  C9  1  0.96434000  0.69658400  0.05856000  1
  C  C10  1  0.53566000  0.19658400  0.94144000  1
  C  C11  1  0.46434000  0.19658400  0.05856000  1
  C  C12  1  0.50000000  0.72003200  0.00000000  1
  C  C13  1  0.53576700  0.15070800  0.94156800  1
  C  C14  1  0.00000000  0.22003200  0.00000000  1
  C  C15  1  0.00000000  0.71983500  0.00000000  1
  C  C16  1  0.50000000  0.21983500  0.00000000  1
  C  C17  1  0.00000000  0.41013500  0.00000000  1
  C  C18  1  0.50000000  0.91013500  0.00000000  1
  C  C19  1  0.00073200  0.49515000  0.88214000  1
  C  C20  1  0.99926800  0.49515000  0.11786000  1
  C  C21  1  0.50073200  0.99515000  0.88214000  1
  C  C22  1  0.49926800  0.99515000  0.11786000  1
  C  C23  1  0.48445300  0.29195700  0.06573200  1
  C  C24  1  0.46423300  0.15070800  0.05843200  1
  C  C25  1  0.51554700  0.29195700  0.93426900  1
  C  C26  1  0.98445300  0.79195700  0.06573200  1
  C  C27  1  0.01554700  0.79195700  0.93426900  1
  C  C28  1  0.00000000  0.57872200  0.00000000  1
  C  C29  1  0.50000000  0.07872200  0.00000000  1
  C  C30  1  0.50000000  0.40985900  0.00000000  1
  C  C31  1  0.00000000  0.90985900  0.00000000  1
  C  C32  1  0.41570900  0.49440900  0.08220700  1
  C  C33  1  0.58429100  0.49440900  0.91779300  1
  C  C34  1  0.91570900  0.99440900  0.08220700  1
  C  C35  1  0.50000000  0.62755600  0.00000000  1
  C  C36  1  0.08429100  0.99440900  0.91779300  1
  C  C37  1  0.48461600  0.33783500  0.06570700  1
  C  C38  1  0.51538400  0.33783500  0.93429400  1
  C  C39  1  0.98461600  0.83783500  0.06570700  1
  C  C40  1  0.01538400  0.83783500  0.93429400  1
  C  C41  1  0.50000000  0.57858400  0.00000000  1
  C  C42  1  0.00000000  0.07858400  0.00000000  1
  C  C43  1  0.03378400  0.29225000  0.99738100  1
  C  C44  1  0.96621600  0.29225000  0.00261900  1
  C  C45  1  0.53378400  0.79225000  0.99738100  1
  C  C46  1  0.00000000  0.12755600  0.00000000  1
  C  C47  1  0.46621600  0.79225000  0.00261900  1
  C  C48  1  0.03396100  0.33822600  0.99563000  1
  C  C49  1  0.96603900  0.33822600  0.00437000  1
  C  C50  1  0.53396100  0.83822600  0.99563000  1
  C  C51  1  0.46603900  0.83822600  0.00437000  1
  C  C52  1  0.00000000  0.36131600  0.00000000  1
  C  C53  1  0.50000000  0.86131600  0.00000000  1
  C  C54  1  0.50000000  0.26870500  0.00000000  1
  C  C55  1  0.00000000  0.76870500  0.00000000  1
  C  C56  1  0.50000000  0.36106100  0.00000000  1
  C  C57  1  0.07578100  0.52929400  0.61547600  1
  C  C58  1  0.00000000  0.86106100  0.00000000  1
  C  C59  1  0.00000000  0.26885700  0.00000000  1
  C  C60  1  0.50000000  0.76885700  0.00000000  1
  C  C61  1  0.46707600  0.69706800  0.06224700  1
  C  C62  1  0.53292400  0.69706800  0.93775300  1
  C  C63  1  0.96707600  0.19706800  0.06224700  1
  C  C64  1  0.03292400  0.19706800  0.93775300  1
  C  C65  1  0.46695000  0.65111300  0.06337600  1
  C  C66  1  0.53305000  0.65111300  0.93662400  1
  C  C67  1  0.96695000  0.15111300  0.06337600  1
  C  C68  1  0.92421900  0.52929400  0.38452400  1
  C  C69  1  0.03305000  0.15111300  0.93662400  1
  C  C70  1  0.27808900  0.55694000  0.30009900  1
  C  C71  1  0.72191100  0.55694000  0.69990100  1
  C  C72  1  0.77808900  0.05694000  0.30009900  1
  C  C73  1  0.22191100  0.05694000  0.69990100  1
  C  C74  1  0.27274700  0.44555300  0.13341100  1
  C  C75  1  0.72725300  0.44555300  0.86658900  1
  C  C76  1  0.77274700  0.94555300  0.13341100  1
  C  C77  1  0.22725300  0.94555300  0.86658900  1
  C  C78  1  0.06914900  0.26978500  0.99888600  1
  C  C79  1  0.57578100  0.02929400  0.61547600  1
  C  C80  1  0.93085100  0.26978500  0.00111400  1
  C  C81  1  0.56914900  0.76978500  0.99888600  1
  C  C82  1  0.43085100  0.76978500  0.00111400  1
  C  C83  1  0.92998000  0.45488700  0.75388600  1
  C  C84  1  0.07002000  0.45488700  0.24611500  1
  C  C85  1  0.42998000  0.95488700  0.75388600  1
  C  C86  1  0.57002000  0.95488700  0.24611500  1
  C  C87  1  0.43058900  0.62906600  0.13226700  1
  C  C88  1  0.56941100  0.62906600  0.86773300  1
  C  C89  1  0.93058900  0.12906600  0.13226700  1
  C  C90  1  0.42421900  0.02929400  0.38452400  1
  C  C91  1  0.06941100  0.12906600  0.86773300  1
  C  C92  1  0.14899800  0.56696200  0.54451300  1
  C  C93  1  0.85100200  0.56696200  0.45548700  1
  C  C94  1  0.64899800  0.06696200  0.54451300  1
  C  C95  1  0.35100200  0.06696200  0.45548700  1
  C  C96  1  0.93217900  0.45213400  0.88126100  1
  C  C97  1  0.06782100  0.45213400  0.11873900  1
  C  C98  1  0.43217900  0.95213400  0.88126100  1
  C  C99  1  0.56782100  0.95213400  0.11873900  1
  C  C100  1  0.14397200  0.43195800  0.43420800  1
  C  C101  1  0.10900000  0.55114700  0.61535800  1
  C  C102  1  0.85602700  0.43195800  0.56579200  1
  C  C103  1  0.64397200  0.93195800  0.43420800  1
  C  C104  1  0.35602700  0.93195800  0.56579200  1
  C  C105  1  0.91514400  0.49491800  0.58197800  1
  C  C106  1  0.89100000  0.55114700  0.38464200  1
  C  C107  1  0.60900000  0.05114700  0.61535800  1
  C  C108  1  0.39100000  0.05114700  0.38464200  1
  C  C109  1  0.10437400  0.55820700  0.68227400  1
  C  C110  1  0.89562600  0.55820700  0.31772600  1
  C  C111  1  0.60437400  0.05820700  0.68227400  1
  C  C112  1  0.39562600  0.05820700  0.31772600  1
  C  C113  1  0.06837200  0.54105800  0.74794500  1
  C  C114  1  0.93162800  0.54105800  0.25205500  1
  C  C115  1  0.56837200  0.04105800  0.74794500  1
  C  C116  1  0.58485600  0.99491800  0.41802200  1
  C  C117  1  0.43162800  0.04105800  0.25205500  1
  C  C118  1  0.03595300  0.51683800  0.74811500  1
  C  C119  1  0.96404600  0.51683800  0.25188500  1
  C  C120  1  0.53595300  0.01683800  0.74811500  1
  C  C121  1  0.46404600  0.01683800  0.25188500  1
  C  C122  1  0.03791800  0.51383800  0.68219900  1
  C  C123  1  0.96208200  0.51383800  0.31780100  1
  C  C124  1  0.53791800  0.01383800  0.68219900  1
  C  C125  1  0.46208200  0.01383800  0.31780100  1
  C  C126  1  0.00281700  0.49431100  0.68341900  1
  C  C127  1  0.41514400  0.99491800  0.58197800  1
  C  C128  1  0.99718200  0.49431100  0.31658100  1
  C  C129  1  0.50281700  0.99431100  0.68341900  1
  C  C130  1  0.49718200  0.99431100  0.31658100  1
  C  C131  1  0.96792600  0.47500300  0.74961800  1
  C  C132  1  0.03207400  0.47500300  0.25038200  1
  C  C133  1  0.46792600  0.97500300  0.74961800  1
  C  C134  1  0.53207400  0.97500300  0.25038200  1
  C  C135  1  0.96789500  0.47515100  0.81347800  1
  C  C136  1  0.03210500  0.47515100  0.18652200  1
  C  C137  1  0.46789500  0.97515100  0.81347800  1
  C  C138  1  0.00167100  0.49440100  0.61623400  1
  C  C139  1  0.53210500  0.97515100  0.18652200  1
  C  C140  1  0.00144100  0.49631600  0.81350000  1
  C  C141  1  0.99855900  0.49631600  0.18650100  1
  C  C142  1  0.50144100  0.99631600  0.81350000  1
  C  C143  1  0.49855900  0.99631600  0.18650100  1
  C  C144  1  0.20677900  0.46696600  0.32167700  1
  C  C145  1  0.79322100  0.46696600  0.67832300  1
  C  C146  1  0.70677900  0.96696600  0.32167700  1
  C  C147  1  0.29322100  0.96696600  0.67832300  1
  C  C148  1  0.16109300  0.46504900  0.37354800  1
  C  C149  1  0.99832900  0.49440100  0.38376600  1
  C  C150  1  0.83890700  0.46504900  0.62645200  1
  C  C151  1  0.66109300  0.96504900  0.37354800  1
  C  C152  1  0.33890700  0.96504900  0.62645200  1
  C  C153  1  0.13402900  0.49590800  0.36907800  1
  C  C154  1  0.86597100  0.49590800  0.63092200  1
  C  C155  1  0.63402900  0.99590800  0.36907800  1
  C  C156  1  0.36597100  0.99590800  0.63092200  1
  C  C157  1  0.15411200  0.52886600  0.31452000  1
  C  C158  1  0.84588800  0.52886600  0.68548000  1
  C  C159  1  0.65411200  0.02886600  0.31452000  1
  C  C160  1  0.50167100  0.99440100  0.61623400  1
  C  C161  1  0.34588800  0.02886600  0.68548000  1
  C  C162  1  0.19964000  0.53088300  0.26451600  1
  C  C163  1  0.80036000  0.53088300  0.73548400  1
  C  C164  1  0.69964000  0.03088300  0.26451600  1
  C  C165  1  0.30036000  0.03088300  0.73548400  1
  C  C166  1  0.22613600  0.49982900  0.26770800  1
  C  C167  1  0.77386400  0.49982900  0.73229200  1
  C  C168  1  0.72613600  0.99982900  0.26770800  1
  C  C169  1  0.27386400  0.99982900  0.73229200  1
  C  C170  1  0.29927800  0.52677900  0.23488800  1
  C  C171  1  0.49832900  0.99440100  0.38376600  1
  C  C172  1  0.70072200  0.52677900  0.76511200  1
  C  C173  1  0.79927800  0.02677900  0.23488800  1
  C  C174  1  0.20072200  0.02677900  0.76511200  1
  C  C175  1  0.34502600  0.52285900  0.19221700  1
  C  C176  1  0.65497400  0.52285900  0.80778300  1
  C  C177  1  0.84502600  0.02285900  0.19221700  1
  C  C178  1  0.15497400  0.02285900  0.80778300  1
  C  C179  1  0.36698000  0.49618400  0.12914500  1
  C  C180  1  0.63302000  0.49618400  0.87085500  1
  C  C181  1  0.86698000  0.99618400  0.12914500  1
  C  C182  1  0.03576700  0.65070800  0.94156800  1
  C  C183  1  0.13302000  0.99618400  0.87085500  1
  C  C184  1  0.34278500  0.47199000  0.11001000  1
  C  C185  1  0.65721500  0.47199000  0.88999000  1
  C  C186  1  0.84278500  0.97199000  0.11001000  1
  C  C187  1  0.15721500  0.97199000  0.88999000  1
  C  C188  1  0.29693100  0.47450800  0.15326500  1
  C  C189  1  0.70306900  0.47450800  0.84673500  1
  C  C190  1  0.79693100  0.97450800  0.15326500  1
  C  C191  1  0.20306900  0.97450800  0.84673500  1
  C  C192  1  0.27476700  0.50218200  0.21592300  1
  N  N1  1  0.29722100  0.56277500  0.34146500  1
  N  N2  1  0.88835800  0.29041200  0.03568200  1
  N  N3  1  0.61164200  0.79041200  0.96431900  1
  N  N4  1  0.38835800  0.79041200  0.03568200  1
  N  N5  1  0.90044400  0.48204900  0.74713300  1
  N  N6  1  0.09955600  0.48204900  0.25286700  1
  N  N7  1  0.40044400  0.98204900  0.74713300  1
  N  N8  1  0.59955600  0.98204900  0.25286700  1
  N  N9  1  0.38784000  0.64960100  0.17617700  1
  N  N10  1  0.61216000  0.64960100  0.82382300  1
  N  N11  1  0.88784000  0.14960100  0.17617700  1
  N  N12  1  0.70277900  0.56277500  0.65853500  1
  N  N13  1  0.11216000  0.14960100  0.82382300  1
  N  N14  1  0.15475200  0.55855600  0.47459400  1
  N  N15  1  0.84524800  0.55855600  0.52540600  1
  N  N16  1  0.65475200  0.05855600  0.47459400  1
  N  N17  1  0.34524800  0.05855600  0.52540600  1
  N  N18  1  0.89148100  0.47462400  0.93401600  1
  N  N19  1  0.10851900  0.47462400  0.06598400  1
  N  N20  1  0.39148100  0.97462400  0.93401600  1
  N  N21  1  0.60851900  0.97462400  0.06598400  1
  N  N22  1  0.16458000  0.38930100  0.41846500  1
  N  N23  1  0.79722100  0.06277500  0.34146500  1
  N  N24  1  0.83541900  0.38930100  0.58153500  1
  N  N25  1  0.66458000  0.88930100  0.41846500  1
  N  N26  1  0.33541900  0.88930100  0.58153500  1
  N  N27  1  0.20277900  0.06277500  0.65853500  1
  N  N28  1  0.24208100  0.46363600  0.11925000  1
  N  N29  1  0.75791900  0.46363600  0.88075000  1
  N  N30  1  0.74208100  0.96363600  0.11925000  1
  N  N31  1  0.25791900  0.96363600  0.88075000  1
  N  N32  1  0.11164200  0.29041200  0.96431900  1
  O  O1  1  0.06354800  0.53149700  0.42232200  1
  O  O2  1  0.98822900  0.53155300  0.42298700  1
  O  O3  1  0.51177100  0.03155300  0.57701300  1
  O  O4  1  0.48822900  0.03155300  0.42298700  1
  O  O5  1  0.98981400  0.45764200  0.59858000  1
  O  O6  1  0.01018600  0.45764200  0.40142000  1
  O  O7  1  0.48981400  0.95764200  0.59858000  1
  O  O8  1  0.51018600  0.95764200  0.40142000  1
  O  O9  1  0.96357400  0.43107000  0.01691400  1
  O  O10  1  0.03642600  0.43107000  0.98308600  1
  O  O11  1  0.46357400  0.93107000  0.01691400  1
  O  O12  1  0.93645200  0.53149700  0.57767800  1
  O  O13  1  0.53642600  0.93107000  0.98308600  1
  O  O14  1  0.96391700  0.50741900  0.94647000  1
  O  O15  1  0.03608300  0.50741900  0.05353100  1
  O  O16  1  0.46391700  0.00741900  0.94647000  1
  O  O17  1  0.53608300  0.00741900  0.05353100  1
  O  O18  1  0.03689300  0.48161100  0.87666900  1
  O  O19  1  0.96310700  0.48161100  0.12333100  1
  O  O20  1  0.53689300  0.98161100  0.87666900  1
  O  O21  1  0.46310700  0.98161100  0.12333100  1
  O  O22  1  0.96342400  0.55780300  0.05284100  1
  O  O23  1  0.56354800  0.03149700  0.42232200  1
  O  O24  1  0.03657600  0.55780300  0.94715900  1
  O  O25  1  0.46342400  0.05780300  0.05284100  1
  O  O26  1  0.53657600  0.05780300  0.94715900  1
  O  O27  1  0.48770100  0.43078600  0.06286900  1
  O  O28  1  0.51229900  0.43078600  0.93713100  1
  O  O29  1  0.98770100  0.93078600  0.06286900  1
  O  O30  1  0.01229900  0.93078600  0.93713100  1
  O  O31  1  0.43702800  0.50689100  0.11224100  1
  O  O32  1  0.56297200  0.50689100  0.88775900  1
  O  O33  1  0.93702800  0.00689100  0.11224100  1
  O  O34  1  0.43645200  0.03149700  0.57767800  1
  O  O35  1  0.06297200  0.00689100  0.88775900  1
  O  O36  1  0.43621700  0.48149900  0.01140100  1
  O  O37  1  0.56378300  0.48149900  0.98859900  1
  O  O38  1  0.93621700  0.98149900  0.01140100  1
  O  O39  1  0.06378300  0.98149900  0.98859900  1
  O  O40  1  0.51310700  0.55761700  0.03799700  1
  O  O41  1  0.48689300  0.55761700  0.96200300  1
  O  O42  1  0.01310700  0.05761700  0.03799700  1
  O  O43  1  0.98689300  0.05761700  0.96200300  1
  O  O44  1  0.24622800  0.57957600  0.31589500  1
  O  O45  1  0.06385700  0.45768200  0.45260900  1
  O  O46  1  0.75377200  0.57957600  0.68410500  1
  O  O47  1  0.74622800  0.07957600  0.31589500  1
  O  O48  1  0.25377200  0.07957600  0.68410500  1
  O  O49  1  0.28222100  0.40614300  0.12164800  1
  O  O50  1  0.71777900  0.40614300  0.87835200  1
  O  O51  1  0.78222100  0.90614300  0.12164800  1
  O  O52  1  0.21777900  0.90614300  0.87835200  1
  O  O53  1  0.06190300  0.23490000  0.03289300  1
  O  O54  1  0.93809700  0.23490000  0.96710700  1
  O  O55  1  0.56190300  0.73490000  0.03289300  1
  O  O56  1  0.93614300  0.45768200  0.54739100  1
  O  O57  1  0.43809700  0.73490000  0.96710700  1
  O  O58  1  0.92315000  0.41497200  0.76444400  1
  O  O59  1  0.07685000  0.41497200  0.23555600  1
  O  O60  1  0.42315000  0.91497200  0.76444400  1
  O  O61  1  0.57685000  0.91497200  0.23555600  1
  O  O62  1  0.43721800  0.59520700  0.15541500  1
  O  O63  1  0.56278200  0.59520700  0.84458500  1
  O  O64  1  0.93721800  0.09520700  0.15541500  1
  O  O65  1  0.06278200  0.09520700  0.84458500  1
  O  O66  1  0.17795000  0.58671000  0.54498400  1
  O  O67  1  0.56385700  0.95768200  0.45260900  1
  O  O68  1  0.82205000  0.58671000  0.45501600  1
  O  O69  1  0.67795000  0.08671000  0.54498400  1
  O  O70  1  0.32205000  0.08671000  0.45501600  1
  O  O71  1  0.93788500  0.41415700  0.89401100  1
  O  O72  1  0.06211500  0.41415700  0.10598900  1
  O  O73  1  0.43788500  0.91415700  0.89401100  1
  O  O74  1  0.56211500  0.91415700  0.10598900  1
  O  O75  1  0.11508400  0.44197500  0.49912200  1
  O  O76  1  0.88491600  0.44197500  0.50087800  1
  O  O77  1  0.61508400  0.94197500  0.49912200  1
  O  O78  1  0.43614300  0.95768200  0.54739100  1
  O  O79  1  0.38491600  0.94197500  0.50087800  1
  O  O80  1  0.01177100  0.53155300  0.57701300  1
