# Generated by REPEAT Assigner based on pymatgen
data_DB0-m3_o24_o29_f0_pcu.sym.6
_audit_creation_date              2022-05-24
_audit_creation_method            REPEAT_Assigner
_cell_length_a                    27.676116
_cell_length_b                    10.785779
_cell_length_c                    9.723056
_cell_angle_alpha                 90.008075
_cell_angle_beta                  89.990604
_cell_angle_gamma                 89.984375
_cell_volume                      2902.414435
_symmetry_space_group_name_H-M    P1
_symmetry_Int_Tables_number       1
loop_
    _symmetry_equiv_pos_site_id
    _symmetry_equiv_pos_as_xyz
    1  x,y,z
loop_
    _atom_site_type_symbol
    _atom_site_label
    _atom_site_fract_x
    _atom_site_fract_y
    _atom_site_fract_z
    _atom_type_partial_charge
    O   O1    0.498849  0.315240  0.618621  -0.753206
    O   O2    0.501151  0.684760  0.381379  -0.753208
    O   O3    0.499648  0.315294  0.381087  -0.691405
    O   O4    0.500352  0.684706  0.618913  -0.691353
    C   C1    0.499063  0.257645  0.499916  0.717363
    C   C2    0.500937  0.742354  0.500085  0.717293
    O   O5    0.427649  0.501601  0.617439  -0.660495
    O   O6    0.572351  0.498399  0.382561  -0.660495
    O   O7    0.428390  0.502477  0.380224  -0.559807
    O   O8    0.571610  0.497523  0.619776  -0.559794
    C   C3    0.405358  0.503598  0.498237  0.664667
    C   C4    0.594642  0.496401  0.501763  0.664545
    Zn  Zn1   0.499557  0.499915  0.656492  1.042191
    Zn  Zn2   0.500443  0.500085  0.343508  1.042197
    C   C5    0.177156  0.392597  0.492806  0.245960
    C   C6    0.822844  0.607403  0.507194  0.246007
    O   O9    0.203559  0.290026  0.471495  -0.407356
    O   O10   0.796441  0.709974  0.528505  -0.407369
    N   N1    0.200651  0.500219  0.509928  -0.013633
    N   N2    0.799349  0.499780  0.490072  -0.013706
    C   C7    0.176806  0.606940  0.530154  0.217874
    C   C8    0.823194  0.393060  0.469846  0.217952
    C   C9    0.275931  0.560496  0.400218  -0.142571
    C   C10   0.724069  0.439503  0.599782  -0.142125
    C   C11   0.325740  0.561689  0.395086  0.049675
    C   C12   0.674260  0.438311  0.604914  0.049036
    C   C13   0.328144  0.446853  0.605443  -0.071358
    C   C14   0.671857  0.553147  0.394557  -0.071776
    C   C15   0.278357  0.444197  0.608490  -0.195348
    C   C16   0.721643  0.555803  0.391510  -0.194925
    C   C17   0.252127  0.501304  0.506034  0.158374
    C   C18   0.747873  0.498696  0.493966  0.158062
    C   C19   0.101134  0.499212  0.510509  -0.309614
    C   C20   0.898866  0.500788  0.489491  -0.309594
    C   C21   0.126788  0.389572  0.492682  0.241489
    C   C22   0.873212  0.610427  0.507318  0.241418
    C   C23   0.101287  0.279618  0.476583  -0.109678
    C   C24   0.898713  0.720382  0.523417  -0.109529
    C   C25   0.126455  0.608585  0.533046  0.235536
    C   C26   0.873545  0.391414  0.466954  0.235538
    C   C27   0.352281  0.504164  0.498321  0.015356
    C   C28   0.647719  0.495836  0.501680  0.015872
    H   H1    0.348060  0.401389  0.686669  0.095703
    H   H2    0.651940  0.598611  0.313331  0.095750
    H   H3    0.259947  0.398395  0.692362  0.145847
    H   H4    0.740053  0.601604  0.307638  0.145777
    C   C29   0.974822  0.390971  0.474746  -0.024935
    C   C30   0.025178  0.609029  0.525254  -0.024997
    C   C31   0.974509  0.609943  0.516705  0.004596
    C   C32   0.025491  0.390057  0.483295  0.004534
    C   C33   0.949460  0.500520  0.493983  0.163369
    C   C34   0.050540  0.499480  0.506017  0.163425
    C   C35   0.948758  0.284782  0.442693  -0.020740
    C   C36   0.051243  0.715218  0.557307  -0.020754
    C   C37   0.899340  0.283633  0.440007  -0.095134
    C   C38   0.100660  0.716367  0.559993  -0.095063
    O   O11   0.797131  0.289352  0.452493  -0.375036
    O   O12   0.202869  0.710648  0.547507  -0.375063
    C   C39   0.051867  0.280795  0.473646  -0.042130
    C   C40   0.948133  0.719205  0.526354  -0.042239
    H   H5    0.744520  0.393859  0.679845  0.116046
    H   H6    0.255480  0.606141  0.320155  0.116100
    H   H7    0.964991  0.198075  0.414725  0.064266
    H   H8    0.035009  0.801925  0.585275  0.064249
    H   H9    0.035887  0.190453  0.466598  0.077327
    H   H10   0.964113  0.809547  0.533402  0.077342
    C   C41   0.499328  0.040495  0.628997  0.103528
    C   C42   0.500672  0.959505  0.371003  0.103513
    C   C43   0.539176  0.960719  0.565933  -0.236703
    C   C44   0.460824  0.039281  0.434067  -0.236778
    H   H11   0.572117  0.926483  0.618608  0.144900
    H   H12   0.427883  0.073517  0.381392  0.144917
    H   H13   0.497888  0.075045  0.736355  -0.000939
    H   H14   0.502112  0.924955  0.263645  -0.000922
    C   C45   0.500965  0.880290  0.499522  0.201542
    C   C46   0.499035  0.119710  0.500479  0.201589
    C   C47   0.461730  0.958501  0.561559  -0.047376
    C   C48   0.538270  0.041499  0.438441  -0.047448
    C   C49   0.470521  0.424853  0.048636  -0.075787
    C   C50   0.529479  0.575147  0.951364  -0.075906
    C   C51   0.510544  0.394153  0.951153  -0.046900
    C   C52   0.489456  0.605847  0.048847  -0.046744
    H   H15   0.519013  0.301543  0.907872  0.150409
    H   H16   0.480988  0.698457  0.092128  0.150371
    N   N3    0.499135  0.499723  0.862211  0.158425
    N   N4    0.500865  0.500277  0.137789  0.158380
    C   C53   0.458628  0.529253  0.953358  0.050641
    C   C54   0.541372  0.470747  0.046642  0.050731
    H   H17   0.422460  0.552979  0.911936  0.097072
    H   H18   0.577540  0.447021  0.088065  0.097043
    Cl  Cl1   0.409770  0.897699  0.645298  -0.136483
    Cl  Cl2   0.590230  0.102301  0.354702  -0.136452
    Cl  Cl3   0.428398  0.317255  0.118005  -0.065021
    Cl  Cl4   0.571602  0.682745  0.881995  -0.065006
    Cl  Cl5   0.127777  0.131977  0.462226  0.019371
    Cl  Cl6   0.872223  0.868022  0.537774  0.019313
    Cl  Cl7   0.646693  0.355738  0.739180  -0.098583
    Cl  Cl8   0.353307  0.644261  0.260820  -0.098747
    Cl  Cl9   0.873238  0.140572  0.395298  -0.001130
    Cl  Cl10  0.126762  0.859428  0.604702  -0.001116
