# generated using pymatgen
data_Zn3H31C44ClO12
_symmetry_space_group_name_H-M   'P 1'
_cell_length_a   37.00881900
_cell_length_b   30.33209600
_cell_length_c   21.55063300
_cell_angle_alpha   90.00000000
_cell_angle_beta   55.09158400
_cell_angle_gamma   90.00000000
_symmetry_Int_Tables_number   1
_chemical_formula_structural   Zn3H31C44ClO12
_chemical_formula_sum   'Zn12 H124 C176 Cl4 O48'
_cell_volume   19838.89381338
_cell_formula_units_Z   4
loop_
 _symmetry_equiv_pos_site_id
 _symmetry_equiv_pos_as_xyz
  1  'x, y, z'
loop_
 _atom_site_type_symbol
 _atom_site_label
 _atom_site_symmetry_multiplicity
 _atom_site_fract_x
 _atom_site_fract_y
 _atom_site_fract_z
 _atom_site_occupancy
  Zn  Zn1  1  0.00667400  0.54569000  0.49450500  1
  Zn  Zn2  1  0.50667400  0.04569000  0.49450500  1
  Zn  Zn3  1  0.00749300  0.44600100  0.49153000  1
  Zn  Zn4  1  0.50749300  0.94600100  0.49153000  1
  Zn  Zn5  1  0.95778800  0.49884700  0.04093300  1
  Zn  Zn6  1  0.05760400  0.50019900  0.94447100  1
  Zn  Zn7  1  0.45778800  0.99884700  0.04093300  1
  Zn  Zn8  1  0.55760400  0.00019900  0.94447100  1
  Zn  Zn9  1  0.50701600  0.49936600  0.92115500  1
  Zn  Zn10  1  0.50732100  0.49943700  0.06135100  1
  Zn  Zn11  1  0.00701600  0.99936600  0.92115500  1
  Zn  Zn12  1  0.00732100  0.99943700  0.06135100  1
  H  H1  1  0.05187200  0.55042700  0.25335700  1
  H  H2  1  0.03266400  0.56281400  0.66392500  1
  H  H3  1  0.55187200  0.05042700  0.25335700  1
  H  H4  1  0.53266400  0.06281400  0.66392500  1
  H  H5  1  0.99514900  0.56814400  0.30737600  1
  H  H6  1  0.07568000  0.52202900  0.62277000  1
  H  H7  1  0.49514900  0.06814400  0.30737600  1
  H  H8  1  0.57568000  0.02202900  0.62277000  1
  H  H9  1  0.99675700  0.56895000  0.20205100  1
  H  H10  1  0.07558900  0.52469900  0.72683700  1
  H  H11  1  0.49675700  0.06895000  0.20205100  1
  H  H12  1  0.57558900  0.02469900  0.72683700  1
  H  H13  1  0.05341900  0.55079600  0.14771000  1
  H  H14  1  0.03203000  0.56525700  0.76784500  1
  H  H15  1  0.55341900  0.05079600  0.14771000  1
  H  H16  1  0.53203000  0.06525700  0.76784500  1
  H  H17  1  0.07148100  0.47456900  0.22955800  1
  H  H18  1  0.95754700  0.54278900  0.74084600  1
  H  H19  1  0.57148100  0.97456900  0.22955800  1
  H  H20  1  0.45754700  0.04278900  0.74084600  1
  H  H21  1  0.07100600  0.47041900  0.12740000  1
  H  H22  1  0.95260600  0.54065600  0.84832000  1
  H  H23  1  0.57100600  0.97041900  0.12740000  1
  H  H24  1  0.45260600  0.04065600  0.84832000  1
  H  H25  1  0.93832500  0.51771600  0.35749700  1
  H  H26  1  0.06008900  0.44713300  0.64763700  1
  H  H27  1  0.43832500  0.01771600  0.35749700  1
  H  H28  1  0.56008900  0.94713300  0.64763700  1
  H  H29  1  0.93587200  0.51376300  0.26016600  1
  H  H30  1  0.05711200  0.44547900  0.75129300  1
  H  H31  1  0.43587200  0.01376300  0.26016600  1
  H  H32  1  0.55711200  0.94547900  0.75129300  1
  H  H33  1  0.94831600  0.45585000  0.24549000  1
  H  H34  1  0.00083200  0.42774300  0.80841500  1
  H  H35  1  0.44831600  0.95585000  0.24549000  1
  H  H36  1  0.50083200  0.92774300  0.80841500  1
  H  H37  1  0.03276300  0.43050300  0.27045100  1
  H  H38  1  0.93830800  0.48746200  0.75573900  1
  H  H39  1  0.53276300  0.93050300  0.27045100  1
  H  H40  1  0.43830800  0.98746200  0.75573900  1
  H  H41  1  0.02687000  0.43071500  0.17091100  1
  H  H42  1  0.94003600  0.48252500  0.85981900  1
  H  H43  1  0.52687000  0.93071500  0.17091100  1
  H  H44  1  0.44003600  0.98252500  0.85981900  1
  H  H45  1  0.78702500  0.43175300  0.75607700  1
  H  H46  1  0.22831000  0.43292600  0.23183700  1
  H  H47  1  0.28702500  0.93175300  0.75607700  1
  H  H48  1  0.72831000  0.93292600  0.23183700  1
  H  H49  1  0.86743500  0.43158200  0.67567900  1
  H  H50  1  0.14815700  0.43105600  0.31318000  1
  H  H51  1  0.36743500  0.93158200  0.67567900  1
  H  H52  1  0.64815700  0.93105600  0.31318000  1
  H  H53  1  0.86668300  0.56018400  0.59544800  1
  H  H54  1  0.14657300  0.56236800  0.38699400  1
  H  H55  1  0.36668300  0.06018400  0.59544800  1
  H  H56  1  0.64657300  0.06236800  0.38699400  1
  H  H57  1  0.78655800  0.55985900  0.67447600  1
  H  H58  1  0.22661600  0.56378300  0.30648800  1
  H  H59  1  0.28655800  0.05985900  0.67447600  1
  H  H60  1  0.72661600  0.06378300  0.30648800  1
  H  H61  1  0.72785400  0.51668600  0.67839700  1
  H  H62  1  0.28683000  0.52432000  0.30257700  1
  H  H63  1  0.22785400  0.01668600  0.67839700  1
  H  H64  1  0.78683000  0.02432000  0.30257700  1
  H  H65  1  0.64776200  0.51740300  0.75668100  1
  H  H66  1  0.36693000  0.52509000  0.22356800  1
  H  H67  1  0.14776200  0.01740300  0.75668100  1
  H  H68  1  0.86693000  0.02509000  0.22356800  1
  H  H69  1  0.64713000  0.47660600  0.94729900  1
  H  H70  1  0.36682600  0.47584600  0.03769100  1
  H  H71  1  0.14713000  0.97660600  0.94729900  1
  H  H72  1  0.86682600  0.97584600  0.03769100  1
  H  H73  1  0.72730300  0.47518800  0.86821200  1
  H  H74  1  0.28668100  0.47454200  0.11743700  1
  H  H75  1  0.22730300  0.97518800  0.86821200  1
  H  H76  1  0.78668100  0.97454200  0.11743700  1
  H  H77  1  0.07046800  0.72011900  0.89476600  1
  H  H78  1  0.93897500  0.71970900  0.09430300  1
  H  H79  1  0.57046800  0.22011900  0.89476600  1
  H  H80  1  0.43897500  0.21970900  0.09430300  1
  H  H81  1  0.07124500  0.63997500  0.89529600  1
  H  H82  1  0.93921600  0.63946500  0.09449800  1
  H  H83  1  0.57124500  0.13997500  0.89529600  1
  H  H84  1  0.43921600  0.13946500  0.09449800  1
  H  H85  1  0.47951200  0.27958900  0.11101600  1
  H  H86  1  0.52942800  0.27842900  0.87678100  1
  H  H87  1  0.97951200  0.77958900  0.11101600  1
  H  H88  1  0.02942800  0.77842900  0.87678100  1
  H  H89  1  0.48032100  0.35979200  0.10984600  1
  H  H90  1  0.52960100  0.35858600  0.87546800  1
  H  H91  1  0.98032100  0.85979200  0.10984600  1
  H  H92  1  0.02960100  0.85858600  0.87546800  1
  H  H93  1  0.07643100  0.27927700  0.95896600  1
  H  H94  1  0.94512200  0.27883700  0.01698500  1
  H  H95  1  0.57643100  0.77927700  0.95896600  1
  H  H96  1  0.44512200  0.77883700  0.01698500  1
  H  H97  1  0.07621600  0.35955600  0.95935300  1
  H  H98  1  0.94437000  0.35904700  0.01896300  1
  H  H99  1  0.57621600  0.85955600  0.95935300  1
  H  H100  1  0.44437000  0.85904700  0.01896300  1
  H  H101  1  0.48676500  0.71993100  0.91838400  1
  H  H102  1  0.53494200  0.71988800  0.05713000  1
  H  H103  1  0.98676500  0.21993100  0.91838400  1
  H  H104  1  0.03494200  0.21988800  0.05713000  1
  H  H105  1  0.48606400  0.63970200  0.91919500  1
  H  H106  1  0.53345400  0.63965000  0.05951000  1
  H  H107  1  0.98606400  0.13970200  0.91919500  1
  H  H108  1  0.03345400  0.13965000  0.05951000  1
  H  H109  1  0.97232200  0.39901600  0.28968000  1
  H  H110  1  0.86979500  0.35041500  0.50477600  1
  H  H111  1  0.84802300  0.42611600  0.55226000  1
  H  H112  1  0.88904000  0.48864200  0.47073500  1
  H  H113  1  0.93873100  0.42054500  0.79821100  1
  H  H114  1  0.94909300  0.30161000  0.68622400  1
  H  H115  1  0.02705200  0.31717600  0.58800700  1
  H  H116  1  0.06106500  0.38461100  0.59261300  1
  H  H117  1  0.47232200  0.89901600  0.28968000  1
  H  H118  1  0.36979500  0.85041500  0.50477600  1
  H  H119  1  0.34802300  0.92611600  0.55226000  1
  H  H120  1  0.38904000  0.98864200  0.47073500  1
  H  H121  1  0.43873100  0.92054500  0.79821100  1
  H  H122  1  0.44909300  0.80161000  0.68622400  1
  H  H123  1  0.52705200  0.81717600  0.58800700  1
  H  H124  1  0.56106500  0.88461100  0.59261300  1
  C  C1  1  0.92078900  0.49608000  0.58127600  1
  C  C2  1  0.09339200  0.49571400  0.40485300  1
  C  C3  1  0.42078900  0.99608000  0.58127600  1
  C  C4  1  0.59339200  0.99571400  0.40485300  1
  C  C5  1  0.00456000  0.49613500  0.37393000  1
  C  C6  1  0.00951900  0.49543000  0.61235400  1
  C  C7  1  0.50456000  0.99613500  0.37393000  1
  C  C8  1  0.50951900  0.99543000  0.61235400  1
  C  C9  1  0.01852800  0.54247000  0.26829600  1
  C  C10  1  0.04200100  0.52981700  0.67252600  1
  C  C11  1  0.51852800  0.04247000  0.26829600  1
  C  C12  1  0.54200100  0.02981700  0.67252600  1
  C  C13  1  0.01952800  0.54310200  0.19690800  1
  C  C14  1  0.04185200  0.53174800  0.74296700  1
  C  C15  1  0.51952800  0.04310200  0.19690800  1
  C  C16  1  0.54185200  0.03174800  0.74296700  1
  C  C17  1  0.03819500  0.46413600  0.24695400  1
  C  C18  1  0.96448400  0.50865500  0.74957900  1
  C  C19  1  0.53819500  0.96413600  0.24695400  1
  C  C20  1  0.46448400  0.00865500  0.74957900  1
  C  C21  1  0.95815400  0.48852500  0.32492600  1
  C  C22  1  0.02484400  0.45031600  0.69472100  1
  C  C23  1  0.45815400  0.98852500  0.32492600  1
  C  C24  1  0.52484400  0.95031600  0.69472100  1
  C  C25  1  0.00451400  0.49699200  0.30457800  1
  C  C26  1  0.00965600  0.49487800  0.68195200  1
  C  C27  1  0.50451400  0.99699200  0.30457800  1
  C  C28  1  0.50965600  0.99487800  0.68195200  1
  C  C29  1  0.00546100  0.49854300  0.18562600  1
  C  C30  1  0.00957500  0.49815500  0.80028200  1
  C  C31  1  0.50546100  0.99854300  0.18562600  1
  C  C32  1  0.50957500  0.99815500  0.80028200  1
  C  C33  1  0.03722300  0.46361300  0.17768700  1
  C  C34  1  0.96369300  0.50792500  0.82061100  1
  C  C35  1  0.53722300  0.96361300  0.17768700  1
  C  C36  1  0.46369300  0.00792500  0.82061100  1
  C  C37  1  0.95912500  0.48805300  0.25366300  1
  C  C38  1  0.02362500  0.45252500  0.76620900  1
  C  C39  1  0.45912500  0.98805300  0.25366300  1
  C  C40  1  0.52362500  0.95252500  0.76620900  1
  C  C41  1  0.80440200  0.46016900  0.72121300  1
  C  C42  1  0.21048600  0.46156600  0.26547600  1
  C  C43  1  0.30440200  0.96016900  0.72121300  1
  C  C44  1  0.71048600  0.96156600  0.26547600  1
  C  C45  1  0.84987000  0.45993400  0.67529900  1
  C  C46  1  0.16506500  0.46037900  0.31216300  1
  C  C47  1  0.34987000  0.95993400  0.67529900  1
  C  C48  1  0.66506500  0.96037900  0.31216300  1
  C  C49  1  0.87258100  0.49588900  0.63009300  1
  C  C50  1  0.14165700  0.49657400  0.35587900  1
  C  C51  1  0.37258100  0.99588900  0.63009300  1
  C  C52  1  0.64165700  0.99657400  0.35587900  1
  C  C53  1  0.84949900  0.53187000  0.63078100  1
  C  C54  1  0.16415400  0.53373800  0.35306500  1
  C  C55  1  0.34949900  0.03187000  0.63078100  1
  C  C56  1  0.66415400  0.03373800  0.35306500  1
  C  C57  1  0.80411500  0.53152000  0.67490200  1
  C  C58  1  0.20957400  0.53443500  0.30794400  1
  C  C59  1  0.30411500  0.03152000  0.67490200  1
  C  C60  1  0.70957400  0.03443500  0.30794400  1
  C  C61  1  0.78133400  0.49579400  0.72060800  1
  C  C62  1  0.23297100  0.49846700  0.26358600  1
  C  C63  1  0.28133400  0.99579400  0.72060800  1
  C  C64  1  0.73297100  0.99846700  0.26358600  1
  C  C65  1  0.71027700  0.50797100  0.73752300  1
  C  C66  1  0.30423900  0.51391400  0.24424300  1
  C  C67  1  0.21027700  0.00797100  0.73752300  1
  C  C68  1  0.80423900  0.01391400  0.24424300  1
  C  C69  1  0.66485200  0.50801300  0.78184000  1
  C  C70  1  0.34967000  0.51397000  0.19956000  1
  C  C71  1  0.16485200  0.00801300  0.78184000  1
  C  C72  1  0.84967000  0.01397000  0.19956000  1
  C  C73  1  0.64172600  0.49713200  0.85762800  1
  C  C74  1  0.37260100  0.50060000  0.12492900  1
  C  C75  1  0.14172600  0.99713200  0.85762800  1
  C  C76  1  0.87260100  0.00060000  0.12492900  1
  C  C77  1  0.66452100  0.48545000  0.88826400  1
  C  C78  1  0.34959800  0.48671300  0.09574100  1
  C  C79  1  0.16452100  0.98545000  0.88826400  1
  C  C80  1  0.84959800  0.98671300  0.09574100  1
  C  C81  1  0.70995800  0.48421700  0.84333800  1
  C  C82  1  0.30416700  0.48553900  0.14110100  1
  C  C83  1  0.20995800  0.98421700  0.84333800  1
  C  C84  1  0.80416700  0.98553900  0.14110100  1
  C  C85  1  0.73304900  0.49583500  0.76792000  1
  C  C86  1  0.28126500  0.49935600  0.21544800  1
  C  C87  1  0.23304900  0.99583500  0.76792000  1
  C  C88  1  0.78126500  0.99935600  0.21544800  1
  C  C89  1  0.00562300  0.58581700  0.99482300  1
  C  C90  1  0.50562300  0.08581700  0.99482300  1
  C  C91  1  0.00601000  0.49934500  0.11584200  1
  C  C92  1  0.00932200  0.49980000  0.86968500  1
  C  C93  1  0.50601000  0.99934500  0.11584200  1
  C  C94  1  0.50932200  0.99980000  0.86968500  1
  C  C95  1  0.00978200  0.41322000  0.99046300  1
  C  C96  1  0.50978200  0.91322000  0.99046300  1
  C  C97  1  0.50571100  0.41311500  0.99156600  1
  C  C98  1  0.00571100  0.91311500  0.99156600  1
  C  C99  1  0.59344300  0.49799700  0.90504300  1
  C  C100  1  0.42090700  0.50064900  0.07744700  1
  C  C101  1  0.09344300  0.99799700  0.90504300  1
  C  C102  1  0.92090700  0.00064900  0.07744700  1
  C  C103  1  0.50865200  0.58575500  0.99090700  1
  C  C104  1  0.00865200  0.08575500  0.99090700  1
  C  C105  1  0.04146300  0.70254200  0.93859100  1
  C  C106  1  0.96818200  0.70230600  0.05066700  1
  C  C107  1  0.54146300  0.20254200  0.93859100  1
  C  C108  1  0.46818200  0.20230600  0.05066700  1
  C  C109  1  0.04200600  0.65712900  0.93937900  1
  C  C110  1  0.96822400  0.65685400  0.05030400  1
  C  C111  1  0.54200600  0.15712900  0.93937900  1
  C  C112  1  0.46822400  0.15685400  0.05030400  1
  C  C113  1  0.00525500  0.63406500  0.99488900  1
  C  C114  1  0.50525500  0.13406500  0.99488900  1
  C  C115  1  0.00465900  0.72532700  0.99444500  1
  C  C116  1  0.50465900  0.22532700  0.99444500  1
  C  C117  1  0.49026400  0.29681500  0.05925100  1
  C  C118  1  0.51870900  0.29616500  0.92810600  1
  C  C119  1  0.99026400  0.79681500  0.05925100  1
  C  C120  1  0.01870900  0.79616500  0.92810600  1
  C  C121  1  0.49113000  0.34225100  0.05832700  1
  C  C122  1  0.51841300  0.34159300  0.92761800  1
  C  C123  1  0.99113000  0.84225100  0.05832700  1
  C  C124  1  0.01841300  0.84159300  0.92761800  1
  C  C125  1  0.50499200  0.36485500  0.99257700  1
  C  C126  1  0.00499200  0.86485500  0.99257700  1
  C  C127  1  0.50441600  0.27358500  0.99399700  1
  C  C128  1  0.00441600  0.77358500  0.99399700  1
  C  C129  1  0.04727100  0.29666800  0.97245400  1
  C  C130  1  0.97409300  0.29642800  0.00394700  1
  C  C131  1  0.54727100  0.79666800  0.97245400  1
  C  C132  1  0.47409300  0.79642800  0.00394700  1
  C  C133  1  0.04723600  0.34213700  0.97210200  1
  C  C134  1  0.97353700  0.34186200  0.00584900  1
  C  C135  1  0.54723600  0.84213700  0.97210200  1
  C  C136  1  0.47353700  0.84186200  0.00584900  1
  C  C137  1  0.01020000  0.36494200  0.98950900  1
  C  C138  1  0.51020000  0.86494200  0.98950900  1
  C  C139  1  0.01080600  0.27362500  0.98787900  1
  C  C140  1  0.51080600  0.77362500  0.98787900  1
  C  C141  1  0.49695200  0.70243000  0.94964200  1
  C  C142  1  0.52439300  0.70240100  0.02640400  1
  C  C143  1  0.99695200  0.20243000  0.94964200  1
  C  C144  1  0.02439300  0.20240100  0.02640400  1
  C  C145  1  0.49694000  0.65697600  0.94960200  1
  C  C146  1  0.52312900  0.65695900  0.02831300  1
  C  C147  1  0.99694000  0.15697600  0.94960200  1
  C  C148  1  0.02312900  0.15695900  0.02831300  1
  C  C149  1  0.50959400  0.63402600  0.98959800  1
  C  C150  1  0.00959400  0.13402600  0.98959800  1
  C  C151  1  0.51087100  0.72533800  0.98773800  1
  C  C152  1  0.01087100  0.22533800  0.98773800  1
  C  C153  1  0.93491100  0.44888200  0.37438700  1
  C  C154  1  0.94620200  0.40594800  0.34771600  1
  C  C155  1  0.92312000  0.37082300  0.39462600  1
  C  C156  1  0.88810100  0.37800300  0.46826100  1
  C  C157  1  0.87601900  0.42043300  0.49487000  1
  C  C158  1  0.89927900  0.45567000  0.44837200  1
  C  C159  1  0.00220100  0.40896000  0.69419700  1
  C  C160  1  0.95852900  0.39921200  0.75028000  1
  C  C161  1  0.93959900  0.36092400  0.74708200  1
  C  C162  1  0.96402600  0.33161000  0.68857900  1
  C  C163  1  0.00767600  0.34033200  0.63367100  1
  C  C164  1  0.02675900  0.37853700  0.63672300  1
  C  C165  1  0.43491100  0.94888200  0.37438700  1
  C  C166  1  0.44620200  0.90594800  0.34771600  1
  C  C167  1  0.42312000  0.87082300  0.39462600  1
  C  C168  1  0.38810100  0.87800300  0.46826100  1
  C  C169  1  0.37601900  0.92043300  0.49487000  1
  C  C170  1  0.39927900  0.95567000  0.44837200  1
  C  C171  1  0.50220100  0.90896000  0.69419700  1
  C  C172  1  0.45852900  0.89921200  0.75028000  1
  C  C173  1  0.43959900  0.86092400  0.74708200  1
  C  C174  1  0.46402600  0.83161000  0.68857900  1
  C  C175  1  0.50767600  0.84033200  0.63367100  1
  C  C176  1  0.52675900  0.87853700  0.63672300  1
  Cl  Cl1  1  0.93786600  0.31692200  0.35987700  1
  Cl  Cl2  1  0.88438300  0.34934700  0.81825600  1
  Cl  Cl3  1  0.43786600  0.81692200  0.35987700  1
  Cl  Cl4  1  0.38438300  0.84934700  0.81825600  1
  O  O1  1  0.94093800  0.53427400  0.56213800  1
  O  O2  1  0.07230800  0.53335500  0.42937000  1
  O  O3  1  0.44093800  0.03427400  0.56213800  1
  O  O4  1  0.57230800  0.03335500  0.42937000  1
  O  O5  1  0.94179400  0.45827800  0.55817300  1
  O  O6  1  0.07324500  0.45748300  0.42239300  1
  O  O7  1  0.44179400  0.95827800  0.55817300  1
  O  O8  1  0.57324500  0.95748300  0.42239300  1
  O  O9  1  0.00435900  0.53376900  0.40430000  1
  O  O10  1  0.00698300  0.53375700  0.58671700  1
  O  O11  1  0.50435900  0.03376900  0.40430000  1
  O  O12  1  0.50698300  0.03375700  0.58671700  1
  O  O13  1  0.00612800  0.45775500  0.40034200  1
  O  O14  1  0.01085100  0.45810600  0.58056800  1
  O  O15  1  0.50612800  0.95775500  0.40034200  1
  O  O16  1  0.51085100  0.95810600  0.58056800  1
  O  O17  1  0.96781300  0.56488600  0.03336100  1
  O  O18  1  0.04381800  0.56556800  0.95594800  1
  O  O19  1  0.46781300  0.06488600  0.03336100  1
  O  O20  1  0.54381800  0.06556800  0.95594800  1
  O  O21  1  0.96820700  0.49942700  0.12355000  1
  O  O22  1  0.04717300  0.49865800  0.86185400  1
  O  O23  1  0.46820700  0.99942700  0.12355000  1
  O  O24  1  0.54717300  0.99865800  0.86185400  1
  O  O25  1  0.04420500  0.49948100  0.04974700  1
  O  O26  1  0.97117100  0.50070000  0.93573500  1
  O  O27  1  0.54420500  0.99948100  0.04974700  1
  O  O28  1  0.47117100  0.00070000  0.93573500  1
  O  O29  1  0.97156900  0.43348500  0.02803600  1
  O  O30  1  0.04759100  0.43417200  0.95345800  1
  O  O31  1  0.47156900  0.93348500  0.02803600  1
  O  O32  1  0.54759100  0.93417200  0.95345800  1
  O  O33  1  0.50750800  0.43350500  0.93618800  1
  O  O34  1  0.50471900  0.43392300  0.04591400  1
  O  O35  1  0.00750800  0.93350500  0.93618800  1
  O  O36  1  0.00471900  0.93392300  0.04591400  1
  O  O37  1  0.57285800  0.49786800  0.87173400  1
  O  O38  1  0.44151700  0.50205800  0.11068400  1
  O  O39  1  0.07285800  0.99786800  0.87173400  1
  O  O40  1  0.94151700  0.00205800  0.11068400  1
  O  O41  1  0.57279500  0.49883800  0.97884300  1
  O  O42  1  0.44154800  0.49881900  0.00370200  1
  O  O43  1  0.07279500  0.99883800  0.97884300  1
  O  O44  1  0.94154800  0.99881900  0.00370200  1
  O  O45  1  0.50856700  0.56494900  0.93760400  1
  O  O46  1  0.50792800  0.56534000  0.04526600  1
  O  O47  1  0.00856700  0.06494900  0.93760400  1
  O  O48  1  0.00792800  0.06534000  0.04526600  1
