# generated using pymatgen
data_ZnH10C15N3O4
_symmetry_space_group_name_H-M   'P 1'
_cell_length_a   8.44099600
_cell_length_b   11.43901700
_cell_length_c   15.07894400
_cell_angle_alpha   98.80379700
_cell_angle_beta   89.84866000
_cell_angle_gamma   83.54656000
_symmetry_Int_Tables_number   1
_chemical_formula_structural   ZnH10C15N3O4
_chemical_formula_sum   'Zn2 H20 C30 N6 O8'
_cell_volume   1429.41009196
_cell_formula_units_Z   2
loop_
 _symmetry_equiv_pos_site_id
 _symmetry_equiv_pos_as_xyz
  1  'x, y, z'
loop_
 _atom_site_type_symbol
 _atom_site_label
 _atom_site_symmetry_multiplicity
 _atom_site_fract_x
 _atom_site_fract_y
 _atom_site_fract_z
 _atom_site_occupancy
  Zn  Zn1  1  0.51346800  0.86922900  0.50244600  1
  Zn  Zn2  1  0.48653100  0.13077100  0.49755400  1
  H  H1  1  0.98875900  0.06432100  0.56752400  1
  H  H2  1  0.01124100  0.93567800  0.43247600  1
  H  H3  1  0.74897500  0.00276800  0.80079900  1
  H  H4  1  0.25102500  0.99723200  0.19920100  1
  H  H5  1  0.25231800  0.02148500  0.80162200  1
  H  H6  1  0.74768200  0.97851500  0.19837800  1
  H  H7  1  0.15721500  0.12478700  0.10489900  1
  H  H8  1  0.84278500  0.87521300  0.89510100  1
  H  H9  1  0.22668900  0.28672500  0.47720100  1
  H  H10  1  0.77331100  0.71327500  0.52279900  1
  H  H11  1  0.81961500  0.50201000  0.52757800  1
  H  H12  1  0.18038500  0.49798900  0.47242300  1
  H  H13  1  0.23070700  0.21193400  0.99049500  1
  H  H14  1  0.09361700  0.22487300  0.91020500  1
  H  H15  1  0.76929200  0.78806500  0.00950500  1
  H  H16  1  0.90638200  0.77512700  0.08979500  1
  H  H17  1  0.78222100  0.21792900  0.48850100  1
  H  H18  1  0.76057500  0.29521400  0.59620200  1
  H  H19  1  0.21777800  0.78207000  0.51149900  1
  H  H20  1  0.23942500  0.70478500  0.40379800  1
  C  C1  1  0.85481700  0.03251400  0.67908200  1
  C  C2  1  0.14518300  0.96748600  0.32091800  1
  C  C3  1  0.85782700  0.01581300  0.76769000  1
  C  C4  1  0.14217300  0.98418600  0.23231000  1
  C  C5  1  0.99885800  0.02052800  0.81419000  1
  C  C6  1  0.00114100  0.97947100  0.18581000  1
  C  C7  1  0.13859300  0.03165400  0.76930700  1
  C  C8  1  0.86140700  0.96834500  0.23069300  1
  C  C9  1  0.13412800  0.04923400  0.68083100  1
  C  C10  1  0.86587100  0.95076600  0.31917000  1
  C  C11  1  0.99115500  0.05439900  0.63754900  1
  C  C12  1  0.00884500  0.94560000  0.36245100  1
  C  C13  1  0.09051900  0.07879100  0.96825800  1
  C  C14  1  0.90948100  0.92120800  0.03174200  1
  C  C15  1  0.09016000  0.06881900  0.05844700  1
  C  C16  1  0.90984000  0.93118000  0.94155300  1
  C  C17  1  0.99908800  0.99074700  0.09040600  1
  C  C18  1  0.00091100  0.00925300  0.90959400  1
  C  C19  1  0.71316700  0.02048200  0.62481000  1
  C  C20  1  0.28683300  0.97951700  0.37519000  1
  C  C21  1  0.27920600  0.03673000  0.62582700  1
  C  C22  1  0.72079400  0.96326900  0.37417400  1
  C  C23  1  0.69965400  0.54122700  0.51784000  1
  C  C24  1  0.30034500  0.45877300  0.48216000  1
  C  C25  1  0.67313100  0.66184900  0.51576800  1
  C  C26  1  0.32686800  0.33815000  0.48423200  1
  C  C27  1  0.40173400  0.64838800  0.49109900  1
  C  C28  1  0.59826500  0.35161100  0.50890100  1
  C  C29  1  0.42546900  0.52709100  0.49329900  1
  C  C30  1  0.57453100  0.47290800  0.50670100  1
  N  N1  1  0.47441800  0.28471400  0.49590100  1
  N  N2  1  0.52558200  0.71528500  0.50409900  1
  N  N3  1  0.17640100  0.16495100  0.93634800  1
  N  N4  1  0.82359900  0.83504800  0.06365200  1
  N  N5  1  0.75411600  0.30058900  0.52784200  1
  N  N6  1  0.24588300  0.69941000  0.47215800  1
  O  O1  1  0.64861300  0.11543300  0.59408500  1
  O  O2  1  0.35138600  0.88456700  0.40591500  1
  O  O3  1  0.67652900  0.91289100  0.59553400  1
  O  O4  1  0.32347000  0.08710800  0.40446600  1
  O  O5  1  0.34641100  0.92786500  0.59952900  1
  O  O6  1  0.65358900  0.07213400  0.40047100  1
  O  O7  1  0.31694900  0.12928700  0.59167900  1
  O  O8  1  0.68305100  0.87071200  0.40832100  1
