# generated using pymatgen
data_ZnH23C26N11O4
_symmetry_space_group_name_H-M   'P 1'
_cell_length_a   13.93562200
_cell_length_b   15.09674200
_cell_length_c   15.94861500
_cell_angle_alpha   89.98935200
_cell_angle_beta   72.35963700
_cell_angle_gamma   90.00525000
_symmetry_Int_Tables_number   1
_chemical_formula_structural   ZnH23C26N11O4
_chemical_formula_sum   'Zn2 H46 C52 N22 O8'
_cell_volume   3197.53394486
_cell_formula_units_Z   2
loop_
 _symmetry_equiv_pos_site_id
 _symmetry_equiv_pos_as_xyz
  1  'x, y, z'
loop_
 _atom_site_type_symbol
 _atom_site_label
 _atom_site_symmetry_multiplicity
 _atom_site_fract_x
 _atom_site_fract_y
 _atom_site_fract_z
 _atom_site_occupancy
  Zn  Zn1  1  0.39113500  0.49419300  0.49949600  1
  Zn  Zn2  1  0.60886500  0.50580700  0.50050400  1
  H  H1  1  0.45243600  0.51967500  0.22142300  1
  H  H2  1  0.54756400  0.48032500  0.77857700  1
  H  H3  1  0.35086000  0.48473600  0.15795000  1
  H  H4  1  0.64914100  0.51526500  0.84205000  1
  H  H5  1  0.27757300  0.58969900  0.41316000  1
  H  H6  1  0.72242700  0.41030100  0.58684000  1
  H  H7  1  0.19774100  0.55713300  0.14318500  1
  H  H8  1  0.19504800  0.44600300  0.12922400  1
  H  H9  1  0.80226000  0.44286800  0.85681400  1
  H  H10  1  0.80495200  0.55399600  0.87077500  1
  H  H11  1  0.25531000  0.31404600  0.55160300  1
  H  H12  1  0.25074500  0.38638900  0.63582300  1
  H  H13  1  0.74468900  0.68595500  0.44839700  1
  H  H14  1  0.74925400  0.61361100  0.36417700  1
  H  H15  1  0.17643100  0.66334600  0.27900500  1
  H  H16  1  0.15227000  0.73767400  0.36326300  1
  H  H17  1  0.82356900  0.33665400  0.72099500  1
  H  H18  1  0.84773000  0.26232600  0.63673700  1
  H  H19  1  0.95426700  0.66078100  0.29031600  1
  H  H20  1  0.93544100  0.73969500  0.37364700  1
  H  H21  1  0.06455800  0.26030500  0.62635300  1
  H  H22  1  0.04573300  0.33921900  0.70968400  1
  H  H23  1  0.79236700  0.38390900  0.21299900  1
  H  H24  1  0.82267000  0.49335100  0.21330500  1
  H  H25  1  0.20763200  0.61609100  0.78700100  1
  H  H26  1  0.17732900  0.50665000  0.78669500  1
  H  H27  1  0.16378200  0.60711000  0.98852700  1
  H  H28  1  0.13160900  0.49701900  0.97836200  1
  H  H29  1  0.86839100  0.50298000  0.02163600  1
  H  H30  1  0.83621900  0.39289000  0.01147200  1
  H  H31  1  0.39055300  0.27609400  0.66108900  1
  H  H32  1  0.51176900  0.27271500  0.66543800  1
  H  H33  1  0.60944600  0.72390600  0.33891100  1
  H  H34  1  0.48823000  0.72728500  0.33456200  1
  H  H35  1  0.52025700  0.28037000  0.34246900  1
  H  H36  1  0.64040900  0.27714200  0.34972300  1
  H  H37  1  0.47974300  0.71963000  0.65753100  1
  H  H38  1  0.35959000  0.72285800  0.65027700  1
  H  H39  1  0.55388000  0.12785500  0.24458600  1
  H  H40  1  0.67559900  0.12089100  0.25374100  1
  H  H41  1  0.32440000  0.87910900  0.74625900  1
  H  H42  1  0.44611900  0.87214500  0.75541500  1
  H  H43  1  0.53447300  0.88657800  0.24153600  1
  H  H44  1  0.65729300  0.87873800  0.24785900  1
  H  H45  1  0.34270700  0.12126300  0.75214100  1
  H  H46  1  0.46552700  0.11342200  0.75846400  1
  C  C1  1  0.48901400  0.67266400  0.49497500  1
  C  C2  1  0.51098600  0.32733600  0.50502500  1
  C  C3  1  0.44120800  0.50648400  0.67257300  1
  C  C4  1  0.55879200  0.49351600  0.32742700  1
  C  C5  1  0.40555100  0.51243400  0.76963000  1
  C  C6  1  0.59444800  0.48756600  0.23037000  1
  C  C7  1  0.27396100  0.53216200  0.90561100  1
  C  C8  1  0.72603800  0.46783800  0.09438900  1
  C  C9  1  0.30649600  0.53204800  0.81486700  1
  C  C10  1  0.69350300  0.46795200  0.18513300  1
  C  C11  1  0.47299300  0.49983800  0.81630100  1
  C  C12  1  0.52700700  0.50016200  0.18369900  1
  C  C13  1  0.44416800  0.50672800  0.90789200  1
  C  C14  1  0.55583100  0.49327200  0.09210800  1
  C  C15  1  0.34219000  0.51649100  0.95332800  1
  C  C16  1  0.65780900  0.48350900  0.04667200  1
  C  C17  1  0.51551700  0.50168700  0.95440400  1
  C  C18  1  0.48448300  0.49831300  0.04559600  1
  C  C19  1  0.38187500  0.49682800  0.08860300  1
  C  C20  1  0.61812400  0.50317200  0.91139700  1
  C  C21  1  0.31207300  0.50848200  0.04473400  1
  C  C22  1  0.68792700  0.49151800  0.95526600  1
  C  C23  1  0.48022900  0.18454600  0.58177600  1
  C  C24  1  0.51977000  0.81545400  0.41822400  1
  C  C25  1  0.51486600  0.23040800  0.50414400  1
  C  C26  1  0.48513300  0.76959200  0.49585600  1
  C  C27  1  0.54480200  0.18671900  0.42495900  1
  C  C28  1  0.45519700  0.81328100  0.57504200  1
  C  C29  1  0.53984300  0.09404200  0.42217500  1
  C  C30  1  0.46015700  0.90595800  0.57782500  1
  C  C31  1  0.50348800  0.04647000  0.50086700  1
  C  C32  1  0.49651200  0.95353000  0.49913300  1
  C  C33  1  0.47400400  0.09182400  0.58127900  1
  C  C34  1  0.52599500  0.90817600  0.41872100  1
  C  C35  1  0.56911000  0.04726600  0.34275800  1
  C  C36  1  0.43088900  0.95273400  0.65724200  1
  C  C37  1  0.56212700  0.95715700  0.34107400  1
  C  C38  1  0.43787200  0.04284300  0.65892700  1
  C  C39  1  0.17817200  0.42659800  0.55013800  1
  C  C40  1  0.82182800  0.57340200  0.44986200  1
  C  C41  1  0.22020900  0.54552500  0.45164200  1
  C  C42  1  0.77979100  0.45447500  0.54835800  1
  C  C43  1  0.12205100  0.55185200  0.44998100  1
  C  C44  1  0.87794800  0.44814800  0.55001900  1
  C  C45  1  0.04944700  0.49593100  0.50073100  1
  C  C46  1  0.95055300  0.50406900  0.49926900  1
  C  C47  1  0.07656700  0.43208300  0.55239500  1
  C  C48  1  0.92343200  0.56791700  0.44760500  1
  C  C49  1  0.09688100  0.61493200  0.39776600  1
  C  C50  1  0.90311800  0.38506900  0.60223400  1
  C  C51  1  0.99921100  0.62367200  0.39565000  1
  C  C52  1  0.00078800  0.37632900  0.60435000  1
  N  N1  1  0.24698500  0.48463000  0.50152800  1
  N  N2  1  0.75301500  0.51537000  0.49847200  1
  N  N3  1  0.20896400  0.50672000  0.09639700  1
  N  N4  1  0.79103600  0.49328000  0.90360300  1
  N  N5  1  0.21085000  0.35857500  0.59685100  1
  N  N6  1  0.78914900  0.64142500  0.40314900  1
  N  N7  1  0.17261000  0.67229500  0.34485400  1
  N  N8  1  0.82738900  0.32770500  0.65514600  1
  N  N9  1  0.98191800  0.68980100  0.33777800  1
  N  N10  1  0.01808200  0.31019900  0.66222200  1
  N  N11  1  0.76393500  0.44740700  0.23117200  1
  N  N12  1  0.23606400  0.55259300  0.76882800  1
  N  N13  1  0.17025200  0.55279600  0.94664800  1
  N  N14  1  0.82974700  0.44720400  0.05335200  1
  N  N15  1  0.45067200  0.23487500  0.66119100  1
  N  N16  1  0.54932700  0.76512500  0.33880900  1
  N  N17  1  0.57866500  0.23925300  0.34715800  1
  N  N18  1  0.42133500  0.76074700  0.65284200  1
  N  N19  1  0.60833700  0.08786900  0.25839800  1
  N  N20  1  0.39166200  0.91213100  0.74160200  1
  N  N21  1  0.59428200  0.91889900  0.25519900  1
  N  N22  1  0.40571800  0.08110100  0.74480100  1
  O  O1  1  0.40860100  0.62757700  0.49469000  1
  O  O2  1  0.59139900  0.37242300  0.50531000  1
  O  O3  1  0.57299200  0.63545700  0.49728700  1
  O  O4  1  0.42700800  0.36454300  0.50271300  1
  O  O5  1  0.37434900  0.50073700  0.62999600  1
  O  O6  1  0.62565100  0.49926300  0.37000400  1
  O  O7  1  0.53869900  0.50814800  0.63195100  1
  O  O8  1  0.46130000  0.49185200  0.36804900  1
