# generated using pymatgen
data_Zn3H22C43O18
_symmetry_space_group_name_H-M   'P 1'
_cell_length_a   27.26100200
_cell_length_b   27.67605300
_cell_length_c   27.30232300
_cell_angle_alpha   109.79105400
_cell_angle_beta   110.60444600
_cell_angle_gamma   108.27522000
_symmetry_Int_Tables_number   1
_chemical_formula_structural   Zn3H22C43O18
_chemical_formula_sum   'Zn6 H44 C86 O36'
_cell_volume   15801.56372967
_cell_formula_units_Z   2
loop_
 _symmetry_equiv_pos_site_id
 _symmetry_equiv_pos_as_xyz
  1  'x, y, z'
loop_
 _atom_site_type_symbol
 _atom_site_label
 _atom_site_symmetry_multiplicity
 _atom_site_fract_x
 _atom_site_fract_y
 _atom_site_fract_z
 _atom_site_occupancy
  Zn  Zn1  1  0.00475800  0.05511800  0.55461900  1
  Zn  Zn2  1  0.00095400  0.95571900  0.45902600  1
  Zn  Zn3  1  0.42971700  0.96873400  0.98993200  1
  Zn  Zn4  1  0.52385900  0.04977500  0.97807600  1
  Zn  Zn5  1  0.55947300  0.51363700  0.56996200  1
  Zn  Zn6  1  0.46047000  0.50204200  0.46272300  1
  H  H1  1  0.19864800  0.14198400  0.41733900  1
  H  H2  1  0.31889500  0.34627800  0.58694800  1
  H  H3  1  0.23981400  0.27189500  0.58582200  1
  H  H4  1  0.73630800  0.91340000  0.23525900  1
  H  H5  1  0.74648100  0.09794100  0.24900500  1
  H  H6  1  0.85694800  0.78783600  0.56246600  1
  H  H7  1  0.78397000  0.71356300  0.56745700  1
  H  H8  1  0.64708500  0.74575700  0.47617500  1
  H  H9  1  0.55893500  0.82469000  0.83301200  1
  H  H10  1  0.56360900  0.74604700  0.76187400  1
  H  H11  1  0.36823600  0.72912800  0.72825600  1
  H  H12  1  0.55102300  0.30133800  0.19696100  1
  H  H13  1  0.56622800  0.37755600  0.28868000  1
  H  H14  1  0.49614700  0.17397700  0.24777100  1
  H  H15  1  0.71398400  0.92129100  0.44936400  1
  H  H16  1  0.68740800  0.85983800  0.37646500  1
  H  H17  1  0.81563400  0.96509000  0.46353200  1
  H  H18  1  0.75965600  0.95346700  0.39392200  1
  H  H19  1  0.78983500  0.90351800  0.39143700  1
  H  H20  1  0.24188600  0.54868800  0.58995800  1
  H  H21  1  0.24766100  0.57777500  0.54054900  1
  H  H22  1  0.19973600  0.61090500  0.62593300  1
  H  H23  1  0.15477400  0.56247300  0.54441600  1
  H  H24  1  0.20541900  0.63984600  0.57660500  1
  H  H25  1  0.44444600  0.19671900  0.39269200  1
  H  H26  1  0.50377800  0.17758200  0.40402100  1
  H  H27  1  0.37230000  0.09937200  0.29938200  1
  H  H28  1  0.40632300  0.09185500  0.36455900  1
  H  H29  1  0.43132400  0.07993600  0.31036300  1
  H  H30  1  0.29611500  0.21692000  0.31302600  1
  H  H31  1  0.34230000  0.18957000  0.34755300  1
  H  H32  1  0.38410000  0.31690800  0.37355400  1
  H  H33  1  0.39921900  0.26411700  0.32969000  1
  H  H34  1  0.43057200  0.29112700  0.41016100  1
  H  H35  1  0.53075200  0.81276000  0.04701200  1
  H  H36  1  0.58398800  0.80769100  0.02288500  1
  H  H37  1  0.51060300  0.86985400  0.99755800  1
  H  H38  1  0.49712100  0.80007600  0.94374800  1
  H  H39  1  0.56518700  0.86734400  0.97506300  1
  H  H40  1  0.93403400  0.19981100  0.45501900  1
  H  H41  1  0.95741200  0.20323200  0.40111700  1
  H  H42  1  0.98525400  0.14425300  0.47644000  1
  H  H43  1  0.03736600  0.21225100  0.48784600  1
  H  H44  1  0.00582300  0.14307300  0.41999600  1
  C  C1  1  0.08465700  0.08139000  0.50236600  1
  C  C2  1  0.08787600  0.00732700  0.59319800  1
  C  C3  1  0.92110100  0.92947100  0.51130400  1
  C  C4  1  0.91783400  0.00351000  0.42047400  1
  C  C5  1  0.13476800  0.00757800  0.64051800  1
  C  C6  1  0.17388900  0.00788200  0.68022600  1
  C  C7  1  0.21989200  0.00830600  0.72706800  1
  C  C8  1  0.25897400  0.00868400  0.76688900  1
  C  C9  1  0.30499300  0.00910500  0.81371300  1
  C  C10  1  0.34414000  0.00938400  0.85336900  1
  C  C11  1  0.27049200  0.22862200  0.45417300  1
  C  C12  1  0.30414900  0.28639700  0.50273700  1
  C  C13  1  0.29284500  0.30135100  0.54958500  1
  C  C14  1  0.24843900  0.25977800  0.54895400  1
  C  C15  1  0.21484000  0.20281100  0.50117200  1
  C  C16  1  0.22571100  0.18721700  0.45408500  1
  C  C17  1  0.34974800  0.33269300  0.50561800  1
  C  C18  1  0.16858900  0.15961700  0.50074900  1
  C  C19  1  0.13007700  0.12375800  0.50115500  1
  C  C20  1  0.38755000  0.37211800  0.50819800  1
  C  C21  1  0.69286300  0.95217400  0.19189100  1
  C  C22  1  0.69560300  0.00482900  0.19653200  1
  C  C23  1  0.74452700  0.05748700  0.24638700  1
  C  C24  1  0.79092500  0.05920500  0.29143000  1
  C  C25  1  0.78733100  0.00654600  0.28765600  1
  C  C26  1  0.73816700  0.95387300  0.23803000  1
  C  C27  1  0.64864400  0.00668600  0.15136200  1
  C  C28  1  0.83293200  0.00475000  0.33424100  1
  C  C29  1  0.87135800  0.00378500  0.37333200  1
  C  C30  1  0.60941800  0.00791300  0.11333900  1
  C  C31  1  0.77010000  0.73744600  0.54648700  1
  C  C32  1  0.71150900  0.72605600  0.52226600  1
  C  C33  1  0.69360900  0.75616000  0.49518300  1
  C  C34  1  0.73411600  0.79796800  0.49158100  1
  C  C35  1  0.79347500  0.80917300  0.51618100  1
  C  C36  1  0.81088400  0.77897100  0.54350100  1
  C  C37  1  0.66845900  0.68134800  0.52346800  1
  C  C38  1  0.83848000  0.85166800  0.51458100  1
  C  C39  1  0.87633400  0.88718500  0.51318200  1
  C  C40  1  0.63204500  0.64299600  0.52341300  1
  C  C41  1  0.46556800  0.91847600  0.90031900  1
  C  C42  1  0.39108500  0.00953200  0.90053000  1
  C  C43  1  0.48832300  0.10005900  0.06803700  1
  C  C44  1  0.56249800  0.00891000  0.06735900  1
  C  C45  1  0.52816000  0.43576000  0.44409700  1
  C  C46  1  0.43164300  0.41942500  0.51089600  1
  C  C47  1  0.49172800  0.57983600  0.58865200  1
  C  C48  1  0.58826700  0.59626200  0.52174900  1
  C  C49  1  0.52051200  0.74175800  0.75475400  1
  C  C50  1  0.46831600  0.69285300  0.70493400  1
  C  C51  1  0.41235500  0.68656900  0.69461200  1
  C  C52  1  0.41052300  0.73147300  0.73468500  1
  C  C53  1  0.46310000  0.78057000  0.78362200  1
  C  C54  1  0.51800400  0.78570400  0.79432800  1
  C  C55  1  0.47494500  0.65173800  0.66341000  1
  C  C56  1  0.46126400  0.82776700  0.82331500  1
  C  C57  1  0.46202200  0.86880800  0.85779800  1
  C  C58  1  0.48225300  0.61855900  0.62904000  1
  C  C59  1  0.55249800  0.33316100  0.28059600  1
  C  C60  1  0.54119600  0.31869900  0.32047800  1
  C  C61  1  0.52194900  0.26170100  0.31012500  1
  C  C62  1  0.51204600  0.21911500  0.25786000  1
  C  C63  1  0.52222000  0.23366100  0.21763400  1
  C  C64  1  0.54336100  0.29057700  0.22908400  1
  C  C65  1  0.54040300  0.36126200  0.36672500  1
  C  C66  1  0.51010400  0.18858400  0.16334100  1
  C  C67  1  0.49974800  0.14897100  0.11869400  1
  C  C68  1  0.53629900  0.39590700  0.40326500  1
  C  C69  1  0.71221700  0.82850500  0.46144500  1
  C  C70  1  0.72684000  0.89312000  0.42259300  1
  C  C71  1  0.77627300  0.93136100  0.41752000  1
  C  C72  1  0.35491000  0.63455300  0.64240900  1
  C  C73  1  0.24871900  0.58748300  0.58392000  1
  C  C74  1  0.19880200  0.60107000  0.58261500  1
  C  C75  1  0.50985300  0.24484100  0.35207100  1
  C  C76  1  0.46142300  0.17083000  0.36971100  1
  C  C77  1  0.41472300  0.10615000  0.33359200  1
  C  C78  1  0.28022900  0.20959200  0.40245300  1
  C  C79  1  0.33567500  0.22838100  0.35455400  1
  C  C80  1  0.39108400  0.27844000  0.36784800  1
  C  C81  1  0.64347500  0.89409500  0.13909600  1
  C  C82  1  0.56382600  0.83511300  0.03650100  1
  C  C83  1  0.53206700  0.84364700  0.98476300  1
  C  C84  1  0.84280200  0.11735500  0.34161500  1
  C  C85  1  0.94462000  0.17667000  0.42161900  1
  C  C86  1  0.99674800  0.16852100  0.45359100  1
  O  O1  1  0.06756400  0.10083000  0.54066100  1
  O  O2  1  0.06289700  0.02529900  0.46564600  1
  O  O3  1  0.06797000  0.04407400  0.60921500  1
  O  O4  1  0.06673100  0.97020100  0.53599800  1
  O  O5  1  0.94287100  0.98554700  0.54805100  1
  O  O6  1  0.93811400  0.91000300  0.47294600  1
  O  O7  1  0.93893300  0.04057000  0.47765500  1
  O  O8  1  0.93776800  0.96679600  0.40443100  1
  O  O9  1  0.43148000  0.90910200  0.92356800  1
  O  O10  1  0.50535200  0.97070700  0.91637900  1
  O  O11  1  0.37567200  0.97937000  0.92596300  1
  O  O12  1  0.44735400  0.03922700  0.91559500  1
  O  O13  1  0.44847600  0.04782300  0.05181000  1
  O  O14  1  0.52241400  0.10942400  0.04475400  1
  O  O15  1  0.50619100  0.97923700  0.05237000  1
  O  O16  1  0.57793100  0.03903400  0.04190300  1
  O  O17  1  0.56091900  0.45560600  0.50203000  1
  O  O18  1  0.48732500  0.44940200  0.42086500  1
  O  O19  1  0.48831100  0.44359300  0.55229800  1
  O  O20  1  0.41274800  0.43704300  0.47257600  1
  O  O21  1  0.53257900  0.56620500  0.61188500  1
  O  O22  1  0.45897800  0.55998800  0.53071400  1
  O  O23  1  0.60718600  0.57860100  0.56007400  1
  O  O24  1  0.53162700  0.57205800  0.48039400  1
  O  O25  1  0.66090000  0.81966300  0.44492900  1
  O  O26  1  0.74745800  0.86533500  0.45104600  1
  O  O27  1  0.35337400  0.59034100  0.61016900  1
  O  O28  1  0.30299400  0.63532100  0.63124900  1
  O  O29  1  0.53562400  0.28096000  0.40583700  1
  O  O30  1  0.47173000  0.18827200  0.33126100  1
  O  O31  1  0.24580500  0.15976300  0.35899800  1
  O  O32  1  0.32687300  0.24589900  0.40263600  1
  O  O33  1  0.63617200  0.84968200  0.14221200  1
  O  O34  1  0.60816900  0.88906500  0.08645900  1
  O  O35  1  0.83889000  0.16174500  0.34941700  1
  O  O36  1  0.89545700  0.12252200  0.37708500  1
