# generated using pymatgen
data_ZnH5C10NO5
_symmetry_space_group_name_H-M   'P 1'
_cell_length_a   8.53452800
_cell_length_b   8.76591400
_cell_length_c   12.47783900
_cell_angle_alpha   95.96283600
_cell_angle_beta   90.09229600
_cell_angle_gamma   97.91371900
_symmetry_Int_Tables_number   1
_chemical_formula_structural   ZnH5C10NO5
_chemical_formula_sum   'Zn2 H10 C20 N2 O10'
_cell_volume   919.49097057
_cell_formula_units_Z   2
loop_
 _symmetry_equiv_pos_site_id
 _symmetry_equiv_pos_as_xyz
  1  'x, y, z'
loop_
 _atom_site_type_symbol
 _atom_site_label
 _atom_site_symmetry_multiplicity
 _atom_site_fract_x
 _atom_site_fract_y
 _atom_site_fract_z
 _atom_site_occupancy
  Zn  Zn1  1  0.50944100  0.50232500  0.88068100  1
  Zn  Zn2  1  0.50749200  0.49886800  0.11931200  1
  H  H1  1  0.99393300  0.38707300  0.94857800  1
  H  H2  1  0.02299900  0.61411800  0.05142900  1
  H  H3  1  0.68477800  0.98729500  0.01321300  1
  H  H4  1  0.33215600  0.01389300  0.98679000  1
  H  H5  1  0.49265900  0.20250200  0.54743200  1
  H  H6  1  0.60112700  0.26626000  0.43223100  1
  H  H7  1  0.28322900  0.18258000  0.46455600  1
  H  H8  1  0.52376400  0.79858800  0.45240100  1
  H  H9  1  0.62913600  0.75290400  0.56808100  1
  H  H10  1  0.32918500  0.80652100  0.54286200  1
  C  C1  1  0.10592200  0.19288300  0.97623200  1
  C  C2  1  0.91101200  0.80830700  0.02376700  1
  C  C3  1  0.97650000  0.26692500  0.96305200  1
  C  C4  1  0.04043300  0.73426600  0.03695500  1
  C  C5  1  0.82633200  0.19505900  0.97913100  1
  C  C6  1  0.19059900  0.80612900  0.02087000  1
  C  C7  1  0.80332400  0.04216300  0.99960000  1
  C  C8  1  0.21361000  0.95902600  0.00040400  1
  C  C9  1  0.93225100  0.96240800  0.00471800  1
  C  C10  1  0.08468400  0.03878200  0.99528400  1
  C  C11  1  0.75626000  0.71293300  0.01628600  1
  C  C12  1  0.26067400  0.28825700  0.98370800  1
  C  C13  1  0.69812500  0.28991600  0.98613000  1
  C  C14  1  0.31880400  0.71127000  0.01386400  1
  C  C15  1  0.51118000  0.55752100  0.46854600  1
  C  C16  1  0.50592300  0.44383200  0.53144500  1
  C  C17  1  0.50881300  0.47765600  0.64679300  1
  C  C18  1  0.50818700  0.52362800  0.35319900  1
  C  C19  1  0.49608900  0.28032600  0.48260300  1
  C  C20  1  0.52037900  0.72099200  0.51736700  1
  N  N1  1  0.50632400  0.50073700  0.26016100  1
  N  N2  1  0.51061200  0.50046500  0.73983200  1
  O  O1  1  0.69893700  0.65692100  0.10375400  1
  O  O2  1  0.31799700  0.34426800  0.89623700  1
  O  O3  1  0.69527200  0.66719600  0.91968700  1
  O  O4  1  0.32166000  0.33399500  0.08030900  1
  O  O5  1  0.65702200  0.34560700  0.89831500  1
  O  O6  1  0.35991100  0.65558300  0.10167700  1
  O  O7  1  0.64859400  0.33517200  0.08230700  1
  O  O8  1  0.36833500  0.66601600  0.91768700  1
  O  O9  1  0.35915300  0.24149300  0.41897300  1
  O  O10  1  0.38793600  0.73747700  0.58049900  1
