data_DB0-m3_o11_o26_f0_pcu.sym.80_repeat
_audit_creation_date              2024-02-23
_audit_creation_method            'Materials Studio'
_symmetry_space_group_name_H-M    'P1'
_symmetry_Int_Tables_number       1
_symmetry_cell_setting            triclinic
loop_
_symmetry_equiv_pos_as_xyz
  x,y,z
_cell_length_a                    9.9144
_cell_length_b                    11.1313
_cell_length_c                    17.4517
_cell_angle_alpha                 90.0068
_cell_angle_beta                  86.2298
_cell_angle_gamma                 89.9974
loop_
_atom_site_label
_atom_site_type_symbol
_atom_site_fract_x
_atom_site_fract_y
_atom_site_fract_z
_atom_site_U_iso_or_equiv
_atom_site_adp_type
_atom_site_occupancy
O1     O     0.36902   0.66710   0.48436   0.00000  Uiso   1.00
O2     O     0.60132   0.66657   0.48468   0.00000  Uiso   1.00
C1     C     0.48504   0.72291   0.48404   0.00000  Uiso   1.00
O3     O     0.34856   0.49164   0.60152   0.00000  Uiso   1.00
O4     O     0.58074   0.49058   0.60149   0.00000  Uiso   1.00
C2     C     0.46062   0.49264   0.63753   0.00000  Uiso   1.00
Zn1    Zn    0.32795   0.48898   0.48678   0.00000  Uiso   1.00
Zn2    Zn    0.63473   0.48696   0.48755   0.00000  Uiso   1.00
O5     O     0.36103   0.30948   0.48915   0.00000  Uiso   1.00
O6     O     0.59432   0.30848   0.48909   0.00000  Uiso   1.00
O7     O     0.38143   0.48403   0.37283   0.00000  Uiso   1.00
O8     O     0.61459   0.48340   0.37271   0.00000  Uiso   1.00
C3     C     0.47727   0.25304   0.48993   0.00000  Uiso   1.00
C4     C     0.50188   0.48275   0.33684   0.00000  Uiso   1.00
C5     C     0.45208   0.49641   0.72176   0.00000  Uiso   1.00
C6     C     0.56825   0.50588   0.76086   0.00000  Uiso   1.00
C7     C     0.56090   0.50978   0.83992   0.00000  Uiso   1.00
C8     C     0.43720   0.50368   0.88154   0.00000  Uiso   1.00
C9     C     0.31997   0.49706   0.84207   0.00000  Uiso   1.00
C10    C     0.32834   0.49172   0.76280   0.00000  Uiso   1.00
C11    C     0.39538   0.47494   0.13556   0.00000  Uiso   1.00
C12    C     0.39103   0.47819   0.21455   0.00000  Uiso   1.00
C13    C     0.63193   0.47595   0.21040   0.00000  Uiso   1.00
C14    C     0.63615   0.47232   0.13117   0.00000  Uiso   1.00
C15    C     0.51827   0.47371   0.09309   0.00000  Uiso   1.00
C16    C     0.42912   0.51007   0.96630   0.00000  Uiso   1.00
C17    C     0.52741   0.46864   0.00848   0.00000  Uiso   1.00
C18    C     0.50905   0.47937   0.25258   0.00000  Uiso   1.00
H1     H     0.66645   0.51156   0.73034   0.00000  Uiso   1.00
H2     H     0.29328   0.47887   0.24580   0.00000  Uiso   1.00
H3     H     0.72574   0.47583   0.23861   0.00000  Uiso   1.00
H4     H     0.61806   0.42971   0.98086   0.00000  Uiso   1.00
H5     H     0.30075   0.47002   0.10852   0.00000  Uiso   1.00
H6     H     0.23604   0.48345   0.73356   0.00000  Uiso   1.00
H7     H     0.34036   0.55063   0.99460   0.00000  Uiso   1.00
H8     H     0.65378   0.52113   0.86808   0.00000  Uiso   1.00
H9     H     0.73291   0.46968   0.09883   0.00000  Uiso   1.00
C19    C     0.58776   0.05571   0.48735   0.00000  Uiso   1.00
C20    C     0.47408   0.12139   0.49103   0.00000  Uiso   1.00
H10    H     0.68468   0.10098   0.48479   0.00000  Uiso   1.00
H11    H     0.37507   0.08074   0.49523   0.00000  Uiso   1.00
C21    C     0.59042   0.92260   0.48767   0.00000  Uiso   1.00
C22    C     0.48033   0.85440   0.48245   0.00000  Uiso   1.00
H12    H     0.68776   0.87961   0.49171   0.00000  Uiso   1.00
H13    H     0.38174   0.89321   0.47696   0.00000  Uiso   1.00
C23    C     0.06032   0.41329   0.44760   0.00000  Uiso   1.00
N1     N     0.12660   0.49161   0.48409   0.00000  Uiso   1.00
H14    H     0.11425   0.33981   0.41864   0.00000  Uiso   1.00
H15    H     0.07606   0.56844   0.50140   0.00000  Uiso   1.00
C24    C     0.91270   0.42397   0.44038   0.00000  Uiso   1.00
N2     N     0.83618   0.48291   0.48939   0.00000  Uiso   1.00
H16    H     0.86780   0.37663   0.39413   0.00000  Uiso   1.00
H17    H     0.87887   0.51222   0.53805   0.00000  Uiso   1.00
N3     N     0.19142   0.48624   0.88158   0.00000  Uiso   1.00
C25    C     0.12836   0.59649   0.90336   0.00000  Uiso   1.00
C26    C     0.04290   0.60054   0.96924   0.00000  Uiso   1.00
C27    C     0.97965   0.70626   0.99178   0.00000  Uiso   1.00
C28    C     0.00060   0.80872   0.94847   0.00000  Uiso   1.00
C29    C     0.08434   0.80528   0.88234   0.00000  Uiso   1.00
C30    C     0.14800   0.69978   0.85949   0.00000  Uiso   1.00
H18    H     0.18856   0.42477   0.92567   0.00000  Uiso   1.00
H19    H     0.02489   0.52083   0.00379   0.00000  Uiso   1.00
H20    H     0.91338   0.70866   0.04348   0.00000  Uiso   1.00
H21    H     0.95085   0.89157   0.96611   0.00000  Uiso   1.00
H22    H     0.09987   0.88553   0.84802   0.00000  Uiso   1.00
H23    H     0.21096   0.70091   0.80667   0.00000  Uiso   1.00
