# generated using pymatgen
data_V2H18C31SO10
_symmetry_space_group_name_H-M   'P 1'
_cell_length_a   6.32723800
_cell_length_b   16.39523900
_cell_length_c   19.06695600
_cell_angle_alpha   109.43317200
_cell_angle_beta   90.68692400
_cell_angle_gamma   90.81547600
_symmetry_Int_Tables_number   1
_chemical_formula_structural   V2H18C31SO10
_chemical_formula_sum   'V4 H36 C62 S2 O20'
_cell_volume   1864.77559408
_cell_formula_units_Z   2
loop_
 _symmetry_equiv_pos_site_id
 _symmetry_equiv_pos_as_xyz
  1  'x, y, z'
loop_
 _atom_site_type_symbol
 _atom_site_label
 _atom_site_symmetry_multiplicity
 _atom_site_fract_x
 _atom_site_fract_y
 _atom_site_fract_z
 _atom_site_occupancy
  V  V1  1  0.06095600  0.48791000  0.49587600  1
  V  V2  1  0.56166800  0.50873300  0.49933100  1
  V  V3  1  0.68306100  0.00802300  0.99953600  1
  V  V4  1  0.18236200  0.98712300  0.99562300  1
  H  H1  1  0.11309200  0.63581900  0.21425900  1
  H  H2  1  0.11149800  0.55073600  0.29749600  1
  H  H3  1  0.58037700  0.77501200  0.32592900  1
  H  H4  1  0.53233000  0.80319900  0.23254100  1
  H  H5  1  0.19671300  0.82962800  0.11124800  1
  H  H6  1  0.18227300  0.74092100  0.19031200  1
  H  H7  1  0.69851000  0.63028500  0.93236000  1
  H  H8  1  0.00995600  0.96409000  0.79720600  1
  H  H9  1  0.08829400  0.98701600  0.67994300  1
  H  H10  1  0.05027100  0.86658900  0.56199400  1
  H  H11  1  0.93617600  0.72458900  0.56117800  1
  H  H12  1  0.73632400  0.53313600  0.69711100  1
  H  H13  1  0.65883500  0.51006200  0.81434200  1
  H  H14  1  0.81311800  0.77217400  0.93325600  1
  H  H15  1  0.49487800  0.49710300  0.18582600  1
  H  H16  1  0.28107100  0.26556100  0.43172500  1
  H  H17  1  0.22497300  0.11785500  0.42848500  1
  H  H18  1  0.24556200  0.99744500  0.31053000  1
  H  H19  1  0.32494500  0.02619100  0.19574800  1
  H  H20  1  0.45740000  0.22910800  0.06442900  1
  H  H21  1  0.51396900  0.37677300  0.06775400  1
  H  H22  1  0.41615500  0.46825300  0.30059700  1
  H  H23  1  0.66147100  0.23626900  0.67199400  1
  H  H24  1  0.63487100  0.32327400  0.59082500  1
  H  H25  1  0.04892400  0.42160500  0.68756000  1
  H  H26  1  0.06618100  0.33189600  0.76639100  1
  H  H27  1  0.14007700  0.29135800  0.84915100  1
  H  H28  1  0.15965100  0.20015400  0.92694000  1
  H  H29  1  0.63982800  0.05249400  0.79003300  1
  H  H30  1  0.61532700  0.13965900  0.70921200  1
  H  H31  1  0.60190500  0.84626800  0.49868400  1
  H  H32  1  0.82804900  0.77620100  0.48312000  1
  H  H33  1  0.64960000  0.78066400  0.55732700  1
  H  H34  1  0.31008600  0.82908000  0.01576500  1
  H  H35  1  0.48301500  0.76387600  0.04974900  1
  H  H36  1  0.59313000  0.84489900  0.01447500  1
  C  C1  1  0.35330100  0.39061200  0.38282100  1
  C  C2  1  0.32116200  0.42989100  0.58552100  1
  C  C3  1  0.82885300  0.60577900  0.61247700  1
  C  C4  1  0.85389800  0.56487900  0.40911900  1
  C  C5  1  0.99614900  0.64867700  0.25711400  1
  C  C6  1  0.99439100  0.59986400  0.30351000  1
  C  C7  1  0.84607100  0.61439700  0.35832100  1
  C  C8  1  0.69571800  0.67665600  0.36572400  1
  C  C9  1  0.69597300  0.72517000  0.31879900  1
  C  C10  1  0.84831300  0.71220100  0.26503600  1
  C  C11  1  0.68070100  0.81065500  0.20768300  1
  C  C12  1  0.69199800  0.86189900  0.16312700  1
  C  C13  1  0.87781500  0.87012000  0.12931100  1
  C  C14  1  0.05161600  0.82481200  0.13812500  1
  C  C15  1  0.04183300  0.77364100  0.18244900  1
  C  C16  1  0.85669300  0.76653600  0.21774800  1
  C  C17  1  0.99946200  0.90999900  0.74602400  1
  C  C18  1  0.04194000  0.92332700  0.68000800  1
  C  C19  1  0.02084000  0.85587000  0.61400800  1
  C  C20  1  0.95860100  0.77499000  0.61398800  1
  C  C21  1  0.92040600  0.76054800  0.68033000  1
  C  C22  1  0.93944800  0.82882400  0.74650600  1
  C  C23  1  0.85476800  0.67978300  0.68115200  1
  C  C24  1  0.80718000  0.66837400  0.74785600  1
  C  C25  1  0.82662200  0.73658700  0.81404100  1
  C  C26  1  0.89149300  0.81743900  0.81320300  1
  C  C27  1  0.74708800  0.58719300  0.74830500  1
  C  C28  1  0.70516600  0.57376500  0.81431000  1
  C  C29  1  0.72715700  0.64110600  0.88034200  1
  C  C30  1  0.78945600  0.72198900  0.88039400  1
  C  C31  1  0.28432600  0.21470100  0.37876700  1
  C  C32  1  0.25474100  0.13077400  0.37742700  1
  C  C33  1  0.26637100  0.06333900  0.31142000  1
  C  C34  1  0.30911300  0.07981400  0.24675500  1
  C  C35  1  0.33676000  0.16385100  0.24750900  1
  C  C36  1  0.32230000  0.23197200  0.31364300  1
  C  C37  1  0.38581000  0.17852700  0.18217500  1
  C  C38  1  0.41781000  0.26253400  0.18260200  1
  C  C39  1  0.40369200  0.33061300  0.24874500  1
  C  C40  1  0.35490100  0.31595300  0.31408900  1
  C  C41  1  0.45508300  0.27987600  0.11745500  1
  C  C42  1  0.48477300  0.36381000  0.11882900  1
  C  C43  1  0.47396300  0.43119600  0.18489300  1
  C  C44  1  0.43162900  0.41465800  0.24955200  1
  C  C45  1  0.52409600  0.27547900  0.67552700  1
  C  C46  1  0.51094700  0.32537300  0.62989300  1
  C  C47  1  0.34064200  0.37812400  0.63438700  1
  C  C48  1  0.18364300  0.38081100  0.68446100  1
  C  C49  1  0.19485800  0.33029000  0.72944500  1
  C  C50  1  0.36524100  0.27706500  0.72537600  1
  C  C51  1  0.24769000  0.23815300  0.83426300  1
  C  C52  1  0.25901000  0.18695700  0.87884500  1
  C  C53  1  0.40059000  0.12051100  0.86318700  1
  C  C54  1  0.52887600  0.10473200  0.80245200  1
  C  C55  1  0.51614800  0.15497000  0.75727000  1
  C  C56  1  0.37650200  0.22262000  0.77307000  1
  C  C57  1  0.42202200  0.06825500  0.91157600  1
  C  C58  1  0.38970700  0.10394900  0.11341400  1
  C  C59  1  0.88395800  0.92573600  0.08325800  1
  C  C60  1  0.91539100  0.89151900  0.88191700  1
  C  C61  1  0.66047500  0.78341000  0.50014400  1
  C  C62  1  0.46129700  0.82929400  0.04596200  1
  S  S1  1  0.50315500  0.69570000  0.43685800  1
  S  S2  1  0.46040700  0.90823200  0.13942900  1
  O  O1  1  0.43795000  0.41229100  0.52631200  1
  O  O2  1  0.23249900  0.38830700  0.43888700  1
  O  O3  1  0.02035800  0.51548200  0.40384300  1
  O  O4  1  0.15041100  0.47451200  0.59091100  1
  O  O5  1  0.94584500  0.60062000  0.55520300  1
  O  O6  1  0.51671300  0.44426600  0.39289100  1
  O  O7  1  0.33827100  0.56393900  0.50671800  1
  O  O8  1  0.65535900  0.55985000  0.60423900  1
  O  O9  1  0.74079900  0.59204500  0.47063300  1
  O  O10  1  0.83281400  0.43229900  0.48589000  1
  O  O11  1  0.22772900  0.04952900  0.10278800  1
  O  O12  1  0.59338000  0.02365700  0.90538200  1
  O  O13  1  0.79827700  0.89587800  0.93894800  1
  O  O14  1  0.51161200  0.10698500  0.05783000  1
  O  O15  1  0.72315000  0.97829400  0.09053100  1
  O  O16  1  0.30562600  0.08485000  0.97087600  1
  O  O17  1  0.40571400  0.93180600  0.98748300  1
  O  O18  1  0.00417100  0.90255100  0.02312400  1
  O  O19  1  0.08808100  0.93796000  0.89063000  1
  O  O20  1  0.91122100  0.06373000  0.01042900  1
