# Generated by REPEAT Assigner based on pymatgen
data_DB0-m2_o3_o14_f0_pcu.sym.84_sqe
_audit_creation_date              2022-05-24
_audit_creation_method            REPEAT_Assigner
_cell_length_a                    19.351569
_cell_length_b                    17.890604
_cell_length_c                    10.847970
_cell_angle_alpha                 90.000000
_cell_angle_beta                  90.006514
_cell_angle_gamma                 90.000000
_cell_volume                      3755.689273
_symmetry_space_group_name_H-M    P1
_symmetry_Int_Tables_number       1
loop_
    _symmetry_equiv_pos_site_id
    _symmetry_equiv_pos_as_xyz
    1  x,y,z
loop_
    _atom_site_type_symbol
    _atom_site_label
    _atom_site_fract_x
    _atom_site_fract_y
    _atom_site_fract_z
    _atom_type_partial_charge
    O   O1   0.399262  0.560217  0.530668  -0.579407
    O   O2   0.597267  0.560334  0.471350  -0.580341
    O   O3   0.399392  0.436103  0.469226  -0.634051
    O   O4   0.597085  0.436343  0.532441  -0.634009
    C   C1   0.366858  0.498199  0.500082  0.569222
    C   C2   0.629767  0.498170  0.500905  0.566294
    O   O5   0.481559  0.560148  0.324698  -0.550763
    O   O6   0.514976  0.560291  0.677451  -0.554542
    O   O7   0.516388  0.436614  0.324518  -0.624146
    O   O8   0.480135  0.436668  0.677167  -0.625112
    C   C3   0.503648  0.500287  0.266275  0.764134
    C   C4   0.493322  0.500219  0.735815  0.766288
    Cu  Cu1  0.498303  0.571585  0.501145  0.778184
    Cu  Cu2  0.498224  0.424780  0.500879  1.176529
    H   H1   0.503052  0.383612  0.111043  0.120487
    H   H2   0.494133  0.383740  0.890884  0.121717
    C   C5   0.521958  0.638125  0.118948  -0.361207
    C   C6   0.471520  0.637531  0.883712  -0.363813
    H   H3   0.546919  0.641239  0.207340  0.167864
    H   H4   0.447274  0.639858  0.794460  0.172503
    C   C7   0.511288  0.704549  0.058618  0.006672
    C   C8   0.482382  0.704305  0.943464  -0.002331
    H   H5   0.524442  0.756819  0.103190  0.040368
    H   H6   0.470886  0.756486  0.897973  0.042205
    C   C9   0.489531  0.570008  0.938843  0.265757
    C   C10  0.505441  0.570163  0.063856  0.263792
    C   C11  0.506393  0.502787  0.129558  -0.312719
    C   C12  0.490385  0.502731  0.872737  -0.310339
    C   C13  0.501641  0.436697  0.064378  -0.038397
    C   C14  0.495539  0.436671  0.937883  -0.039908
    C   C15  0.742401  0.441334  0.555221  -0.094535
    C   C16  0.254222  0.441197  0.447335  -0.087875
    H   H7   0.716322  0.395488  0.599405  0.079008
    H   H8   0.280504  0.395448  0.402917  0.077080
    C   C17  0.813580  0.442615  0.557122  -0.136951
    C   C18  0.183052  0.442283  0.445966  -0.145396
    H   H9   0.840097  0.398560  0.606239  0.103454
    H   H10  0.156647  0.398074  0.397574  0.105579
    C   C19  0.849635  0.499823  0.500019  0.057271
    C   C20  0.146854  0.499613  0.502421  0.066400
    C   C21  0.812601  0.556469  0.443114  -0.118818
    C   C22  0.183844  0.556157  0.559573  -0.123665
    H   H11  0.838290  0.601132  0.394335  0.103076
    H   H12  0.157637  0.600499  0.608284  0.103291
    C   C23  0.741343  0.556228  0.444762  -0.157968
    C   C24  0.255234  0.556069  0.557967  -0.154267
    H   H13  0.714173  0.601336  0.399538  0.124788
    H   H14  0.282635  0.600834  0.603541  0.125013
    C   C25  0.705685  0.498460  0.500185  0.046894
    C   C26  0.290935  0.498459  0.501672  0.039898
    C   C27  0.962406  0.566601  0.500676  -0.148607
    C   C28  0.033726  0.566584  0.500274  -0.149088
    H   H15  0.935926  0.619710  0.503270  0.114193
    H   H16  0.059902  0.619822  0.496821  0.113830
    C   C29  0.070367  0.500012  0.501835  0.084116
    C   C30  0.925961  0.500086  0.499805  0.085950
    C   C31  0.033699  0.433536  0.501712  -0.151409
    C   C32  0.962518  0.433632  0.499014  -0.142516
    H   H17  0.059681  0.380162  0.505152  0.112890
    H   H18  0.936330  0.380452  0.494306  0.109553
    C   C33  0.444598  0.721340  0.550510  0.020804
    C   C34  0.550852  0.721313  0.448234  0.021248
    H   H19  0.401846  0.691994  0.592256  0.129608
    H   H20  0.593070  0.691809  0.405563  0.129937
    C   C35  0.444037  0.798410  0.551498  -0.264660
    C   C36  0.552127  0.798390  0.448924  -0.263321
    H   H21  0.401313  0.827559  0.593558  0.134009
    H   H22  0.594806  0.827898  0.406392  0.133335
    C   C37  0.498237  0.837603  0.500792  0.471854
    N   N1   0.498217  0.683523  0.501266  -0.080122
    C   C38  0.550671  0.958690  0.557776  0.644523
    C   C39  0.444988  0.958432  0.443227  0.643977
    C   C40  0.550466  0.035848  0.556832  -0.508665
    C   C41  0.444422  0.035658  0.444765  -0.510187
    H   H23  0.592863  0.065424  0.599327  0.183573
    H   H24  0.401717  0.065121  0.402549  0.183288
    C   C42  0.497361  0.074758  0.500819  0.226278
    C   C43  0.497996  0.919565  0.500367  -0.611882
    C   C44  0.480235  0.196203  0.396814  -0.562743
    C   C45  0.515398  0.196245  0.604071  -0.564224
    H   H25  0.468816  0.166687  0.312467  0.183982
    H   H26  0.526441  0.166711  0.688490  0.180343
    C   C46  0.478083  0.273456  0.398670  0.641338
    C   C47  0.518288  0.273462  0.602260  0.645573
    N   N2   0.498528  0.312540  0.500493  -0.539757
    C   C48  0.497545  0.156856  0.500619  0.372754
    O   O9   0.604013  0.921400  0.613531  -0.512019
    C   C49  0.583830  0.910912  0.736127  0.350944
    H   H27  0.576260  0.850365  0.753502  -0.021570
    H   H28  0.534627  0.940619  0.754883  -0.059644
    C   C50  0.639759  0.940524  0.821082  0.128169
    H   H29  0.688876  0.910455  0.802946  0.001824
    H   H30  0.647380  0.001009  0.803700  -0.022030
    C   C51  0.618906  0.929183  0.954469  -0.297306
    H   H31  0.570182  0.959721  0.973499  0.066089
    H   H32  0.660246  0.951014  0.015445  0.077043
    H   H33  0.611432  0.868779  0.973088  0.058289
    O   O10  0.392127  0.920787  0.386817  -0.509628
    C   C52  0.412632  0.911801  0.264189  0.350245
    H   H34  0.421459  0.851603  0.245621  -0.020989
    H   H35  0.461147  0.942914  0.246459  -0.060108
    C   C53  0.356349  0.940976  0.179809  0.124544
    H   H36  0.307871  0.909911  0.198003  0.002108
    H   H37  0.347908  0.001337  0.197785  -0.020487
    C   C54  0.377125  0.929991  0.046332  -0.291418
    H   H38  0.425482  0.961128  0.027176  0.065278
    H   H39  0.335480  0.951286  0.985497  0.075086
    H   H40  0.385290  0.869674  0.027716  0.056991
    O   O11  0.461245  0.309065  0.291039  -0.418419
    C   C55  0.389205  0.306975  0.280727  0.343572
    H   H41  0.370445  0.364970  0.268928  0.051988
    H   H42  0.365682  0.282351  0.364639  -0.027935
    C   C56  0.367906  0.262411  0.167590  -0.037914
    H   H43  0.394676  0.285035  0.085273  0.008680
    H   H44  0.381841  0.202816  0.179180  0.012020
    C   C57  0.290435  0.268359  0.148598  -0.143369
    H   H45  0.262838  0.247770  0.231539  0.024744
    H   H46  0.275075  0.234113  0.067853  0.049232
    H   H47  0.276184  0.327456  0.131444  0.020452
    O   O12  0.535850  0.309299  0.709001  -0.422343
    C   C58  0.607843  0.306255  0.718525  0.351693
    H   H48  0.627538  0.363777  0.731320  0.050445
    H   H49  0.630792  0.281991  0.633823  -0.029622
    C   C59  0.628485  0.261227  0.831286  -0.040238
    H   H50  0.601408  0.283696  0.913399  0.007828
    H   H51  0.614531  0.201695  0.819093  0.015495
    C   C60  0.705815  0.266725  0.851002  -0.145844
    H   H52  0.733006  0.245140  0.768382  0.023608
    H   H53  0.720355  0.232638  0.932312  0.049642
    H   H54  0.720946  0.325708  0.867532  0.021891
