# Generated by REPEAT Assigner based on pymatgen
data_DB0-m2_o3_o11_f0_pcu.sym.74
_audit_creation_date              2022-05-24
_audit_creation_method            REPEAT_Assigner
_cell_length_a                    19.358106
_cell_length_b                    17.902543
_cell_length_c                    11.042260
_cell_angle_alpha                 90.000000
_cell_angle_beta                  90.007382
_cell_angle_gamma                 90.000000
_cell_volume                      3826.798154
_symmetry_space_group_name_H-M    P1
_symmetry_Int_Tables_number       1
loop_
    _symmetry_equiv_pos_site_id
    _symmetry_equiv_pos_as_xyz
    1  x,y,z
loop_
    _atom_site_type_symbol
    _atom_site_label
    _atom_site_fract_x
    _atom_site_fract_y
    _atom_site_fract_z
    _atom_type_partial_charge
    O   O1   0.399371  0.556679  0.506315  -0.578359
    O   O2   0.600102  0.556736  0.499051  -0.591676
    O   O3   0.399779  0.428353  0.505781  -0.596112
    O   O4   0.600531  0.428382  0.498783  -0.582403
    C   C1   0.367049  0.492409  0.503775  0.648730
    C   C2   0.632690  0.492632  0.494414  0.654700
    O   O5   0.495191  0.556682  0.322592  -0.665301
    O   O6   0.499398  0.556629  0.674288  -0.651543
    O   O7   0.500582  0.428345  0.322474  -0.643624
    O   O8   0.504478  0.428202  0.674428  -0.626582
    C   C3   0.497408  0.492645  0.265714  0.786741
    C   C4   0.502509  0.492547  0.730836  0.812003
    Cu  Cu1  0.499656  0.567146  0.498682  0.964103
    Cu  Cu2  0.500245  0.417716  0.498422  0.865690
    C   C5   0.502970  0.433036  0.931273  -0.003783
    C   C6   0.503282  0.432932  0.065547  -0.003423
    C   C7   0.504835  0.495033  0.863402  -0.346438
    C   C8   0.497018  0.494748  0.133000  -0.329899
    H   H1   0.500871  0.379001  0.887087  0.090907
    H   H2   0.507389  0.379213  0.110117  0.095115
    H   H3   0.508348  0.550095  0.902701  0.169996
    H   H4   0.491396  0.549176  0.092191  0.173267
    C   C9   0.744775  0.426221  0.494409  -0.088693
    C   C10  0.255230  0.425736  0.505230  -0.102550
    H   H5   0.717960  0.373431  0.493517  0.101363
    H   H6   0.281886  0.372596  0.504855  0.110142
    C   C11  0.815981  0.426382  0.495437  -0.152484
    C   C12  0.184005  0.425650  0.504764  -0.148465
    H   H7   0.842952  0.373597  0.497653  0.106036
    H   H8   0.157153  0.372699  0.505659  0.103664
    C   C13  0.852092  0.493035  0.496608  0.099677
    C   C14  0.147728  0.492130  0.505451  0.097626
    C   C15  0.815637  0.559626  0.496500  -0.162763
    C   C16  0.183707  0.558773  0.506191  -0.153317
    H   H9   0.842510  0.612549  0.493940  0.108332
    H   H10  0.156802  0.611603  0.503420  0.108930
    C   C17  0.744282  0.559381  0.495835  -0.065711
    C   C18  0.254864  0.559042  0.505633  -0.080007
    H   H11  0.716776  0.611940  0.495404  0.094807
    H   H12  0.281057  0.612283  0.503918  0.097961
    C   C19  0.708492  0.492722  0.494786  -0.060588
    C   C20  0.291220  0.492411  0.505634  -0.045484
    C   C21  0.964035  0.543936  0.568402  -0.137163
    C   C22  0.035245  0.543631  0.570731  -0.140902
    H   H13  0.936576  0.583389  0.624711  0.109440
    H   H14  0.061583  0.583026  0.628557  0.108319
    C   C23  0.071918  0.492180  0.503207  0.061824
    C   C24  0.928268  0.492792  0.498547  0.060338
    C   C25  0.036420  0.440980  0.433251  -0.136036
    C   C26  0.965174  0.441091  0.431353  -0.138857
    H   H15  0.063827  0.401506  0.376906  0.107314
    H   H16  0.938857  0.401197  0.374177  0.106302
    C   C27  0.461918  0.716252  0.581844  0.064277
    C   C28  0.537038  0.716512  0.415848  0.079319
    H   H17  0.431675  0.686215  0.647989  0.117992
    H   H18  0.567326  0.686115  0.349945  0.108286
    C   C29  0.461593  0.793242  0.583583  -0.340004
    C   C30  0.537367  0.793593  0.414613  -0.344421
    H   H19  0.429973  0.822591  0.648894  0.134390
    H   H20  0.566928  0.822981  0.346958  0.134357
    C   C31  0.499888  0.832510  0.499836  0.417633
    N   N1   0.499590  0.678976  0.498986  -0.149682
    C   C32  0.526455  0.952786  0.598649  0.230117
    C   C33  0.473219  0.953026  0.402352  0.216824
    C   C34  0.525955  0.030144  0.598362  -0.246367
    C   C35  0.473475  0.030291  0.402753  -0.239075
    H   H21  0.546077  0.060338  0.674771  0.135464
    H   H22  0.453805  0.060150  0.325325  0.131400
    C   C36  0.499745  0.069351  0.500611  -0.065827
    C   C37  0.499988  0.914361  0.500239  -0.204265
    C   C38  0.446287  0.191490  0.448290  -0.324648
    C   C39  0.552726  0.191516  0.554905  -0.314198
    H   H23  0.402433  0.162829  0.409358  0.150343
    H   H24  0.596188  0.163853  0.596848  0.146953
    C   C40  0.447606  0.268595  0.447964  0.073519
    C   C41  0.551800  0.268423  0.554537  0.051017
    H   H25  0.406199  0.298828  0.405069  0.110228
    H   H26  0.593865  0.298113  0.597741  0.124674
    N   N2   0.500500  0.305957  0.498543  -0.079464
    C   C42  0.499758  0.151820  0.500798  0.327164
    N   N3   0.556736  0.912373  0.695499  -0.202122
    C   C43  0.627093  0.888681  0.677797  0.047729
    C   C44  0.675710  0.935901  0.752564  0.230473
    O   O9   0.656745  0.932517  0.874449  -0.403697
    C   C45  0.594610  0.971771  0.884341  0.212080
    C   C46  0.536963  0.931415  0.817656  -0.012295
    H   H27  0.641299  0.894171  0.580979  0.004261
    H   H28  0.632430  0.829364  0.705383  0.027566
    H   H29  0.676183  0.994236  0.719016  -0.016826
    H   H30  0.728746  0.913305  0.742620  0.011444
    H   H31  0.600510  0.029924  0.852005  -0.014025
    H   H32  0.580272  0.975025  0.981357  0.002938
    H   H33  0.489990  0.966778  0.816705  0.035607
    H   H34  0.524701  0.879258  0.867528  0.041787
    N   N4   0.443190  0.912734  0.305367  -0.182813
    C   C47  0.372883  0.889080  0.323237  0.037926
    C   C48  0.324170  0.936468  0.248892  0.228100
    O   O10  0.342968  0.933329  0.126892  -0.400744
    C   C49  0.405051  0.972659  0.116614  0.205036
    C   C50  0.462859  0.932569  0.183505  -0.015290
    H   H35  0.358803  0.894186  0.420302  0.007986
    H   H36  0.367713  0.829892  0.295127  0.028579
    H   H37  0.323574  0.994759  0.282848  -0.016066
    H   H38  0.271243  0.913581  0.258816  0.012070
    H   H39  0.399035  0.031117  0.147717  -0.012356
    H   H40  0.419464  0.975236  0.019538  0.005938
    H   H41  0.509786  0.968097  0.184665  0.038057
    H   H42  0.475346  0.880672  0.133372  0.041485
