# generated using pymatgen
data_Fe2H18C42N4O17
_symmetry_space_group_name_H-M   'P 1'
_cell_length_a   12.29585200
_cell_length_b   16.71849500
_cell_length_c   13.22370700
_cell_angle_alpha   106.38955400
_cell_angle_beta   91.56402600
_cell_angle_gamma   107.70185600
_symmetry_Int_Tables_number   1
_chemical_formula_structural   Fe2H18C42N4O17
_chemical_formula_sum   'Fe2 H18 C42 N4 O17'
_cell_volume   2465.33898820
_cell_formula_units_Z   1
loop_
 _symmetry_equiv_pos_site_id
 _symmetry_equiv_pos_as_xyz
  1  'x, y, z'
loop_
 _atom_site_type_symbol
 _atom_site_label
 _atom_site_symmetry_multiplicity
 _atom_site_fract_x
 _atom_site_fract_y
 _atom_site_fract_z
 _atom_site_occupancy
  Fe  Fe1  1  0.51005400  0.02045500  0.29323900  1
  Fe  Fe2  1  0.49188600  0.99157200  0.73084600  1
  H  H1  1  0.07181500  0.06114700  0.81612700  1
  H  H2  1  0.87828100  0.97237900  0.74930400  1
  H  H3  1  0.10243000  0.12567200  0.21753800  1
  H  H4  1  0.93232700  0.05229100  0.27643000  1
  H  H5  1  0.35640900  0.97440800  0.01031100  1
  H  H6  1  0.64596900  0.03749000  0.01428800  1
  H  H7  1  0.06586000  0.94934400  0.74594800  1
  H  H8  1  0.88978100  0.88525900  0.79955400  1
  H  H9  1  0.12680900  0.04637000  0.27528000  1
  H  H10  1  0.48719300  0.27640100  0.44044600  1
  H  H11  1  0.49793600  0.43877800  0.75642300  1
  H  H12  1  0.49323100  0.31763500  0.82290300  1
  H  H13  1  0.50220300  0.57280700  0.26738600  1
  H  H14  1  0.50631600  0.69385100  0.20090100  1
  H  H15  1  0.51523100  0.73565200  0.58360800  1
  H  H16  1  0.81138800  0.84180300  0.05426200  1
  H  H17  1  0.81301100  0.70788200  0.12196100  1
  H  H18  1  0.94713400  0.77505500  0.30479400  1
  C  C1  1  0.27086400  0.97922200  0.00738000  1
  C  C2  1  0.21757500  0.98145900  0.91539200  1
  C  C3  1  0.10737000  0.98875300  0.91540600  1
  C  C4  1  0.04574600  0.99213500  0.81845600  1
  C  C5  1  0.91682500  0.95777200  0.81579500  1
  C  C6  1  0.22749500  0.99949100  0.10223900  1
  C  C7  1  0.12265100  0.01430900  0.10429900  1
  C  C8  1  0.05840900  0.00098300  0.00993000  1
  C  C9  1  0.94250400  0.00835300  0.01265300  1
  C  C10  1  0.87906300  0.99726700  0.91881000  1
  C  C11  1  0.77420600  0.01199000  0.92177700  1
  C  C12  1  0.08323900  0.05421400  0.20611100  1
  C  C13  1  0.95517200  0.01311700  0.20278300  1
  C  C14  1  0.89271100  0.01827500  0.10705300  1
  C  C15  1  0.78362500  0.02808800  0.10834100  1
  C  C16  1  0.73107100  0.03182500  0.01685800  1
  C  C17  1  0.71357300  0.02651500  0.19758300  1
  C  C18  1  0.51047900  0.85635800  0.30747200  1
  C  C19  1  0.30684800  0.02080400  0.19765900  1
  C  C20  1  0.47745200  0.13357500  0.47949100  1
  C  C21  1  0.52431800  0.87831800  0.54450300  1
  C  C22  1  0.69470400  0.99094100  0.82653200  1
  C  C23  1  0.48980100  0.15529700  0.71651500  1
  C  C24  1  0.28740600  0.98388000  0.82628800  1
  C  C25  1  0.48371900  0.21542200  0.56110300  1
  C  C26  1  0.48923300  0.28604900  0.52480200  1
  C  C27  1  0.49387100  0.36652000  0.59322600  1
  C  C28  1  0.49426400  0.37652500  0.70049800  1
  C  C29  1  0.49106800  0.30690400  0.73829900  1
  C  C30  1  0.48634700  0.22557000  0.66999700  1
  C  C31  1  0.50391600  0.57220400  0.47291900  1
  C  C32  1  0.49759000  0.43965000  0.55102600  1
  C  C33  1  0.50629200  0.63514600  0.32336400  1
  C  C34  1  0.50911400  0.70470100  0.28555600  1
  C  C35  1  0.51428600  0.78612600  0.35392800  1
  C  C36  1  0.51780000  0.79643500  0.46287500  1
  C  C37  1  0.51260400  0.72587500  0.49920100  1
  C  C38  1  0.50747700  0.64530400  0.43071300  1
  C  C39  1  0.92884300  0.91981500  0.20380700  1
  C  C40  1  0.85837000  0.84608200  0.12693100  1
  C  C41  1  0.85866400  0.77691000  0.16123800  1
  C  C42  1  0.92870600  0.81284600  0.25634600  1
  N  N1  1  0.50140100  0.51849000  0.61662900  1
  N  N2  1  0.50453100  0.58385800  0.57797500  1
  N  N3  1  0.50011400  0.49336600  0.40731500  1
  N  N4  1  0.49699400  0.42799900  0.44597100  1
  O  O1  1  0.62182100  0.05075900  0.19404900  1
  O  O2  1  0.50313900  0.84080700  0.20411100  1
  O  O3  1  0.72807400  0.98712300  0.26723600  1
  O  O4  1  0.51321600  0.93409100  0.36851000  1
  O  O5  1  0.35462500  0.96226400  0.20686400  1
  O  O6  1  0.35636100  0.10405300  0.25189100  1
  O  O7  1  0.54484700  0.13780800  0.40451300  1
  O  O8  1  0.39196200  0.06079600  0.46903500  1
  O  O9  1  0.45698000  0.87415400  0.61951400  1
  O  O10  1  0.60994600  0.95101300  0.55494500  1
  O  O11  1  0.64747400  0.04972300  0.81712600  1
  O  O12  1  0.64479400  0.90773400  0.77234200  1
  O  O13  1  0.27133400  0.02287400  0.75661500  1
  O  O14  1  0.48860800  0.07794700  0.65563000  1
  O  O15  1  0.38032100  0.96113400  0.83023200  1
  O  O16  1  0.49581500  0.17056100  0.81980100  1
  O  O17  1  0.97162000  0.89987400  0.28291100  1
