# generated using pymatgen
data_ZnH12C16N3O4
_symmetry_space_group_name_H-M   'P 1'
_cell_length_a   15.08131800
_cell_length_b   8.55178500
_cell_length_c   11.31268400
_cell_angle_alpha   90.00000000
_cell_angle_beta   95.03987000
_cell_angle_gamma   90.00000000
_symmetry_Int_Tables_number   1
_chemical_formula_structural   ZnH12C16N3O4
_chemical_formula_sum   'Zn2 H24 C32 N6 O8'
_cell_volume   1453.38076251
_cell_formula_units_Z   2
loop_
 _symmetry_equiv_pos_site_id
 _symmetry_equiv_pos_as_xyz
  1  'x, y, z'
loop_
 _atom_site_type_symbol
 _atom_site_label
 _atom_site_symmetry_multiplicity
 _atom_site_fract_x
 _atom_site_fract_y
 _atom_site_fract_z
 _atom_site_occupancy
  Zn  Zn1  1  0.48700500  0.49856400  0.86933800  1
  Zn  Zn2  1  0.51279600  0.50298900  0.13358100  1
  H  H1  1  0.43904500  0.00119900  0.04681200  1
  H  H2  1  0.56020900  0.00117400  0.96351400  1
  H  H3  1  0.66580300  0.50904700  0.29844300  1
  H  H4  1  0.33405400  0.49302500  0.70443800  1
  H  H5  1  0.38864100  0.50145300  0.29622800  1
  H  H6  1  0.61123300  0.49983100  0.70668900  1
  H  H7  1  0.12113700  0.27564400  0.91134100  1
  H  H8  1  0.17164600  0.34765100  0.05283400  1
  H  H9  1  0.22494300  0.37230400  0.91618100  1
  H  H10  1  0.84045000  0.69807500  0.89044300  1
  H  H11  1  0.87049500  0.69767400  0.05087500  1
  H  H12  1  0.77027900  0.60839000  0.98653000  1
  H  H13  1  0.85374400  0.26993600  0.14316000  1
  H  H14  1  0.86003800  0.32204500  0.98697800  1
  H  H15  1  0.76889300  0.38142900  0.06925100  1
  H  H16  1  0.13262800  0.71092300  0.05504400  1
  H  H17  1  0.15050900  0.68640600  0.89877400  1
  H  H18  1  0.22813200  0.61010200  0.01398200  1
  H  H19  1  0.28339300  0.39035200  0.41216300  1
  H  H20  1  0.24090000  0.49264300  0.53425500  1
  H  H21  1  0.28171700  0.60289900  0.41479700  1
  H  H22  1  0.71822000  0.39904100  0.58825800  1
  H  H23  1  0.75901500  0.50887400  0.46862300  1
  H  H24  1  0.71655000  0.61156800  0.59055600  1
  C  C1  1  0.32430300  0.14123500  0.01180300  1
  C  C2  1  0.67540000  0.86055200  0.98800900  1
  C  C3  1  0.67556100  0.13956700  0.99764200  1
  C  C4  1  0.32454100  0.86142900  0.00772000  1
  C  C5  1  0.23265400  0.14189500  0.98931100  1
  C  C6  1  0.76748000  0.85922900  0.99028300  1
  C  C7  1  0.76772000  0.13887200  0.01933400  1
  C  C8  1  0.23238100  0.85982600  0.99152600  1
  C  C9  1  0.18627900  0.00112200  0.98727200  1
  C  C10  1  0.81440600  0.99996600  0.00374200  1
  C  C11  1  0.36821000  0.00122800  0.02675500  1
  C  C12  1  0.63137000  0.00063700  0.97906400  1
  C  C13  1  0.54748800  0.49874000  0.65539400  1
  C  C14  1  0.45237600  0.50269300  0.34753000  1
  C  C15  1  0.91227400  0.00070800  0.00000100  1
  C  C16  1  0.08916700  0.00264300  0.98889900  1
  C  C17  1  0.38300300  0.49658100  0.53235800  1
  C  C18  1  0.61687900  0.50503400  0.47054400  1
  C  C19  1  0.54139400  0.50127100  0.53252100  1
  C  C20  1  0.45848400  0.50023600  0.47039500  1
  C  C21  1  0.39217700  0.49453700  0.65493500  1
  C  C22  1  0.60768300  0.50710000  0.34796000  1
  C  C23  1  0.37968600  0.72054100  0.00476000  1
  C  C24  1  0.62026800  0.28087900  0.99889500  1
  C  C25  1  0.62048200  0.71935900  0.99324400  1
  C  C26  1  0.37885400  0.28285900  0.00890600  1
  C  C27  1  0.18450900  0.29305000  0.96708700  1
  C  C28  1  0.81552200  0.70783900  0.97943400  1
  C  C29  1  0.81586600  0.28627400  0.05556500  1
  C  C30  1  0.18284900  0.70837100  0.98909400  1
  C  C31  1  0.29183100  0.49557200  0.46937500  1
  C  C32  1  0.70807500  0.50620200  0.53350400  1
  N  N1  1  0.52632400  0.50588800  0.28900400  1
  N  N2  1  0.47352400  0.49558000  0.71391100  1
  N  N3  1  0.03812300  0.90031000  0.92361500  1
  N  N4  1  0.96365500  0.10356100  0.06462300  1
  N  N5  1  0.95090300  0.90016100  0.92874600  1
  N  N6  1  0.05086800  0.10470800  0.05920300  1
  O  O1  1  0.42034100  0.67204800  0.10518300  1
  O  O2  1  0.57939200  0.32915300  0.89806900  1
  O  O3  1  0.57983600  0.66762900  0.89388900  1
  O  O4  1  0.41996400  0.33368000  0.10874700  1
  O  O5  1  0.39626100  0.66328700  0.90099800  1
  O  O6  1  0.60366100  0.33863800  0.10209400  1
  O  O7  1  0.60371100  0.66565700  0.09809800  1
  O  O8  1  0.39585600  0.33652300  0.90457500  1
