# generated using pymatgen
data_Fe2H17C44ClO16
_symmetry_space_group_name_H-M   'P 1'
_cell_length_a   15.63318400
_cell_length_b   12.04931200
_cell_length_c   13.52741000
_cell_angle_alpha   91.29630300
_cell_angle_beta   87.14301400
_cell_angle_gamma   107.96886800
_symmetry_Int_Tables_number   1
_chemical_formula_structural   Fe2H17C44ClO16
_chemical_formula_sum   'Fe2 H17 C44 Cl1 O16'
_cell_volume   2420.77540955
_cell_formula_units_Z   1
loop_
 _symmetry_equiv_pos_site_id
 _symmetry_equiv_pos_as_xyz
  1  'x, y, z'
loop_
 _atom_site_type_symbol
 _atom_site_label
 _atom_site_symmetry_multiplicity
 _atom_site_fract_x
 _atom_site_fract_y
 _atom_site_fract_z
 _atom_site_occupancy
  Fe  Fe1  1  0.51601300  0.94863600  0.17023900  1
  Fe  Fe2  1  0.51412700  0.96974600  0.73098000  1
  H  H1  1  0.94901200  0.07686300  0.80298800  1
  H  H2  1  0.19679300  0.00714600  0.79825900  1
  H  H3  1  0.05473900  0.01634000  0.83645100  1
  H  H4  1  0.80350700  0.06367700  0.75482900  1
  H  H5  1  0.24592600  0.97954800  0.15118100  1
  H  H6  1  0.09626000  0.98593800  0.19022400  1
  H  H7  1  0.94980000  0.99514300  0.23037600  1
  H  H8  1  0.80592700  0.00133400  0.18380700  1
  H  H9  1  0.56179800  0.56810100  0.59092500  1
  H  H10  1  0.54018900  0.39833100  0.28663100  1
  H  H11  1  0.48443900  0.38260300  0.60213400  1
  H  H12  1  0.47908000  0.83947000  0.48070300  1
  H  H13  1  0.54550300  0.10554400  0.44831600  1
  H  H14  1  0.53109500  0.59928300  0.17876100  1
  H  H15  1  0.45312700  0.49042600  0.03709800  1
  H  H16  1  0.23583200  0.30253600  0.23041400  1
  H  H17  1  0.31294600  0.41252000  0.37246400  1
  C  C1  1  0.89602600  0.05220500  0.85957800  1
  C  C2  1  0.29058000  0.99396400  0.90401500  1
  C  C3  1  0.20881100  0.00185600  0.87568300  1
  C  C4  1  0.14162900  0.00346400  0.94520500  1
  C  C5  1  0.06152200  0.01415400  0.91498600  1
  C  C6  1  0.99254700  0.01652100  0.98364100  1
  C  C7  1  0.81220700  0.04878600  0.83162600  1
  C  C8  1  0.73924100  0.01644800  0.89748500  1
  C  C9  1  0.90959100  0.02581200  0.95581800  1
  C  C10  1  0.83860600  0.00969000  0.02605400  1
  C  C11  1  0.75203200  0.00156300  0.99655800  1
  C  C12  1  0.30450400  0.98734900  0.00460800  1
  C  C13  1  0.23521600  0.98430800  0.07326100  1
  C  C14  1  0.15448000  0.99379700  0.04373600  1
  C  C15  1  0.08659000  0.99437500  0.11250200  1
  C  C16  1  0.00592700  0.00426800  0.08262200  1
  C  C17  1  0.93867100  0.00172100  0.15278500  1
  C  C18  1  0.85564500  0.00318400  0.12516700  1
  C  C19  1  0.67367700  0.96889800  0.06754400  1
  C  C20  1  0.44590400  0.76573700  0.30294300  1
  C  C21  1  0.39212500  0.99222100  0.04246200  1
  C  C22  1  0.54089900  0.17158100  0.26880000  1
  C  C23  1  0.53990400  0.77651400  0.63440100  1
  C  C24  1  0.64972900  0.98873700  0.85740700  1
  C  C25  1  0.51411900  0.17432200  0.62520200  1
  C  C26  1  0.35848000  0.98955300  0.82581900  1
  C  C27  1  0.51533000  0.70443300  0.54589200  1
  C  C28  1  0.52974400  0.59779400  0.53261000  1
  C  C29  1  0.50282000  0.53064800  0.44734600  1
  C  C30  1  0.46993800  0.58184100  0.37018700  1
  C  C31  1  0.46490600  0.69562400  0.38202200  1
  C  C32  1  0.48347900  0.75208700  0.47104700  1
  C  C33  1  0.52989600  0.35459700  0.35661000  1
  C  C34  1  0.53765000  0.24267600  0.35830000  1
  C  C35  1  0.53577300  0.19008900  0.44731000  1
  C  C36  1  0.51871900  0.24114000  0.53451300  1
  C  C37  1  0.50354300  0.34836100  0.53303000  1
  C  C38  1  0.51123800  0.40918100  0.44422800  1
  C  C39  1  0.42661900  0.51379600  0.28490300  1
  C  C40  1  0.46569900  0.53537300  0.19044300  1
  C  C41  1  0.42230200  0.47350000  0.11081700  1
  C  C42  1  0.33960100  0.39023500  0.12509400  1
  C  C43  1  0.30069200  0.36787500  0.21918300  1
  C  C44  1  0.34414200  0.42945600  0.29892300  1
  Cl  Cl1  1  0.28398900  0.31322600  0.02364300  1
  O  O1  1  0.61064700  0.02092400  0.06793100  1
  O  O2  1  0.39611400  0.83343100  0.32571900  1
  O  O3  1  0.66263800  0.87971600  0.12598300  1
  O  O4  1  0.50457500  0.79462900  0.22768100  1
  O  O5  1  0.39656900  0.91559600  0.10819000  1
  O  O6  1  0.46356000  0.07966300  0.01812500  1
  O  O7  1  0.54857000  0.06636300  0.28049900  1
  O  O8  1  0.52163700  0.20384500  0.18304200  1
  O  O9  1  0.47447800  0.80292000  0.68466900  1
  O  O10  1  0.62168400  0.84983000  0.63571300  1
  O  O11  1  0.63924700  0.04181600  0.77749600  1
  O  O12  1  0.58423600  0.89790000  0.88975000  1
  O  O13  1  0.34510900  0.00742500  0.73335900  1
  O  O14  1  0.51645600  0.06652900  0.61403300  1
  O  O15  1  0.43050300  0.96276700  0.84704900  1
  O  O16  1  0.50950200  0.22002800  0.71352300  1
