# generated using pymatgen
data_ZnH18C38Br3NO4
_symmetry_space_group_name_H-M   'P 1'
_cell_length_a   13.94374500
_cell_length_b   14.13725300
_cell_length_c   15.06335300
_cell_angle_alpha   89.98231600
_cell_angle_beta   90.00526500
_cell_angle_gamma   85.33905700
_symmetry_Int_Tables_number   1
_chemical_formula_structural   ZnH18C38Br3NO4
_chemical_formula_sum   'Zn2 H36 C76 Br6 N2 O8'
_cell_volume   2959.56242455
_cell_formula_units_Z   2
loop_
 _symmetry_equiv_pos_site_id
 _symmetry_equiv_pos_as_xyz
  1  'x, y, z'
loop_
 _atom_site_type_symbol
 _atom_site_label
 _atom_site_symmetry_multiplicity
 _atom_site_fract_x
 _atom_site_fract_y
 _atom_site_fract_z
 _atom_site_occupancy
  Zn  Zn1  1  0.60698800  0.49675000  0.50314000  1
  Zn  Zn2  1  0.38787500  0.50362800  0.49600400  1
  H  H1  1  0.59929000  0.98993900  0.53459100  1
  H  H2  1  0.39551800  0.01024000  0.45839200  1
  H  H3  1  0.49409000  0.35883100  0.77485600  1
  H  H4  1  0.49570800  0.64076200  0.22441300  1
  H  H5  1  0.47955600  0.74129500  0.93264300  1
  H  H6  1  0.51743700  0.25812300  0.06692500  1
  H  H7  1  0.48709000  0.73089500  0.09106100  1
  H  H8  1  0.50462700  0.26848400  0.90847200  1
  H  H9  1  0.74183200  0.59260200  0.40822300  1
  H  H10  1  0.25263100  0.41038500  0.59320500  1
  H  H11  1  0.05581500  0.65864700  0.32920800  1
  H  H12  1  0.93960100  0.33939400  0.66771400  1
  H  H13  1  0.63240900  0.68991000  0.77189700  1
  H  H14  1  0.62404200  0.85952100  0.73464400  1
  H  H15  1  0.31793200  0.87012500  0.73725200  1
  H  H16  1  0.32620900  0.70052300  0.77439800  1
  H  H17  1  0.68724700  0.32512700  0.21769200  1
  H  H18  1  0.72674900  0.15940900  0.26181600  1
  H  H19  1  0.42803600  0.11862100  0.27945500  1
  H  H20  1  0.38835400  0.28477600  0.23537400  1
  H  H21  1  0.75525800  0.46742600  0.73234700  1
  H  H22  1  0.70720500  0.34932000  0.83989600  1
  H  H23  1  0.72875400  0.13730400  0.63848800  1
  H  H24  1  0.77879400  0.25482400  0.53138100  1
  H  H25  1  0.21246500  0.74430500  0.47416600  1
  H  H26  1  0.26564400  0.86624900  0.37328600  1
  H  H27  1  0.29327500  0.66296600  0.16440500  1
  H  H28  1  0.24266300  0.54023200  0.26591200  1
  H  H29  1  0.82213400  0.53685000  0.25163700  1
  H  H30  1  0.73301000  0.62568700  0.13367900  1
  H  H31  1  0.82794100  0.88370000  0.23419900  1
  H  H32  1  0.91573200  0.79557300  0.35331400  1
  H  H33  1  0.17998100  0.22968400  0.58469000  1
  H  H34  1  0.26780000  0.12972000  0.69614400  1
  H  H35  1  0.16088300  0.31801600  0.90048100  1
  H  H36  1  0.07239200  0.41772300  0.78925400  1
  C  C1  1  0.50533800  0.48971600  0.32632500  1
  C  C2  1  0.48961900  0.51031900  0.67286600  1
  C  C3  1  0.50526300  0.31507100  0.50762600  1
  C  C4  1  0.48958800  0.68533000  0.49130100  1
  C  C5  1  0.48296700  0.78718600  0.48774600  1
  C  C6  1  0.51184300  0.21320300  0.50914100  1
  C  C7  1  0.46236800  0.97477800  0.48241500  1
  C  C8  1  0.53261700  0.02558500  0.51035100  1
  C  C9  1  0.52024300  0.12765800  0.50969000  1
  C  C10  1  0.47450900  0.87271100  0.48511900  1
  C  C11  1  0.49142500  0.42358700  0.81324800  1
  C  C12  1  0.49974500  0.57596400  0.18603300  1
  C  C13  1  0.48686400  0.50954000  0.76995800  1
  C  C14  1  0.50794900  0.49008000  0.22927100  1
  C  C15  1  0.48445600  0.59263000  0.81866600  1
  C  C16  1  0.51426100  0.40674300  0.18062600  1
  C  C17  1  0.48729600  0.58901500  0.91109700  1
  C  C18  1  0.50793200  0.41030500  0.08828700  1
  C  C19  1  0.49379200  0.50207800  0.95379700  1
  C  C20  1  0.49883700  0.49726400  0.04561500  1
  C  C21  1  0.49574400  0.41980000  0.90462000  1
  C  C22  1  0.49615100  0.57960300  0.09474700  1
  C  C23  1  0.48478900  0.67131900  0.96169500  1
  C  C24  1  0.51075300  0.32801600  0.03769800  1
  C  C25  1  0.48897200  0.66619100  0.05273600  1
  C  C26  1  0.50347800  0.33318700  0.94672400  1
  C  C27  1  0.80794100  0.43553900  0.56331900  1
  C  C28  1  0.18688800  0.56453200  0.43536500  1
  C  C29  1  0.79000800  0.54826000  0.44944700  1
  C  C30  1  0.20478800  0.45155100  0.54910600  1
  C  C31  1  0.88893600  0.55056000  0.44218200  1
  C  C32  1  0.10609200  0.44598600  0.55328300  1
  C  C33  1  0.94798500  0.49671900  0.49961700  1
  C  C34  1  0.04704700  0.50034600  0.49624000  1
  C  C35  1  0.90741900  0.43906700  0.56059100  1
  C  C36  1  0.08745900  0.55974500  0.43679100  1
  C  C37  1  0.92967300  0.60765600  0.37986100  1
  C  C38  1  0.06529200  0.38827900  0.61486500  1
  C  C39  1  0.02779400  0.61342400  0.37892700  1
  C  C40  1  0.96706800  0.38537000  0.61831500  1
  C  C41  1  0.47981300  0.68429200  0.77361300  1
  C  C42  1  0.56336500  0.72841700  0.76028800  1
  C  C43  1  0.55865400  0.82379600  0.74030400  1
  C  C44  1  0.47047600  0.87493800  0.73390300  1
  C  C45  1  0.38698400  0.82973200  0.74174100  1
  C  C46  1  0.39161600  0.73435500  0.76166100  1
  C  C47  1  0.53546000  0.31571100  0.22532700  1
  C  C48  1  0.63025300  0.28082000  0.23442600  1
  C  C49  1  0.65243600  0.18763000  0.25841500  1
  C  C50  1  0.57986700  0.12899700  0.27306900  1
  C  C51  1  0.48494500  0.16479500  0.26821400  1
  C  C52  1  0.46263800  0.25825900  0.24434000  1
  C  C53  1  0.76624000  0.36939800  0.62416100  1
  C  C54  1  0.74705000  0.39550200  0.71108400  1
  C  C55  1  0.72079500  0.32906900  0.77158200  1
  C  C56  1  0.71377900  0.23643300  0.74542400  1
  C  C57  1  0.73303900  0.21018600  0.65875800  1
  C  C58  1  0.76037500  0.27628500  0.59852100  1
  C  C59  1  0.22828100  0.63366900  0.37746100  1
  C  C60  1  0.23265000  0.72576700  0.40671600  1
  C  C61  1  0.26179500  0.79434300  0.34998000  1
  C  C62  1  0.28420600  0.77165500  0.26308700  1
  C  C63  1  0.27755800  0.68031000  0.23301700  1
  C  C64  1  0.24979400  0.61129400  0.29011500  1
  C  C65  1  0.87264200  0.66072400  0.31166600  1
  C  C66  1  0.82228600  0.61325400  0.24895900  1
  C  C67  1  0.77265000  0.66300500  0.18234200  1
  C  C68  1  0.77443800  0.76016900  0.17717100  1
  C  C69  1  0.82588100  0.80757900  0.23865800  1
  C  C70  1  0.87521400  0.75795900  0.30554500  1
  C  C71  1  0.12246500  0.33117300  0.67980200  1
  C  C72  1  0.17671600  0.24983400  0.65391200  1
  C  C73  1  0.22583600  0.19359900  0.71651500  1
  C  C74  1  0.22050500  0.21830200  0.80506100  1
  C  C75  1  0.16568000  0.29901700  0.83102900  1
  C  C76  1  0.11617700  0.35499200  0.76856300  1
  Br  Br1  1  0.46393300  0.00938800  0.72336100  1
  Br  Br2  1  0.61149600  0.99713900  0.29335100  1
  Br  Br3  1  0.68153600  0.14363600  0.82973400  1
  Br  Br4  1  0.32150200  0.86738700  0.18407100  1
  Br  Br5  1  0.70728800  0.82867700  0.08407000  1
  Br  Br6  1  0.28734800  0.14028700  0.89200300  1
  N  N1  1  0.75089400  0.49110500  0.50843300  1
  N  N2  1  0.24394000  0.50929500  0.49064900  1
  O  O1  1  0.58669400  0.49090700  0.37007500  1
  O  O2  1  0.40821600  0.50935200  0.62907800  1
  O  O3  1  0.42067500  0.49502400  0.36505800  1
  O  O4  1  0.57422400  0.50535400  0.63409500  1
  O  O5  1  0.58588100  0.35679000  0.50815900  1
  O  O6  1  0.40902200  0.64357300  0.49095900  1
  O  O7  1  0.41982200  0.36140600  0.50357700  1
  O  O8  1  0.57501200  0.63897100  0.49544200  1
