# Generated by REPEAT Assigner based on pymatgen
data_DB0-m3_o17_o27_f0_pcu.sym.44
_audit_creation_date              2022-05-24
_audit_creation_method            REPEAT_Assigner
_cell_length_a                    15.042298
_cell_length_b                    13.889745
_cell_length_c                    19.388810
_cell_angle_alpha                 90.000000
_cell_angle_beta                  89.995456
_cell_angle_gamma                 90.000000
_cell_volume                      4050.975485
_symmetry_space_group_name_H-M    P1
_symmetry_Int_Tables_number       1
loop_
    _symmetry_equiv_pos_site_id
    _symmetry_equiv_pos_as_xyz
    1  x,y,z
loop_
    _atom_site_type_symbol
    _atom_site_label
    _atom_site_fract_x
    _atom_site_fract_y
    _atom_site_fract_z
    _atom_type_partial_charge
    O   O1   0.367413  0.582622  0.498765  -0.724628
    O   O2   0.632342  0.416504  0.500031  -0.774837
    O   O3   0.632333  0.582625  0.500992  -0.731637
    O   O4   0.367408  0.416516  0.500215  -0.768125
    C   C1   0.326085  0.499567  0.499347  1.033093
    C   C2   0.673651  0.499564  0.500653  1.050307
    O   O5   0.501467  0.582484  0.397217  -0.572927
    O   O6   0.500131  0.416640  0.602826  -0.584212
    O   O7   0.498308  0.582396  0.602693  -0.574549
    O   O8   0.499646  0.416727  0.397265  -0.588365
    C   C3   0.500727  0.499634  0.364534  0.609461
    C   C4   0.499067  0.499590  0.635466  0.605696
    Zn  Zn1  0.499874  0.608981  0.499957  1.000533
    Zn  Zn2  0.499876  0.390147  0.500044  1.061208
    C   C5   0.458679  0.573976  0.251648  0.102516
    C   C6   0.457029  0.426812  0.749132  0.102065
    C   C7   0.541570  0.573895  0.748247  0.103498
    C   C8   0.543184  0.426865  0.250963  0.103598
    C   C9   0.461463  0.575323  0.180433  -0.006811
    C   C10  0.459738  0.427280  0.820367  -0.007505
    C   C11  0.538974  0.575307  0.819472  -0.006717
    C   C12  0.540666  0.427277  0.179715  -0.011320
    H   H1   0.427150  0.631641  0.152711  0.068423
    H   H2   0.425325  0.371788  0.848843  0.069249
    H   H3   0.573427  0.631590  0.847126  0.068092
    H   H4   0.575196  0.371807  0.151304  0.069900
    C   C13  0.501038  0.501623  0.144393  -0.476504
    C   C14  0.499438  0.501655  0.855600  -0.481038
    C   C15  0.500803  0.499991  0.288108  -0.192314
    C   C16  0.499213  0.499982  0.711889  -0.189880
    N   N1   0.500857  0.418125  0.034071  -0.370956
    N   N2   0.500492  0.585698  0.965904  -0.371140
    N   N3   0.499791  0.418139  0.965912  -0.370387
    N   N4   0.500161  0.585684  0.034099  -0.372743
    C   C17  0.499938  0.501901  0.931085  0.993041
    C   C18  0.500701  0.501876  0.068908  0.991630
    C   C19  0.816151  0.503250  0.438906  -0.246826
    C   C20  0.183542  0.496741  0.561111  -0.252804
    C   C21  0.770579  0.499570  0.500515  -0.111236
    C   C22  0.229135  0.499565  0.499486  -0.103436
    C   C23  0.816574  0.495876  0.561929  -0.263631
    C   C24  0.183118  0.502374  0.438056  -0.275470
    C   C25  0.908318  0.496235  0.561781  0.236644
    C   C26  0.091375  0.502494  0.438214  0.247974
    C   C27  0.953976  0.499561  0.500105  -0.046835
    C   C28  0.045714  0.499558  0.499896  -0.052594
    C   C29  0.907884  0.502884  0.438637  0.226092
    C   C30  0.091808  0.496617  0.561369  0.232449
    C   C31  0.954478  0.493248  0.623235  -0.243280
    C   C32  0.045219  0.505533  0.376760  -0.250789
    C   C33  0.046101  0.493573  0.623032  -0.247788
    C   C34  0.953596  0.505862  0.376975  -0.242354
    H   H5   0.779649  0.506158  0.390942  0.106976
    H   H6   0.220011  0.494859  0.609103  0.109541
    H   H7   0.780419  0.492953  0.610053  0.120662
    H   H8   0.219239  0.504244  0.389903  0.125419
    H   H9   0.919142  0.490765  0.671748  0.140099
    H   H10  0.080560  0.507778  0.328241  0.141681
    H   H11  0.081798  0.491322  0.671389  0.140583
    H   H12  0.917904  0.508340  0.328622  0.139591
    C   C35  0.562786  0.800884  0.464335  -0.191330
    C   C36  0.436250  0.198202  0.534861  -0.132554
    C   C37  0.436967  0.800871  0.535636  -0.191070
    C   C38  0.563511  0.198216  0.465195  -0.129965
    N   N5   0.499874  0.752988  0.499980  0.118730
    N   N6   0.499871  0.246132  0.500023  -0.028293
    C   C39  0.435900  0.900213  0.535953  0.279360
    C   C40  0.564194  0.098874  0.464444  0.073719
    C   C41  0.563862  0.900226  0.464047  0.279800
    C   C42  0.435575  0.098860  0.535599  0.076990
    C   C43  0.499882  0.950002  0.500006  -0.168118
    C   C44  0.499883  0.049074  0.500016  0.144307
    C   C45  0.371331  0.949857  0.571958  -0.268514
    C   C46  0.628724  0.049247  0.428384  -0.111252
    C   C47  0.628441  0.949883  0.428060  -0.268642
    C   C48  0.371053  0.049221  0.571659  -0.112635
    H   H13  0.612578  0.761181  0.435950  0.128074
    H   H14  0.385750  0.237866  0.562462  0.195856
    H   H15  0.387172  0.761156  0.564011  0.127186
    H   H16  0.614022  0.237894  0.437615  0.195634
    H   H17  0.320756  0.911312  0.600351  0.167509
    H   H18  0.679489  0.087812  0.400206  0.113352
    H   H19  0.679019  0.911348  0.399662  0.167029
    H   H20  0.320296  0.087777  0.599851  0.113528
    C   C49  0.404288  0.647881  0.285951  0.484621
    O   O9   0.347108  0.624233  0.327204  -0.434971
    C   C50  0.414980  0.751793  0.268213  -0.375005
    H   H21  0.472124  0.762021  0.232847  0.064261
    H   H22  0.427343  0.793287  0.316139  0.112759
    H   H23  0.353322  0.778492  0.243370  0.131239
    C   C51  0.402724  0.351956  0.715758  0.484307
    O   O10  0.346991  0.374321  0.672986  -0.431959
    C   C52  0.410400  0.249039  0.737240  -0.417156
    H   H24  0.466706  0.239300  0.773461  0.079735
    H   H25  0.422462  0.203811  0.691112  0.129379
    H   H26  0.347652  0.225944  0.762298  0.139886
    C   C53  0.596156  0.647494  0.713792  0.488191
    O   O11  0.653174  0.623499  0.672497  -0.436575
    C   C54  0.585889  0.751486  0.731442  -0.378939
    H   H27  0.528865  0.762022  0.766884  0.064571
    H   H28  0.573556  0.792944  0.683496  0.113990
    H   H29  0.647699  0.777969  0.756173  0.132030
    C   C55  0.597641  0.352261  0.284478  0.489993
    O   O12  0.653203  0.374909  0.327318  -0.434842
    C   C56  0.590391  0.249296  0.263018  -0.423750
    H   H30  0.534218  0.239299  0.226705  0.080904
    H   H31  0.578353  0.204043  0.309134  0.130909
    H   H32  0.653286  0.226444  0.238071  0.141343
