# Generated by REPEAT Assigner based on pymatgen
data_DB0-m3_o21_o25_f0_pcu.sym.65
_audit_creation_date              2022-05-24
_audit_creation_method            REPEAT_Assigner
_cell_length_a                    12.952794
_cell_length_b                    14.093632
_cell_length_c                    16.014175
_cell_angle_alpha                 90.011151
_cell_angle_beta                  93.529200
_cell_angle_gamma                 88.910186
_cell_volume                      2917.344979
_symmetry_space_group_name_H-M    P1
_symmetry_Int_Tables_number       1
loop_
    _symmetry_equiv_pos_site_id
    _symmetry_equiv_pos_as_xyz
    1  x,y,z
loop_
    _atom_site_type_symbol
    _atom_site_label
    _atom_site_fract_x
    _atom_site_fract_y
    _atom_site_fract_z
    _atom_type_partial_charge
    O   O1   0.398276  0.635967  0.494639  -0.685788
    O   O2   0.601724  0.364033  0.505361  -0.685781
    O   O3   0.576524  0.646265  0.503681  -0.678227
    O   O4   0.423476  0.353735  0.496319  -0.678223
    C   C1   0.483474  0.685083  0.498898  0.929404
    C   C2   0.516526  0.314917  0.501102  0.929346
    O   O5   0.410664  0.495077  0.619880  -0.675905
    O   O6   0.589336  0.504923  0.380120  -0.675926
    O   O7   0.588908  0.505433  0.628928  -0.660285
    O   O8   0.411092  0.494567  0.371072  -0.660283
    C   C3   0.499722  0.500335  0.663164  0.808837
    C   C4   0.500278  0.499665  0.336836  0.808883
    Zn  Zn1  0.382530  0.493214  0.494035  1.085612
    Zn  Zn2  0.617470  0.506787  0.505964  1.085660
    C   C5   0.446424  0.572121  0.024599  -0.151009
    C   C6   0.553576  0.427879  0.975401  -0.150945
    C   C7   0.541669  0.579769  0.974859  -0.185450
    C   C8   0.458331  0.420231  0.025141  -0.185507
    H   H1   0.574518  0.646681  0.952750  0.096384
    H   H2   0.425482  0.353320  0.047250  0.096394
    H   H3   0.677305  0.508360  0.059778  0.093643
    H   H4   0.322695  0.491640  0.940222  0.093624
    C   C9   0.499577  0.500520  0.752763  -0.078366
    C   C10  0.500423  0.499480  0.247237  -0.078351
    C   C11  0.403151  0.494488  0.967968  -0.187340
    C   C12  0.596849  0.505512  0.032032  -0.187427
    C   C13  0.499327  0.500881  0.919371  0.699717
    C   C14  0.500673  0.499119  0.080629  0.699930
    C   C15  0.499465  0.500676  0.828001  -0.424797
    C   C16  0.500535  0.499324  0.171999  -0.424937
    C   C17  0.525598  0.213282  0.501705  -0.322734
    C   C18  0.474401  0.786719  0.498294  -0.322856
    C   C19  0.542270  0.026084  0.502812  -0.062748
    C   C20  0.457730  0.973916  0.497188  -0.062586
    C   C21  0.466795  0.872066  0.497789  0.042769
    C   C22  0.533205  0.127935  0.502211  0.042697
    H   H5   0.381945  0.008143  0.492148  0.143814
    H   H6   0.618055  0.991857  0.507852  0.143856
    N   N1   0.228320  0.484298  0.486201  -0.116557
    N   N2   0.771680  0.515703  0.513798  -0.116585
    C   C23  0.028239  0.472693  0.475999  -0.039456
    C   C24  0.971761  0.527307  0.524001  -0.039477
    C   C25  0.860888  0.520877  0.518347  0.173464
    C   C26  0.139112  0.479123  0.481653  0.173427
    H   H7   0.009277  0.576696  0.567413  0.193221
    H   H8   0.990723  0.423304  0.432587  0.193222
    C   C27  0.384050  0.656089  0.054589  0.724976
    F   F1   0.345125  0.708468  0.986403  -0.250938
    F   F2   0.446840  0.712578  0.105806  -0.232791
    F   F3   0.303093  0.624082  0.098653  -0.239420
    C   C28  0.615950  0.343911  0.945411  0.724946
    F   F4   0.654875  0.291532  0.013597  -0.250928
    F   F5   0.696907  0.375919  0.901347  -0.239413
    F   F6   0.553160  0.287422  0.894194  -0.232789
