# generated using pymatgen
data_Fe2H15C44Br3O16
_symmetry_space_group_name_H-M   'P 1'
_cell_length_a   14.50474000
_cell_length_b   15.62029400
_cell_length_c   13.31887800
_cell_angle_alpha   94.32087500
_cell_angle_beta   93.02428300
_cell_angle_gamma   64.08959900
_symmetry_Int_Tables_number   1
_chemical_formula_structural   Fe2H15C44Br3O16
_chemical_formula_sum   'Fe2 H15 C44 Br3 O16'
_cell_volume   2705.92146198
_cell_formula_units_Z   1
loop_
 _symmetry_equiv_pos_site_id
 _symmetry_equiv_pos_as_xyz
  1  'x, y, z'
loop_
 _atom_site_type_symbol
 _atom_site_label
 _atom_site_symmetry_multiplicity
 _atom_site_fract_x
 _atom_site_fract_y
 _atom_site_fract_z
 _atom_site_occupancy
  Fe  Fe1  1  0.49511300  0.01165500  0.13604700  1
  Fe  Fe2  1  0.49118900  0.01354200  0.71634100  1
  H  H1  1  0.19378800  0.91610700  0.72749600  1
  H  H2  1  0.06628700  0.90612000  0.82505100  1
  H  H3  1  0.93426400  0.05475900  0.84845800  1
  H  H4  1  0.26638500  0.96962600  0.15594800  1
  H  H5  1  0.14062000  0.96158300  0.25172700  1
  H  H6  1  0.82041000  0.96355500  0.19182700  1
  H  H7  1  0.42212400  0.11429100  0.42819200  1
  H  H8  1  0.17113400  0.33474600  0.58416200  1
  H  H9  1  0.10577800  0.49102500  0.31731100  1
  H  H10  1  0.93872400  0.62784400  0.31271600  1
  H  H11  1  0.83049100  0.50677900  0.52862500  1
  H  H12  1  0.99565100  0.36650000  0.52835500  1
  H  H13  1  0.75498100  0.66253900  0.26000400  1
  H  H14  1  0.53988600  0.90419600  0.42881000  1
  H  H15  1  0.78156100  0.68591500  0.58091500  1
  C  C1  1  0.26548500  0.96181200  0.85136100  1
  C  C2  1  0.19364600  0.93406100  0.80741500  1
  C  C3  1  0.11760100  0.93177500  0.86328400  1
  C  C4  1  0.89178500  0.02717000  0.88914600  1
  C  C5  1  0.26834100  0.97433500  0.95614000  1
  C  C6  1  0.19213800  0.96897100  0.01213500  1
  C  C7  1  0.10871200  0.96010000  0.96500900  1
  C  C8  1  0.02434800  0.97058300  0.02253200  1
  C  C9  1  0.80119300  0.03374700  0.84541500  1
  C  C10  1  0.73882300  0.00619300  0.89619800  1
  C  C11  1  0.92606300  0.98767600  0.98165700  1
  C  C12  1  0.85490400  0.97673600  0.03941200  1
  C  C13  1  0.76173900  0.98368000  0.99589900  1
  C  C14  1  0.19990400  0.97074500  0.11576800  1
  C  C15  1  0.12686700  0.96441400  0.17153900  1
  C  C16  1  0.03849700  0.96548100  0.12635500  1
  C  C17  1  0.96379500  0.96259200  0.18488700  1
  C  C18  1  0.87522400  0.96484700  0.14130600  1
  C  C19  1  0.68421300  0.97208100  0.05421100  1
  C  C20  1  0.59432200  0.83717000  0.24206000  1
  C  C21  1  0.34273500  0.00420000  0.00804200  1
  C  C22  1  0.34481500  0.14017700  0.25227700  1
  C  C23  1  0.62776300  0.86294500  0.60336500  1
  C  C24  1  0.65340400  0.99416500  0.84351500  1
  C  C25  1  0.34854100  0.17285200  0.61075800  1
  C  C26  1  0.33770400  0.97315500  0.78482800  1
  C  C27  1  0.30444000  0.20849200  0.33772400  1
  C  C28  1  0.20932600  0.28522300  0.33344400  1
  C  C29  1  0.16253900  0.33412000  0.42249400  1
  C  C30  1  0.20875900  0.30003400  0.51465000  1
  C  C31  1  0.30255600  0.22085400  0.51771900  1
  C  C32  1  0.35098400  0.17848700  0.42889200  1
  C  C33  1  0.04470500  0.49222500  0.36137200  1
  C  C34  1  0.95013100  0.56986700  0.35889700  1
  C  C35  1  0.87243400  0.57565900  0.41862600  1
  C  C36  1  0.89035300  0.50289800  0.48086300  1
  C  C37  1  0.98408500  0.42376900  0.48104500  1
  C  C38  1  0.06173300  0.41741600  0.42051200  1
  C  C39  1  0.72431800  0.69903700  0.33140900  1
  C  C40  1  0.63895200  0.78618400  0.33367300  1
  C  C41  1  0.60349200  0.83403100  0.42531200  1
  C  C42  1  0.65299400  0.79760300  0.51392700  1
  C  C43  1  0.73857800  0.71111600  0.51189500  1
  C  C44  1  0.77444300  0.66144900  0.42070500  1
  Br  Br1  1  0.13892000  0.30929800  0.20560100  1
  Br  Br2  1  0.77137900  0.07396800  0.71070000  1
  Br  Br3  1  0.97774600  0.95344500  0.32792800  1
  O  O1  1  0.58648000  0.03241700  0.04546000  1
  O  O2  1  0.60851000  0.79238000  0.15272200  1
  O  O3  1  0.71179600  0.89995800  0.11155900  1
  O  O4  1  0.54854400  0.93072200  0.25262200  1
  O  O5  1  0.42581500  0.94264700  0.05353700  1
  O  O6  1  0.32042400  0.09532500  0.01709400  1
  O  O7  1  0.41186600  0.14491800  0.19298300  1
  O  O8  1  0.34317600  0.05761600  0.25813300  1
  O  O9  1  0.54547800  0.88005500  0.65389400  1
  O  O10  1  0.66353700  0.92711900  0.60954700  1
  O  O11  1  0.58774000  0.06018300  0.78708000  1
  O  O12  1  0.64444400  0.91471400  0.85021100  1
  O  O13  1  0.33618600  0.95046400  0.68808200  1
  O  O14  1  0.43934900  0.09995300  0.60416900  1
  O  O15  1  0.40016700  0.00957100  0.81976600  1
  O  O16  1  0.29541700  0.19233400  0.69304500  1
