# generated using pymatgen
data_Cu(C3O2)2
_symmetry_space_group_name_H-M   'P 1'
_cell_length_a   22.46455800
_cell_length_b   35.20700000
_cell_length_c   35.17006300
_cell_angle_alpha   59.99929200
_cell_angle_beta   90.02878100
_cell_angle_gamma   90.01929500
_symmetry_Int_Tables_number   1
_chemical_formula_structural   Cu(C3O2)2
_chemical_formula_sum   'Cu24 C144 O96'
_cell_volume   24089.48530504
_cell_formula_units_Z   24
loop_
 _symmetry_equiv_pos_site_id
 _symmetry_equiv_pos_as_xyz
  1  'x, y, z'
loop_
 _atom_site_type_symbol
 _atom_site_label
 _atom_site_symmetry_multiplicity
 _atom_site_fract_x
 _atom_site_fract_y
 _atom_site_fract_z
 _atom_site_occupancy
  Cu  Cu1  1  0.50763300  0.48930100  0.48115800  1
  Cu  Cu2  1  0.49507500  0.48781200  0.55596000  1
  Cu  Cu3  1  0.82819700  0.23388100  0.07015300  1
  Cu  Cu4  1  0.84085100  0.15922200  0.14351500  1
  Cu  Cu5  1  0.17415700  0.82157100  0.81123500  1
  Cu  Cu6  1  0.16147000  0.74836000  0.80971500  1
  Cu  Cu7  1  0.33282700  0.15880400  0.22039200  1
  Cu  Cu8  1  0.32011500  0.15743000  0.14703300  1
  Cu  Cu9  1  0.98694800  0.48744700  0.47943100  1
  Cu  Cu10  1  0.99953200  0.41278600  0.48080500  1
  Cu  Cu11  1  0.49494200  0.15883700  0.73467500  1
  Cu  Cu12  1  0.50765400  0.15732900  0.80947900  1
  Cu  Cu13  1  0.66612900  0.74831300  0.55588900  1
  Cu  Cu14  1  0.65346600  0.82153300  0.48109100  1
  Cu  Cu15  1  0.84082900  0.48744300  0.14699500  1
  Cu  Cu16  1  0.82821900  0.41277800  0.22035000  1
  Cu  Cu17  1  0.99960900  0.23384600  0.80982000  1
  Cu  Cu18  1  0.98692800  0.15918400  0.81119800  1
  Cu  Cu19  1  0.65345800  0.82521500  0.80944600  1
  Cu  Cu20  1  0.66606100  0.89844900  0.73465500  1
  Cu  Cu21  1  0.16158400  0.89840500  0.48079900  1
  Cu  Cu22  1  0.17415500  0.82517900  0.47930400  1
  Cu  Cu23  1  0.32013300  0.48923300  0.14347600  1
  Cu  Cu24  1  0.33268500  0.48787800  0.07010100  1
  C  C1  1  0.48606500  0.40410500  0.55938700  1
  C  C2  1  0.61507500  0.47383700  0.53271100  1
  C  C3  1  0.52266700  0.57264100  0.48000400  1
  C  C4  1  0.38644600  0.49818200  0.50510900  1
  C  C5  1  0.85586400  0.15795500  0.06130700  1
  C  C6  1  0.94823300  0.21074000  0.10740400  1
  C  C7  1  0.81923100  0.23742600  0.15045100  1
  C  C8  1  0.71962700  0.18306300  0.11065300  1
  C  C9  1  0.28152000  0.78553100  0.79574500  1
  C  C10  1  0.18915300  0.73937000  0.89464600  1
  C  C11  1  0.05292100  0.78879800  0.82010900  1
  C  C12  1  0.15250400  0.82865500  0.72593600  1
  C  C13  1  0.34178100  0.24256900  0.14009400  1
  C  C14  1  0.44135900  0.14848000  0.17986700  1
  C  C15  1  0.30512400  0.07403200  0.22924300  1
  C  C16  1  0.21277100  0.17284800  0.18316800  1
  C  C17  1  0.10814000  0.46357100  0.47048400  1
  C  C18  1  0.00856900  0.40923200  0.56465900  1
  C  C19  1  0.87952800  0.43596100  0.49484000  1
  C  C20  1  0.97188500  0.48872800  0.39594300  1
  C  C21  1  0.52261300  0.07400300  0.81060900  1
  C  C22  1  0.61500400  0.17282100  0.75789300  1
  C  C23  1  0.48602000  0.24253400  0.73126700  1
  C  C24  1  0.38640500  0.14844400  0.78555500  1
  C  C25  1  0.67509900  0.82860000  0.55931000  1
  C  C26  1  0.77469500  0.78876800  0.50503300  1
  C  C27  1  0.63846400  0.73934200  0.47994500  1
  C  C28  1  0.54609000  0.78547900  0.53265200  1
  C  C29  1  0.81917800  0.40923900  0.14004600  1
  C  C30  1  0.94823100  0.43595000  0.18312800  1
  C  C31  1  0.85589400  0.48871400  0.22920100  1
  C  C32  1  0.71963200  0.46357500  0.17983800  1
  C  C33  1  0.87955800  0.21070000  0.79574800  1
  C  C34  1  0.00855400  0.23739400  0.72597300  1
  C  C35  1  0.10816200  0.18302900  0.82018200  1
  C  C36  1  0.97193700  0.15791600  0.89467500  1
  C  C37  1  0.63846300  0.90739500  0.81060600  1
  C  C38  1  0.77467000  0.85801900  0.78551600  1
  C  C39  1  0.67501000  0.81817900  0.73121200  1
  C  C40  1  0.54603600  0.86124500  0.75788100  1
  C  C41  1  0.05296000  0.85799500  0.47038800  1
  C  C42  1  0.18917500  0.90736900  0.39588700  1
  C  C43  1  0.28159400  0.86120000  0.49480500  1
  C  C44  1  0.15259700  0.81812500  0.56458800  1
  C  C45  1  0.30507600  0.57264000  0.06128800  1
  C  C46  1  0.44131400  0.49820100  0.11060800  1
  C  C47  1  0.34171200  0.40410400  0.15039000  1
  C  C48  1  0.21268900  0.47383400  0.10735300  1
  C  C49  1  0.32251200  0.50038600  0.49878600  1
  C  C50  1  0.27514600  0.49066000  0.48928200  1
  C  C51  1  0.21943600  0.47939200  0.47800700  1
  C  C52  1  0.17207000  0.46989300  0.46827500  1
  C  C53  1  0.81673400  0.42809000  0.50383600  1
  C  C54  1  0.77301700  0.43980800  0.51531400  1
  C  C55  1  0.72158800  0.45336100  0.52886700  1
  C  C56  1  0.67787100  0.46483900  0.54058500  1
  C  C57  1  0.47838400  0.28935600  0.70821700  1
  C  C58  1  0.47888100  0.31054300  0.66857000  1
  C  C59  1  0.47889300  0.33609500  0.62209600  1
  C  C60  1  0.47841600  0.35728200  0.58244800  1
  C  C61  1  0.62277400  0.71378700  0.45956000  1
  C  C62  1  0.59613900  0.68368000  0.45982800  1
  C  C63  1  0.56497800  0.64841500  0.45984600  1
  C  C64  1  0.53834300  0.61856000  0.45960900  1
  C  C65  1  0.65570000  0.17672500  0.11476600  1
  C  C66  1  0.60834100  0.16723800  0.13398700  1
  C  C67  1  0.55264000  0.15598200  0.15651800  1
  C  C68  1  0.50528100  0.14626700  0.17573900  1
  C  C69  1  0.14998400  0.18184900  0.18205600  1
  C  C70  1  0.10623800  0.19333600  0.15885000  1
  C  C71  1  0.05477400  0.20689900  0.13173300  1
  C  C72  1  0.01102700  0.21862800  0.10852800  1
  C  C73  1  0.95618200  0.50915200  0.34997500  1
  C  C74  1  0.92950000  0.50889200  0.32011500  1
  C  C75  1  0.89828500  0.50888400  0.28484400  1
  C  C76  1  0.87160300  0.50913100  0.25473000  1
  C  C77  1  0.01620000  0.26048000  0.67910400  1
  C  C78  1  0.01572400  0.30009200  0.65803300  1
  C  C79  1  0.01573800  0.34652700  0.63260100  1
  C  C80  1  0.01623800  0.38613900  0.61153100  1
  C  C81  1  0.17208800  0.17669300  0.82240500  1
  C  C82  1  0.21943900  0.16720600  0.81267200  1
  C  C83  1  0.27513000  0.15595100  0.80139800  1
  C  C84  1  0.32248100  0.14623600  0.79189400  1
  C  C85  1  0.81676400  0.21858700  0.78673300  1
  C  C86  1  0.77301300  0.20686500  0.77526200  1
  C  C87  1  0.72154500  0.19331000  0.76171600  1
  C  C88  1  0.67779400  0.18182900  0.75000300  1
  C  C89  1  0.53830100  0.02809000  0.83098700  1
  C  C90  1  0.56495300  0.99825800  0.83073700  1
  C  C91  1  0.59613400  0.96302200  0.83074100  1
  C  C92  1  0.62278600  0.93293800  0.83099600  1
  C  C93  1  0.68274700  0.85239200  0.58236600  1
  C  C94  1  0.68222600  0.83388000  0.62201800  1
  C  C95  1  0.68218700  0.81291000  0.66849800  1
  C  C96  1  0.68264000  0.79439800  0.70815000  1
  C  C97  1  0.48330000  0.78660100  0.54053000  1
  C  C98  1  0.43957000  0.80978500  0.52882400  1
  C  C99  1  0.38812500  0.83687600  0.51528500  1
  C  C100  1  0.34439500  0.86005900  0.50382000  1
  C  C101  1  0.83862200  0.79290100  0.49870700  1
  C  C102  1  0.88597600  0.81212600  0.48919600  1
  C  C103  1  0.94167200  0.83466200  0.47791400  1
  C  C104  1  0.98902500  0.85388700  0.46817400  1
  C  C105  1  0.81158100  0.26051100  0.17421000  1
  C  C106  1  0.81204400  0.30012000  0.15572200  1
  C  C107  1  0.81201600  0.34654800  0.13476900  1
  C  C108  1  0.81150400  0.38615700  0.11628100  1
  C  C109  1  0.65570500  0.46990400  0.17572200  1
  C  C110  1  0.60833300  0.47940900  0.15649200  1
  C  C111  1  0.55261800  0.49068500  0.13394900  1
  C  C112  1  0.50524600  0.50041800  0.11471900  1
  C  C113  1  0.14989100  0.46483900  0.10847500  1
  C  C114  1  0.10617200  0.45335800  0.13168400  1
  C  C115  1  0.05474100  0.43980100  0.15880500  1
  C  C116  1  0.01102200  0.42807800  0.18201500  1
  C  C117  1  0.95623300  0.13750300  0.94063300  1
  C  C118  1  0.92952500  0.13776800  0.97046500  1
  C  C119  1  0.89827900  0.13778200  0.00570200  1
  C  C120  1  0.87157100  0.13754000  0.03578700  1
  C  C121  1  0.48323700  0.86010900  0.75000000  1
  C  C122  1  0.43950000  0.83692700  0.76171500  1
  C  C123  1  0.38804600  0.80983800  0.77526500  1
  C  C124  1  0.34430900  0.78665500  0.78674000  1
  C  C125  1  0.98899700  0.79292400  0.82231300  1
  C  C126  1  0.94164500  0.81214600  0.81259300  1
  C  C127  1  0.88595400  0.83467900  0.80133300  1
  C  C128  1  0.83860300  0.85390200  0.79184100  1
  C  C129  1  0.14485000  0.85245600  0.67906400  1
  C  C130  1  0.14537100  0.83390200  0.65798400  1
  C  C131  1  0.14540800  0.81289000  0.63253600  1
  C  C132  1  0.14495300  0.79433600  0.61145600  1
  C  C133  1  0.20485900  0.93291800  0.34992800  1
  C  C134  1  0.23153400  0.96301600  0.32009400  1
  C  C135  1  0.26274200  0.99827000  0.28485400  1
  C  C136  1  0.28941800  0.02811600  0.25476600  1
  C  C137  1  0.28938600  0.61855900  0.03577500  1
  C  C138  1  0.26271900  0.64842000  0.00568600  1
  C  C139  1  0.23152000  0.68369200  0.97044400  1
  C  C140  1  0.20485200  0.71380500  0.94060900  1
  C  C141  1  0.34943400  0.28939100  0.11633200  1
  C  C142  1  0.34892600  0.31056900  0.13478000  1
  C  C143  1  0.34890300  0.33610400  0.15569200  1
  C  C144  1  0.34937000  0.35728300  0.17413900  1
  O  O1  1  0.49482400  0.42558700  0.51666100  1
  O  O2  1  0.48464400  0.42483400  0.58162800  1
  O  O3  1  0.59169700  0.47812900  0.49660500  1
  O  O4  1  0.58167600  0.47721500  0.56164800  1
  O  O5  1  0.52212600  0.55263800  0.45682100  1
  O  O6  1  0.51104400  0.55079300  0.52219300  1
  O  O7  1  0.42113200  0.49699700  0.47570900  1
  O  O8  1  0.40944600  0.49576600  0.54073500  1
  O  O9  1  0.84419300  0.20009700  0.04094000  1
  O  O10  1  0.85535300  0.13484200  0.10451700  1
  O  O11  1  0.91479700  0.23961000  0.07506300  1
  O  O12  1  0.92489900  0.17468500  0.13924500  1
  O  O13  1  0.81776900  0.25960000  0.10745600  1
  O  O14  1  0.82803000  0.19474800  0.17172000  1
  O  O15  1  0.74258400  0.21863900  0.07742500  1
  O  O16  1  0.75435300  0.15372800  0.14126600  1
  O  O17  1  0.25820100  0.81730500  0.80005200  1
  O  O18  1  0.24806900  0.75325800  0.79911500  1
  O  O19  1  0.18866400  0.78253100  0.87463700  1
  O  O20  1  0.17746200  0.71908900  0.87276200  1
  O  O21  1  0.08766100  0.81934100  0.81893600  1
  O  O22  1  0.07586100  0.75562900  0.81767900  1
  O  O23  1  0.16132600  0.84984000  0.74745300  1
  O  O24  1  0.15102500  0.78570800  0.74667400  1
  O  O25  1  0.34326600  0.22179100  0.18308800  1
  O  O26  1  0.33295400  0.22113500  0.11882600  1
  O  O27  1  0.41843100  0.15084900  0.21310500  1
  O  O28  1  0.40661000  0.14971900  0.14926000  1
  O  O29  1  0.31682900  0.09582900  0.24960800  1
  O  O30  1  0.30560300  0.09408700  0.18603300  1
  O  O31  1  0.24623200  0.16942100  0.21550000  1
  O  O32  1  0.23607600  0.16860100  0.15132500  1
  O  O33  1  0.07344500  0.49291400  0.47172000  1
  O  O34  1  0.08515200  0.42800300  0.47285400  1
  O  O35  1  0.99979000  0.45191400  0.54320600  1
  O  O36  1  0.00999300  0.38706400  0.54385700  1
  O  O37  1  0.90289300  0.47200900  0.49059800  1
  O  O38  1  0.91293500  0.40708300  0.49141200  1
  O  O39  1  0.97242300  0.51183900  0.41601700  1
  O  O40  1  0.98353100  0.44658400  0.41776600  1
  O  O41  1  0.51092100  0.09585900  0.76842400  1
  O  O42  1  0.52213600  0.09399600  0.83380200  1
  O  O43  1  0.58154300  0.16944600  0.72896100  1
  O  O44  1  0.59169600  0.16851700  0.79401000  1
  O  O45  1  0.48452500  0.22181300  0.70901700  1
  O  O46  1  0.49484300  0.22104200  0.77399100  1
  O  O47  1  0.40933200  0.15087200  0.74991900  1
  O  O48  1  0.42115500  0.14962300  0.81495100  1
  O  O49  1  0.67656900  0.78565300  0.58155500  1
  O  O50  1  0.66628900  0.84979100  0.51658500  1
  O  O51  1  0.75174500  0.75559400  0.54066400  1
  O  O52  1  0.73996400  0.81931000  0.47563000  1
  O  O53  1  0.65013900  0.71905200  0.52213400  1
  O  O54  1  0.63896400  0.78250400  0.45675500  1
  O  O55  1  0.57953000  0.75320400  0.56159000  1
  O  O56  1  0.56941900  0.81725600  0.49653900  1
  O  O57  1  0.82797400  0.45192000  0.11878200  1
  O  O58  1  0.81774500  0.38706300  0.18304000  1
  O  O59  1  0.92488000  0.47200200  0.15128700  1
  O  O60  1  0.91481400  0.40706700  0.21546000  1
  O  O61  1  0.85536100  0.51183200  0.18599200  1
  O  O62  1  0.84423500  0.44656900  0.24956200  1
  O  O63  1  0.75433600  0.49292200  0.14923100  1
  O  O64  1  0.74260500  0.42800100  0.21306700  1
  O  O65  1  0.91300800  0.23957200  0.79918100  1
  O  O66  1  0.90288100  0.17464500  0.80000300  1
  O  O67  1  0.01002900  0.25956700  0.74677000  1
  O  O68  1  0.99974700  0.19471500  0.74742900  1
  O  O69  1  0.08521900  0.21860500  0.81780100  1
  O  O70  1  0.07342600  0.15369300  0.81894100  1
  O  O71  1  0.98362300  0.20005600  0.87285500  1
  O  O72  1  0.97243100  0.13480000  0.87460500  1
  O  O73  1  0.63898500  0.86423300  0.83378700  1
  O  O74  1  0.65010000  0.92769400  0.76841900  1
  O  O75  1  0.73996300  0.82746400  0.81491400  1
  O  O76  1  0.75168900  0.89119200  0.74988800  1
  O  O77  1  0.66624400  0.79697700  0.77393800  1
  O  O78  1  0.67645800  0.86112800  0.70897200  1
  O  O79  1  0.56939500  0.82946700  0.79399100  1
  O  O80  1  0.57945500  0.89353300  0.72895000  1
  O  O81  1  0.07595400  0.89116200  0.47281700  1
  O  O82  1  0.08765200  0.82743800  0.47157600  1
  O  O83  1  0.17754500  0.92766300  0.41775800  1
  O  O84  1  0.18864200  0.86420700  0.41590500  1
  O  O85  1  0.24819000  0.89348800  0.49142100  1
  O  O86  1  0.25821800  0.82942800  0.49050400  1
  O  O87  1  0.15116500  0.86107300  0.54384000  1
  O  O88  1  0.16135700  0.79692900  0.54308100  1
  O  O89  1  0.30562200  0.55257900  0.10449800  1
  O  O90  1  0.31670500  0.55085000  0.04091200  1
  O  O91  1  0.40663100  0.49695000  0.14122900  1
  O  O92  1  0.41831100  0.49583900  0.07737200  1
  O  O93  1  0.33295100  0.42552800  0.17166800  1
  O  O94  1  0.34312900  0.42489100  0.10739500  1
  O  O95  1  0.23606900  0.47806500  0.13920000  1
  O  O96  1  0.24608300  0.47727200  0.07500800  1
