data_DB0-m3_o11_o29_f0_pcu.sym.78_repeat
_audit_creation_date              2024-02-23
_audit_creation_method            'Materials Studio'
_symmetry_space_group_name_H-M    'P1'
_symmetry_Int_Tables_number       1
_symmetry_cell_setting            triclinic
loop_
_symmetry_equiv_pos_as_xyz
  x,y,z
_cell_length_a                    27.6333
_cell_length_b                    11.1426
_cell_length_c                    9.9038
_cell_angle_alpha                 89.9974
_cell_angle_beta                  89.9930
_cell_angle_gamma                 89.9936
loop_
_atom_site_label
_atom_site_type_symbol
_atom_site_fract_x
_atom_site_fract_y
_atom_site_fract_z
_atom_site_U_iso_or_equiv
_atom_site_adp_type
_atom_site_occupancy
O1     O     0.50331   0.31763   0.60946   0.00000  Uiso   1.00
O2     O     0.50104   0.31851   0.37692   0.00000  Uiso   1.00
C1     C     0.50222   0.26201   0.49331   0.00000  Uiso   1.00
O3     O     0.43052   0.49426   0.62050   0.00000  Uiso   1.00
O4     O     0.42824   0.49642   0.38800   0.00000  Uiso   1.00
C2     C     0.40670   0.49486   0.50593   0.00000  Uiso   1.00
Zn1    Zn    0.50306   0.49560   0.65025   0.00000  Uiso   1.00
Zn2    Zn    0.49976   0.49800   0.34318   0.00000  Uiso   1.00
O5     O     0.50212   0.67496   0.61680   0.00000  Uiso   1.00
O6     O     0.50007   0.67633   0.38337   0.00000  Uiso   1.00
O7     O     0.57460   0.49738   0.60578   0.00000  Uiso   1.00
O8     O     0.57234   0.49901   0.37259   0.00000  Uiso   1.00
C3     C     0.50081   0.73158   0.50051   0.00000  Uiso   1.00
C4     C     0.59611   0.49861   0.48757   0.00000  Uiso   1.00
C5     C     0.17705   0.40216   0.54839   0.00000  Uiso   1.00
O9     O     0.20124   0.30068   0.57703   0.00000  Uiso   1.00
N1     N     0.20184   0.50190   0.51773   0.00000  Uiso   1.00
C6     C     0.17892   0.60499   0.48742   0.00000  Uiso   1.00
C7     C     0.27924   0.48237   0.63282   0.00000  Uiso   1.00
C8     C     0.32917   0.48139   0.63031   0.00000  Uiso   1.00
C9     C     0.32757   0.50924   0.39117   0.00000  Uiso   1.00
C10    C     0.27772   0.51148   0.39423   0.00000  Uiso   1.00
C11    C     0.25340   0.49831   0.51496   0.00000  Uiso   1.00
C12    C     0.10223   0.50658   0.51484   0.00000  Uiso   1.00
C13    C     0.12719   0.40289   0.54618   0.00000  Uiso   1.00
C14    C     0.10235   0.29882   0.57304   0.00000  Uiso   1.00
C15    C     0.12815   0.61094   0.48806   0.00000  Uiso   1.00
C16    C     0.35362   0.49490   0.50935   0.00000  Uiso   1.00
H1     H     0.34569   0.52012   0.29526   0.00000  Uiso   1.00
H2     H     0.25770   0.52314   0.30136   0.00000  Uiso   1.00
H3     H     0.12108   0.21618   0.59551   0.00000  Uiso   1.00
C17    C     0.64921   0.49918   0.48480   0.00000  Uiso   1.00
C18    C     0.97590   0.40133   0.54460   0.00000  Uiso   1.00
C19    C     0.97639   0.60269   0.45729   0.00000  Uiso   1.00
C20    C     0.95118   0.50123   0.49749   0.00000  Uiso   1.00
C21    C     0.94905   0.30470   0.59341   0.00000  Uiso   1.00
C22    C     0.89940   0.30551   0.58928   0.00000  Uiso   1.00
C23    C     0.87511   0.40240   0.53674   0.00000  Uiso   1.00
C24    C     0.90089   0.49985   0.49096   0.00000  Uiso   1.00
C25    C     0.87580   0.59606   0.43904   0.00000  Uiso   1.00
C26    C     0.82573   0.59405   0.43451   0.00000  Uiso   1.00
N2     N     0.80118   0.49828   0.48144   0.00000  Uiso   1.00
C27    C     0.82508   0.40287   0.53175   0.00000  Uiso   1.00
C28    C     0.72479   0.49118   0.60264   0.00000  Uiso   1.00
C29    C     0.67496   0.49155   0.60426   0.00000  Uiso   1.00
C30    C     0.67401   0.50718   0.36375   0.00000  Uiso   1.00
C31    C     0.72397   0.50760   0.36252   0.00000  Uiso   1.00
C32    C     0.74953   0.49912   0.48197   0.00000  Uiso   1.00
O10    O     0.80005   0.30697   0.57526   0.00000  Uiso   1.00
C33    C     0.02659   0.40047   0.54256   0.00000  Uiso   1.00
C34    C     0.05177   0.50473   0.51039   0.00000  Uiso   1.00
C35    C     0.02672   0.60700   0.47343   0.00000  Uiso   1.00
C36    C     0.05286   0.29709   0.57096   0.00000  Uiso   1.00
H4     H     0.65665   0.48532   0.70040   0.00000  Uiso   1.00
H5     H     0.74443   0.48578   0.69685   0.00000  Uiso   1.00
H6     H     0.88017   0.22871   0.62871   0.00000  Uiso   1.00
H7     H     0.96489   0.22725   0.64057   0.00000  Uiso   1.00
H8     H     0.03667   0.21073   0.58788   0.00000  Uiso   1.00
O11    O     0.20637   0.70029   0.45614   0.00000  Uiso   1.00
C37    C     0.10227   0.71707   0.46481   0.00000  Uiso   1.00
H9     H     0.34863   0.46967   0.72401   0.00000  Uiso   1.00
H10    H     0.26042   0.47239   0.72787   0.00000  Uiso   1.00
C38    C     0.95048   0.69701   0.39960   0.00000  Uiso   1.00
C39    C     0.90090   0.69369   0.39126   0.00000  Uiso   1.00
O12    O     0.80129   0.68942   0.38705   0.00000  Uiso   1.00
C40    C     0.05243   0.71299   0.45744   0.00000  Uiso   1.00
H11    H     0.96740   0.77418   0.35453   0.00000  Uiso   1.00
H12    H     0.65479   0.51331   0.26898   0.00000  Uiso   1.00
H13    H     0.88236   0.76912   0.34627   0.00000  Uiso   1.00
H14    H     0.74299   0.51298   0.26731   0.00000  Uiso   1.00
H15    H     0.03406   0.79723   0.44587   0.00000  Uiso   1.00
C41    C     0.50049   0.92904   0.39044   0.00000  Uiso   1.00
C42    C     0.50054   0.86317   0.50388   0.00000  Uiso   1.00
H16    H     0.50031   0.88387   0.29358   0.00000  Uiso   1.00
H17    H     0.50023   0.90350   0.60289   0.00000  Uiso   1.00
C43    C     0.50028   0.06214   0.38758   0.00000  Uiso   1.00
C44    C     0.50280   0.13058   0.49831   0.00000  Uiso   1.00
H18    H     0.49813   0.10494   0.28952   0.00000  Uiso   1.00
H19    H     0.50539   0.09209   0.59795   0.00000  Uiso   1.00
C45    C     0.52140   0.58088   0.92411   0.00000  Uiso   1.00
N3     N     0.50620   0.49279   0.85201   0.00000  Uiso   1.00
H20    H     0.53368   0.66233   0.87516   0.00000  Uiso   1.00
H21    H     0.50071   0.41269   0.90098   0.00000  Uiso   1.00
C46    C     0.52522   0.57134   0.07275   0.00000  Uiso   1.00
N4     N     0.49735   0.50196   0.14138   0.00000  Uiso   1.00
H22    H     0.55093   0.62810   0.12519   0.00000  Uiso   1.00
H23    H     0.46931   0.46172   0.09053   0.00000  Uiso   1.00
C47    C     0.12503   0.83917   0.45167   0.00000  Uiso   1.00
C48    C     0.14795   0.87516   0.58206   0.00000  Uiso   1.00
C49    C     0.17239   0.97760   0.59061   0.00000  Uiso   1.00
H24    H     0.09741   0.90781   0.42707   0.00000  Uiso   1.00
H25    H     0.15123   0.84154   0.36707   0.00000  Uiso   1.00
H26    H     0.14481   0.81776   0.67002   0.00000  Uiso   1.00
H27    H     0.17584   0.03518   0.50292   0.00000  Uiso   1.00
H28    H     0.18904   0.00345   0.68536   0.00000  Uiso   1.00
