# generated using pymatgen
data_ZnH9C16BrNO4
_symmetry_space_group_name_H-M   'P 1'
_cell_length_a   11.01631000
_cell_length_b   10.97821500
_cell_length_c   9.77881800
_cell_angle_alpha   90.00402500
_cell_angle_beta   89.99916800
_cell_angle_gamma   89.99957700
_symmetry_Int_Tables_number   1
_chemical_formula_structural   ZnH9C16BrNO4
_chemical_formula_sum   'Zn2 H18 C32 Br2 N2 O8'
_cell_volume   1182.64457107
_cell_formula_units_Z   2
loop_
 _symmetry_equiv_pos_site_id
 _symmetry_equiv_pos_as_xyz
  1  'x, y, z'
loop_
 _atom_site_type_symbol
 _atom_site_label
 _atom_site_symmetry_multiplicity
 _atom_site_fract_x
 _atom_site_fract_y
 _atom_site_fract_z
 _atom_site_occupancy
  Zn  Zn1  1  0.49796700  0.49874600  0.65528900  1
  Zn  Zn2  1  0.50203200  0.50125300  0.34471000  1
  H  H1  1  0.25322600  0.62413300  0.89579600  1
  H  H2  1  0.74677400  0.37586600  0.10420300  1
  H  H3  1  0.25729300  0.77763800  0.07902600  1
  H  H4  1  0.74270700  0.22236200  0.92097300  1
  H  H5  1  0.16805100  0.73080000  0.30356800  1
  H  H6  1  0.83194900  0.26920000  0.69643100  1
  H  H7  1  0.06878800  0.37787500  0.16033900  1
  H  H8  1  0.93121100  0.62212500  0.83966100  1
  H  H9  1  0.16010200  0.42340600  0.93793000  1
  H  H10  1  0.83989700  0.57659400  0.06207000  1
  H  H11  1  0.88441000  0.53553200  0.29036900  1
  H  H12  1  0.11558900  0.46446700  0.70963100  1
  H  H13  1  0.58292800  0.88442600  0.30679200  1
  H  H14  1  0.41707200  0.11557400  0.69320700  1
  H  H15  1  0.60569000  0.66195800  0.12155500  1
  H  H16  1  0.39431000  0.33804100  0.87844400  1
  H  H17  1  0.60200600  0.65911400  0.87079200  1
  H  H18  1  0.39799400  0.34088600  0.12920800  1
  C  C1  1  0.50152100  0.26112400  0.49849700  1
  C  C2  1  0.49847800  0.73887600  0.50150200  1
  C  C3  1  0.26153800  0.50134800  0.49759900  1
  C  C4  1  0.73846100  0.49865100  0.50240000  1
  C  C5  1  0.21620800  0.68968300  0.09712100  1
  C  C6  1  0.78379200  0.31031700  0.90287800  1
  C  C7  1  0.16632200  0.66336100  0.22303000  1
  C  C8  1  0.83367700  0.33663800  0.77696900  1
  C  C9  1  0.11394100  0.55097700  0.24595300  1
  C  C10  1  0.88605800  0.44902200  0.75404600  1
  C  C11  1  0.11023000  0.46573200  0.14263700  1
  C  C12  1  0.88976900  0.53426800  0.85736200  1
  C  C13  1  0.16120000  0.49157300  0.01744800  1
  C  C14  1  0.83880000  0.50842700  0.98255100  1
  C  C15  1  0.21386000  0.60366300  0.99437800  1
  C  C16  1  0.78614000  0.39633700  0.00562100  1
  C  C17  1  0.93405500  0.51822400  0.38321700  1
  C  C18  1  0.06594400  0.48177500  0.61678200  1
  C  C19  1  0.87283300  0.49667900  0.50399600  1
  C  C20  1  0.12716600  0.50332000  0.49600300  1
  C  C21  1  0.94087800  0.47717700  0.62194400  1
  C  C22  1  0.05912100  0.52282200  0.37805500  1
  C  C23  1  0.54824600  0.05988900  0.38792300  1
  C  C24  1  0.45175300  0.94011100  0.61207600  1
  C  C25  1  0.54474800  0.93437700  0.39174400  1
  C  C26  1  0.45525100  0.06562200  0.60825600  1
  C  C27  1  0.49760800  0.87299800  0.50296200  1
  C  C28  1  0.50239200  0.12700200  0.49703700  1
  C  C29  1  0.55848600  0.58970700  0.06856800  1
  C  C30  1  0.44151400  0.41029300  0.93143100  1
  C  C31  1  0.55607400  0.58818800  0.92729700  1
  C  C32  1  0.44392500  0.41181100  0.07270200  1
  Br  Br1  1  0.62634700  0.13181200  0.23292400  1
  Br  Br2  1  0.37365200  0.86818800  0.76707500  1
  N  N1  1  0.49742900  0.49870900  0.86000800  1
  N  N2  1  0.50257000  0.50129000  0.13999100  1
  O  O1  1  0.49820600  0.31724200  0.61720100  1
  O  O2  1  0.50179400  0.68275800  0.38279800  1
  O  O3  1  0.50207700  0.31978800  0.38190100  1
  O  O4  1  0.49792200  0.68021200  0.61809800  1
  O  O5  1  0.31718700  0.49925300  0.61662300  1
  O  O6  1  0.68281300  0.50074600  0.38337600  1
  O  O7  1  0.32109200  0.50088700  0.38147000  1
  O  O8  1  0.67890800  0.49911300  0.61852900  1
