# Generated by REPEAT Assigner based on pymatgen
data_DB0-m29_o84_o143_f0_pts.sym.31
_audit_creation_date              2022-05-24
_audit_creation_method            REPEAT_Assigner
_cell_length_a                    13.349694
_cell_length_b                    16.956841
_cell_length_c                    11.173835
_cell_angle_alpha                 108.082018
_cell_angle_beta                  102.066403
_cell_angle_gamma                 107.079621
_cell_volume                      2169.388824
_symmetry_space_group_name_H-M    P1
_symmetry_Int_Tables_number       1
loop_
    _symmetry_equiv_pos_site_id
    _symmetry_equiv_pos_as_xyz
    1  x,y,z
loop_
    _atom_site_type_symbol
    _atom_site_label
    _atom_site_fract_x
    _atom_site_fract_y
    _atom_site_fract_z
    _atom_type_partial_charge
    C   C1   0.205163  0.986426  0.876596  0.035280
    C   C2   0.101823  0.974950  0.800583  -0.206374
    C   C3   0.019192  0.978107  0.856222  0.201362
    C   C4   0.918107  0.969033  0.779451  -0.221081
    C   C5   0.835523  0.973530  0.833978  0.018174
    C   C6   0.223404  0.999536  0.010079  -0.018580
    C   C7   0.138951  0.000516  0.064909  0.020182
    C   C8   0.037181  0.990821  0.987963  -0.003284
    C   C9   0.953752  0.994673  0.042937  0.027541
    C   C10  0.852699  0.986785  0.966705  -0.005943
    C   C11  0.769521  0.990973  0.022842  -0.023165
    C   C12  0.155808  0.012790  0.197380  -0.032187
    C   C13  0.072281  0.015114  0.250965  -0.183240
    C   C14  0.971353  0.006349  0.174275  0.173183
    C   C15  0.888549  0.009160  0.229654  -0.197612
    C   C16  0.787141  0.001936  0.155168  0.039375
    H   H1   0.085167  0.964941  0.696969  0.153501
    H   H2   0.902991  0.958847  0.675842  0.167214
    H   H3   0.758325  0.966155  0.769456  0.069680
    H   H4   0.233058  0.020262  0.262304  0.095259
    H   H5   0.086924  0.024334  0.354176  0.158079
    H   H6   0.904328  0.018191  0.332855  0.152655
    O   O1   0.614700  0.020680  0.166295  -0.508582
    C   C17  0.700305  0.004180  0.218008  0.535015
    O   O2   0.494401  0.834227  0.164842  -0.455013
    O   O3   0.708721  0.989753  0.327783  -0.519508
    O   O4   0.487667  0.925929  0.356436  -0.455342
    C   C18  0.486785  0.848134  0.284278  0.518621
    Fe  Fe1  0.505620  0.007631  0.261815  1.416940
    O   O5   0.354362  0.953887  0.124307  -0.606780
    O   O6   0.407438  0.100690  0.154396  -0.522573
    C   C19  0.332807  0.018099  0.096771  0.672041
    O   O7   0.560580  0.133160  0.400221  -0.564007
    O   O8   0.413514  0.063737  0.453487  -0.461701
    C   C20  0.497588  0.136595  0.476355  0.587426
    O   O9   0.431068  0.883524  0.636034  -0.543798
    O   O10  0.588809  0.945654  0.595839  -0.446535
    C   C21  0.497101  0.876473  0.564585  0.611444
    O   O11  0.650578  0.047922  0.914512  -0.624638
    O   O12  0.579242  0.901588  0.886430  -0.536644
    C   C22  0.662305  0.980115  0.940062  0.700161
    O   O13  0.271717  0.977093  0.689091  -0.500125
    O   O14  0.527702  0.094099  0.697658  -0.511159
    C   C23  0.496174  0.159909  0.747818  0.595514
    O   O15  0.393069  0.998851  0.882690  -0.501925
    C   C24  0.292811  0.986377  0.813906  0.553950
    O   O16  0.443516  0.156499  0.834048  -0.470342
    Fe  Fe2  0.499339  0.007066  0.782779  1.410086
    C   C25  0.512732  0.223208  0.575285  0.108894
    C   C26  0.515998  0.291825  0.532590  -0.310339
    H   H7   0.510595  0.279981  0.430265  0.197454
    C   C27  0.519397  0.372546  0.616512  0.154798
    C   C28  0.531598  0.387583  0.748260  -0.276394
    H   H8   0.535729  0.450803  0.815641  0.145414
    C   C29  0.534910  0.321596  0.794935  0.275623
    C   C30  0.515911  0.235868  0.705651  -0.209287
    C   C31  0.566879  0.531543  0.644752  -0.162105
    C   C32  0.552755  0.595574  0.598938  -0.073173
    C   C33  0.479549  0.570266  0.473510  0.032662
    C   C34  0.420854  0.479824  0.394434  -0.126439
    C   C35  0.434653  0.415733  0.440450  -0.126953
    C   C36  0.507862  0.441043  0.565979  0.088963
    C   C37  0.462962  0.625230  0.292764  -0.132923
    H   H9   0.460372  0.562740  0.225188  0.113450
    C   C38  0.466875  0.693346  0.249316  -0.086786
    H   H10  0.464460  0.680924  0.147694  0.110171
    C   C39  0.477402  0.776566  0.334861  -0.010817
    C   C40  0.478362  0.789140  0.464548  0.017953
    C   C41  0.473429  0.720054  0.506750  -0.249048
    H   H11  0.477426  0.731706  0.608666  0.182349
    C   C42  0.469228  0.638850  0.422808  0.139494
    H   H12  0.626861  0.553429  0.741776  0.122273
    H   H13  0.602657  0.665652  0.661030  0.079839
    H   H14  0.361730  0.458226  0.296906  0.110728
    H   H15  0.385033  0.345636  0.378172  0.097031
    C   C43  0.564121  0.347927  0.942857  -0.322773
    C   C44  0.665435  0.432648  0.012688  0.331819
    C   C45  0.661620  0.509425  0.098969  -0.297856
    C   C46  0.756118  0.587153  0.163741  -0.040678
    C   C47  0.854582  0.588332  0.142684  -0.143607
    C   C48  0.858602  0.511731  0.056801  -0.078513
    C   C49  0.764173  0.433980  0.991910  -0.220189
    H   H16  0.584991  0.297754  0.975141  0.110291
    H   H17  0.493602  0.357964  0.973853  0.097612
    H   H18  0.584955  0.509259  0.116259  0.137676
    H   H19  0.752990  0.647216  0.231176  0.087970
    H   H20  0.928624  0.649276  0.193585  0.110176
    H   H21  0.935837  0.512577  0.040430  0.102418
    H   H22  0.767905  0.373988  0.925071  0.120279
