# generated using pymatgen
data_Zn3H28C50(NO9)2
_symmetry_space_group_name_H-M   'P 1'
_cell_length_a   21.87325700
_cell_length_b   21.87627800
_cell_length_c   46.84943300
_cell_angle_alpha   90.00000000
_cell_angle_beta   90.00000000
_cell_angle_gamma   90.00000000
_symmetry_Int_Tables_number   1
_chemical_formula_structural   Zn3H28C50(NO9)2
_chemical_formula_sum   'Zn12 H112 C200 N8 O72'
_cell_volume   22417.70906195
_cell_formula_units_Z   4
loop_
 _symmetry_equiv_pos_site_id
 _symmetry_equiv_pos_as_xyz
  1  'x, y, z'
loop_
 _atom_site_type_symbol
 _atom_site_label
 _atom_site_symmetry_multiplicity
 _atom_site_fract_x
 _atom_site_fract_y
 _atom_site_fract_z
 _atom_site_occupancy
  Zn  Zn1  1  0.99358500  0.99476200  0.03505200  1
  Zn  Zn2  1  0.49326400  0.49254400  0.53506500  1
  Zn  Zn3  1  0.98993000  0.99640200  0.97047000  1
  Zn  Zn4  1  0.48974200  0.49434300  0.47048300  1
  Zn  Zn5  1  0.49483000  0.07006200  0.00329700  1
  Zn  Zn6  1  0.92388700  0.49767900  0.00155300  1
  Zn  Zn7  1  0.48901100  0.93160500  0.00206500  1
  Zn  Zn8  1  0.06220100  0.49300000  0.00416400  1
  Zn  Zn9  1  0.99458900  0.56809600  0.50332100  1
  Zn  Zn10  1  0.42375000  0.99557900  0.50149700  1
  Zn  Zn11  1  0.98873900  0.42963200  0.50221200  1
  Zn  Zn12  1  0.56206300  0.99083100  0.50406400  1
  H  H1  1  0.07782800  0.47510200  0.14703000  1
  H  H2  1  0.52035200  0.08962300  0.14609900  1
  H  H3  1  0.89102800  0.53093100  0.14403400  1
  H  H4  1  0.46468800  0.90271000  0.14481400  1
  H  H5  1  0.57796500  0.97442000  0.64699000  1
  H  H6  1  0.02072400  0.58852200  0.64599300  1
  H  H7  1  0.39119700  0.03032800  0.64389300  1
  H  H8  1  0.96489700  0.40164700  0.64509300  1
  H  H9  1  0.79639800  0.91321500  0.97584000  1
  H  H10  1  0.96109200  0.80076900  0.95844000  1
  H  H11  1  0.18552600  0.02958300  0.95735900  1
  H  H12  1  0.90717100  0.18993400  0.97693900  1
  H  H13  1  0.29607500  0.41128400  0.47566700  1
  H  H14  1  0.46121100  0.29871200  0.45829700  1
  H  H15  1  0.68533800  0.52804600  0.45753500  1
  H  H16  1  0.40675400  0.68780700  0.47710800  1
  H  H17  1  0.68394900  0.91493200  0.97650500  1
  H  H18  1  0.95982900  0.68862300  0.95898400  1
  H  H19  1  0.29797400  0.03265700  0.95759500  1
  H  H20  1  0.90762300  0.30238800  0.97768700  1
  H  H21  1  0.18362000  0.41307700  0.47634600  1
  H  H22  1  0.46001400  0.18656200  0.45877800  1
  H  H23  1  0.79778500  0.53121800  0.45783300  1
  H  H24  1  0.40726200  0.80025700  0.47783000  1
  H  H25  1  0.69189600  0.13068700  0.02492200  1
  H  H26  1  0.00700300  0.68766600  0.06738000  1
  H  H27  1  0.29990800  0.92773700  0.05749700  1
  H  H28  1  0.12587000  0.29646300  0.02386500  1
  H  H29  1  0.19174100  0.62851800  0.52508200  1
  H  H30  1  0.50649900  0.18535800  0.56723000  1
  H  H31  1  0.79955700  0.42517000  0.55748900  1
  H  H32  1  0.62571300  0.79425800  0.52377500  1
  H  H33  1  0.68812300  0.08071900  0.05770600  1
  H  H34  1  0.08844700  0.69068100  0.05414900  1
  H  H35  1  0.29880000  0.01046900  0.06890100  1
  H  H36  1  0.07746800  0.29973500  0.05717400  1
  H  H37  1  0.18793300  0.57829200  0.55778000  1
  H  H38  1  0.58803000  0.18845000  0.55412000  1
  H  H39  1  0.79840300  0.50778400  0.56907600  1
  H  H40  1  0.57751000  0.79760100  0.55714500  1
  H  H41  1  0.80173200  0.07685500  0.05833900  1
  H  H42  1  0.08351000  0.80445900  0.05558100  1
  H  H43  1  0.18549000  0.00714000  0.06959300  1
  H  H44  1  0.07446600  0.18637000  0.05778500  1
  H  H45  1  0.30153500  0.57433800  0.55840600  1
  H  H46  1  0.58302700  0.30222000  0.55560700  1
  H  H47  1  0.68509300  0.50443100  0.56970300  1
  H  H48  1  0.57443900  0.68423100  0.55778700  1
  H  H49  1  0.08133700  0.47266600  0.09527500  1
  H  H50  1  0.51774000  0.09241000  0.09428100  1
  H  H51  1  0.89336200  0.52664100  0.09208200  1
  H  H52  1  0.46385700  0.90434600  0.09285900  1
  H  H53  1  0.58135400  0.97117600  0.59523800  1
  H  H54  1  0.01799800  0.59086500  0.59418200  1
  H  H55  1  0.39341100  0.02523400  0.59195900  1
  H  H56  1  0.96395400  0.40283500  0.59312700  1
  H  H57  1  0.09868800  0.60598600  0.22635600  1
  H  H58  1  0.39641900  0.10888700  0.22855700  1
  H  H59  1  0.86853900  0.40654100  0.22769300  1
  H  H60  1  0.59657800  0.87945900  0.22541600  1
  H  H61  1  0.59896400  0.10652600  0.72592200  1
  H  H62  1  0.89680800  0.60895000  0.72831000  1
  H  H63  1  0.36867800  0.90726700  0.72793500  1
  H  H64  1  0.09679400  0.37933100  0.72583200  1
  H  H65  1  0.60130000  0.10623700  0.77742000  1
  H  H66  1  0.90026200  0.60940900  0.77977900  1
  H  H67  1  0.36990100  0.90827400  0.77944600  1
  H  H68  1  0.09904000  0.37874100  0.77735600  1
  H  H69  1  0.10100100  0.60492600  0.27785000  1
  H  H70  1  0.39978100  0.10858300  0.28003000  1
  H  H71  1  0.86972800  0.40678600  0.27921000  1
  H  H72  1  0.59874100  0.87811100  0.27693700  1
  H  H73  1  0.50403300  0.90893100  0.85895700  1
  H  H74  1  0.09715900  0.50635100  0.86096900  1
  H  H75  1  0.47668700  0.10200300  0.86090000  1
  H  H76  1  0.90436300  0.47701600  0.85920400  1
  H  H77  1  0.00347400  0.40680900  0.35900800  1
  H  H78  1  0.59677500  0.00460300  0.36087600  1
  H  H79  1  0.97605300  0.59986800  0.36103200  1
  H  H80  1  0.40399700  0.97515100  0.35912900  1
  H  H81  1  0.50554100  0.90641300  0.91081500  1
  H  H82  1  0.09536000  0.50512600  0.91298800  1
  H  H83  1  0.48022400  0.10039700  0.91278000  1
  H  H84  1  0.90163400  0.47766700  0.91094900  1
  H  H85  1  0.00492500  0.40420000  0.41088100  1
  H  H86  1  0.59506800  0.00295300  0.41289100  1
  H  H87  1  0.97954400  0.59817400  0.41289600  1
  H  H88  1  0.40136100  0.97537600  0.41088100  1
  H  H89  1  0.86992900  0.16087200  0.05237000  1
  H  H90  1  0.79089000  0.18379600  0.05853200  1
  H  H91  1  0.83577400  0.22121500  0.03153300  1
  H  H92  1  0.04155800  0.86076100  0.09690500  1
  H  H93  1  0.05559600  0.77970000  0.10259300  1
  H  H94  1  0.98544300  0.81389200  0.11469100  1
  H  H95  1  0.13098000  0.92974200  0.09310100  1
  H  H96  1  0.21228700  0.92036700  0.09988100  1
  H  H97  1  0.16591200  0.85513700  0.09097000  1
  H  H98  1  0.15044500  0.11432700  0.05031400  1
  H  H99  1  0.18214400  0.19009300  0.05711300  1
  H  H100  1  0.21357400  0.14241000  0.02942500  1
  H  H101  1  0.36981400  0.65831300  0.55258400  1
  H  H102  1  0.29080400  0.68128800  0.55878600  1
  H  H103  1  0.33573800  0.71886800  0.53185400  1
  H  H104  1  0.54080600  0.35834000  0.59692700  1
  H  H105  1  0.55480500  0.27726000  0.60256700  1
  H  H106  1  0.48456900  0.31140300  0.61459000  1
  H  H107  1  0.63052100  0.42681000  0.59301200  1
  H  H108  1  0.71180900  0.41738900  0.59982600  1
  H  H109  1  0.66547400  0.35223200  0.59075600  1
  H  H110  1  0.65045400  0.61220000  0.55025400  1
  H  H111  1  0.68211900  0.68801400  0.55697000  1
  H  H112  1  0.71342000  0.64030200  0.52926200  1
  C  C1  1  0.99632800  0.87619300  0.00140000  1
  C  C2  1  0.11117800  0.00061600  0.00222000  1
  C  C3  1  0.98674200  0.11471700  0.00406500  1
  C  C4  1  0.87252700  0.99093300  0.00328700  1
  C  C5  1  0.49612400  0.37405700  0.50134900  1
  C  C6  1  0.61092100  0.49852700  0.50229200  1
  C  C7  1  0.48644200  0.61257400  0.50414100  1
  C  C8  1  0.37227200  0.48875800  0.50324400  1
  C  C9  1  0.49008800  0.00558600  0.85643200  1
  C  C10  1  0.00083500  0.49194800  0.85659100  1
  C  C11  1  0.98952500  0.50347200  0.35652500  1
  C  C12  1  0.50045400  0.99017200  0.35650600  1
  C  C13  1  0.03738500  0.48714900  0.13502100  1
  C  C14  1  0.50718500  0.04902400  0.13447100  1
  C  C15  1  0.93270400  0.51747600  0.13334300  1
  C  C16  1  0.47694900  0.94428600  0.13373600  1
  C  C17  1  0.53750200  0.98630000  0.63496000  1
  C  C18  1  0.00750600  0.54782900  0.63445000  1
  C  C19  1  0.43283900  0.01667200  0.63322900  1
  C  C20  1  0.97717800  0.44311000  0.63392900  1
  C  C21  1  0.98755400  0.49949500  0.08993900  1
  C  C22  1  0.49060000  0.99854300  0.08982600  1
  C  C23  1  0.48757300  0.99796800  0.58985900  1
  C  C24  1  0.99074800  0.49698600  0.58991200  1
  C  C25  1  0.98431800  0.50342500  0.14902300  1
  C  C26  1  0.49262600  0.99603500  0.14896100  1
  C  C27  1  0.48447700  0.00283700  0.64893300  1
  C  C28  1  0.99290500  0.49499300  0.64904600  1
  C  C29  1  0.77339500  0.03189100  0.01921500  1
  C  C30  1  0.01698500  0.77565700  0.02380800  1
  C  C31  1  0.21207300  0.99192300  0.02539000  1
  C  C32  1  0.02751700  0.21425700  0.01911800  1
  C  C33  1  0.27316800  0.52970700  0.51920400  1
  C  C34  1  0.51672300  0.27347300  0.52372500  1
  C  C35  1  0.71177300  0.48965200  0.52548400  1
  C  C36  1  0.52728100  0.71211000  0.51917500  1
  C  C37  1  0.80602800  0.98966600  0.00402500  1
  C  C38  1  0.99742300  0.80942500  0.00089600  1
  C  C39  1  0.17786400  0.00391000  0.00150700  1
  C  C40  1  0.98513100  0.18118000  0.00427800  1
  C  C41  1  0.30576900  0.48755100  0.50395700  1
  C  C42  1  0.49727400  0.30728800  0.50080600  1
  C  C43  1  0.67760600  0.50186900  0.50161500  1
  C  C44  1  0.48481800  0.67903900  0.50438000  1
  C  C45  1  0.77282500  0.94752600  0.98827100  1
  C  C46  1  0.97775400  0.77696600  0.97709300  1
  C  C47  1  0.20979900  0.01914400  0.97684700  1
  C  C48  1  0.94191200  0.21387700  0.98894900  1
  C  C49  1  0.27253200  0.44554000  0.48814300  1
  C  C50  1  0.47777800  0.27487300  0.47695800  1
  C  C51  1  0.70958000  0.51740600  0.47700800  1
  C  C52  1  0.44154800  0.71174400  0.48908700  1
  C  C53  1  0.70906300  0.94845500  0.98874100  1
  C  C54  1  0.97683800  0.71323200  0.97734800  1
  C  C55  1  0.27362300  0.02131900  0.97696100  1
  C  C56  1  0.94206500  0.27765200  0.98952600  1
  C  C57  1  0.20876800  0.44651200  0.48861900  1
  C  C58  1  0.47690600  0.21113700  0.47717500  1
  C  C59  1  0.77340100  0.51964500  0.47715900  1
  C  C60  1  0.44173600  0.77552000  0.48964800  1
  C  C61  1  0.67801200  0.99366900  0.00367400  1
  C  C62  1  0.99819400  0.68123800  0.00083900  1
  C  C63  1  0.30601300  0.00723600  0.00154000  1
  C  C64  1  0.98752200  0.30919200  0.00410800  1
  C  C65  1  0.17775500  0.49165300  0.50361800  1
  C  C66  1  0.49813800  0.17909900  0.50067700  1
  C  C67  1  0.80575300  0.50529600  0.50171700  1
  C  C68  1  0.48727900  0.80705600  0.50417500  1
  C  C69  1  0.71289700  0.03503000  0.01842900  1
  C  C70  1  0.01890500  0.71505100  0.02342100  1
  C  C71  1  0.27262100  0.99274000  0.02521900  1
  C  C72  1  0.03003100  0.27474100  0.01836500  1
  C  C73  1  0.21267300  0.53290000  0.51842400  1
  C  C74  1  0.51868300  0.21286900  0.52330500  1
  C  C75  1  0.77232200  0.49049400  0.52534300  1
  C  C76  1  0.52982700  0.77259400  0.51840400  1
  C  C77  1  0.70939700  0.09035000  0.03669900  1
  C  C78  1  0.04131200  0.70920100  0.05314100  1
  C  C79  1  0.27912200  0.97375800  0.05541200  1
  C  C80  1  0.08623700  0.27862800  0.03604800  1
  C  C81  1  0.20921300  0.58807600  0.53678900  1
  C  C82  1  0.54089200  0.20695000  0.55305400  1
  C  C83  1  0.77876400  0.47120600  0.55549700  1
  C  C84  1  0.58614000  0.77646400  0.53601400  1
  C  C85  1  0.78070600  0.08683900  0.03729800  1
  C  C86  1  0.03896500  0.78055500  0.05364500  1
  C  C87  1  0.20777100  0.97270800  0.05567300  1
  C  C88  1  0.08333500  0.20732400  0.03662400  1
  C  C89  1  0.28051900  0.58450600  0.53738200  1
  C  C90  1  0.53850600  0.27830100  0.55359600  1
  C  C91  1  0.70741200  0.47013600  0.55572300  1
  C  C92  1  0.58319700  0.70516000  0.53661100  1
  C  C93  1  0.03918200  0.48562500  0.10565800  1
  C  C94  1  0.50577800  0.05044500  0.10508100  1
  C  C95  1  0.93415900  0.51514600  0.10392500  1
  C  C96  1  0.47632200  0.94537300  0.10430500  1
  C  C97  1  0.53922800  0.98430900  0.60560100  1
  C  C98  1  0.00603100  0.54899600  0.60506200  1
  C  C99  1  0.43422400  0.01387600  0.60381900  1
  C  C100  1  0.97648600  0.44394100  0.60449400  1
  C  C101  1  0.49339800  0.00176900  0.94680800  1
  C  C102  1  0.99609600  0.49281100  0.94699100  1
  C  C103  1  0.99290300  0.49958700  0.44689400  1
  C  C104  1  0.49585800  0.99047500  0.44691200  1
  C  C105  1  0.61142400  0.99692200  0.00343200  1
  C  C106  1  0.99595700  0.61477200  0.00181300  1
  C  C107  1  0.37248700  0.00472400  0.00189000  1
  C  C108  1  0.99011400  0.37581000  0.00392500  1
  C  C109  1  0.11116900  0.49492200  0.50341400  1
  C  C110  1  0.49587800  0.11263200  0.50163700  1
  C  C111  1  0.87222800  0.50278000  0.50207600  1
  C  C112  1  0.48991800  0.87367700  0.50394900  1
  C  C113  1  0.49038700  0.99991100  0.05856200  1
  C  C114  1  0.98996900  0.49789000  0.05870900  1
  C  C115  1  0.99037300  0.49816900  0.55864900  1
  C  C116  1  0.48993200  0.99600200  0.55863100  1
  C  C117  1  0.94302400  0.47025500  0.19398500  1
  C  C118  1  0.53027600  0.95468200  0.19315200  1
  C  C119  1  0.02312800  0.54146600  0.19354700  1
  C  C120  1  0.45887800  0.03457900  0.19430200  1
  C  C121  1  0.44321100  0.97039000  0.69401300  1
  C  C122  1  0.03049900  0.45413300  0.69335100  1
  C  C123  1  0.52336800  0.04153100  0.69332800  1
  C  C124  1  0.95915700  0.53409500  0.69427500  1
  C  C125  1  0.02450400  0.54187300  0.22303900  1
  C  C126  1  0.46047900  0.03502300  0.22379500  1
  C  C127  1  0.94257000  0.47058400  0.22350000  1
  C  C128  1  0.53200200  0.95333500  0.22265900  1
  C  C129  1  0.52474200  0.04240700  0.72282000  1
  C  C130  1  0.96080300  0.53496600  0.72376400  1
  C  C131  1  0.44275900  0.97118600  0.72352500  1
  C  C132  1  0.03226600  0.45321000  0.72286100  1
  C  C133  1  0.98393600  0.50622600  0.23806000  1
  C  C134  1  0.49709100  0.99397600  0.23801700  1
  C  C135  1  0.48415000  0.00702500  0.73796300  1
  C  C136  1  0.99741200  0.49410400  0.73810100  1
  C  C137  1  0.06627700  0.57755700  0.23760100  1
  C  C138  1  0.42552500  0.07608200  0.23915700  1
  C  C139  1  0.90158700  0.43492000  0.23855600  1
  C  C140  1  0.56867600  0.91191700  0.23691700  1
  C  C141  1  0.56653600  0.07829100  0.73726300  1
  C  C142  1  0.92590800  0.57628100  0.73900400  1
  C  C143  1  0.40175000  0.93578800  0.73870000  1
  C  C144  1  0.06893500  0.41197800  0.73723800  1
  C  C145  1  0.56792200  0.07807000  0.76665800  1
  C  C146  1  0.92795300  0.57660400  0.76838300  1
  C  C147  1  0.40241900  0.93640000  0.76810300  1
  C  C148  1  0.07020000  0.41162200  0.76664900  1
  C  C149  1  0.06765100  0.57689200  0.26699300  1
  C  C150  1  0.42751600  0.07596800  0.26853900  1
  C  C151  1  0.90223900  0.43509500  0.26796100  1
  C  C152  1  0.56989200  0.91112700  0.26632600  1
  C  C153  1  0.52714400  0.04240100  0.78182900  1
  C  C154  1  0.96448100  0.53524500  0.78274200  1
  C  C155  1  0.44448700  0.97196500  0.78254900  1
  C  C156  1  0.03522400  0.45286000  0.78191000  1
  C  C157  1  0.02687900  0.54098100  0.28204000  1
  C  C158  1  0.46405000  0.03442500  0.28277900  1
  C  C159  1  0.94426500  0.47048300  0.28252700  1
  C  C160  1  0.53485900  0.95211100  0.28170700  1
  C  C161  1  0.48518900  0.00721200  0.76739900  1
  C  C162  1  0.99907800  0.49409300  0.76753600  1
  C  C163  1  0.98496000  0.50597100  0.26749500  1
  C  C164  1  0.49870400  0.99352700  0.26745200  1
  C  C165  1  0.52841400  0.04121600  0.81132800  1
  C  C166  1  0.96659300  0.53473900  0.81222000  1
  C  C167  1  0.44611100  0.97256900  0.81204500  1
  C  C168  1  0.03559100  0.45274200  0.81144000  1
  C  C169  1  0.02809200  0.53941600  0.31153200  1
  C  C170  1  0.46612700  0.03349500  0.31225600  1
  C  C171  1  0.94582700  0.47071400  0.31202700  1
  C  C172  1  0.53519500  0.95156900  0.31123600  1
  C  C173  1  0.49819900  0.95101100  0.87074200  1
  C  C174  1  0.05427400  0.49925600  0.87194600  1
  C  C175  1  0.48381800  0.05906100  0.87181900  1
  C  C176  1  0.94637200  0.48373400  0.87094700  1
  C  C177  1  0.99759600  0.44885800  0.37081200  1
  C  C178  1  0.55391700  0.99736500  0.37185500  1
  C  C179  1  0.98317300  0.55690300  0.37193300  1
  C  C180  1  0.44602500  0.98177800  0.37086800  1
  C  C181  1  0.49925400  0.94973800  0.90014200  1
  C  C182  1  0.05313200  0.49871800  0.90140300  1
  C  C183  1  0.48570700  0.05800900  0.90122600  1
  C  C184  1  0.94500700  0.48396800  0.90031800  1
  C  C185  1  0.99862100  0.44753200  0.40021500  1
  C  C186  1  0.55282700  0.99658300  0.40131100  1
  C  C187  1  0.98504000  0.55579800  0.40133300  1
  C  C188  1  0.44471200  0.98176900  0.40024200  1
  C  C189  1  0.49308000  0.00325900  0.91554800  1
  C  C190  1  0.99834300  0.49158200  0.91573500  1
  C  C191  1  0.99245700  0.50103500  0.41563600  1
  C  C192  1  0.49806700  0.98931500  0.41565300  1
  C  C193  1  0.82698000  0.17685700  0.04221600  1
  C  C194  1  0.02051800  0.81472000  0.09761200  1
  C  C195  1  0.17294000  0.90457000  0.08690500  1
  C  C196  1  0.17080900  0.15575300  0.04051100  1
  C  C197  1  0.32688500  0.67443500  0.54245900  1
  C  C198  1  0.51976000  0.31229800  0.59756300  1
  C  C199  1  0.67250400  0.40170300  0.58679300  1
  C  C200  1  0.67071200  0.65362500  0.54040200  1
  N  N1  1  0.98305700  0.50547500  0.17947900  1
  N  N2  1  0.49380500  0.99489700  0.17943800  1
  N  N3  1  0.48326700  0.00534900  0.67938400  1
  N  N4  1  0.99404400  0.49418500  0.67952400  1
  N  N5  1  0.48807400  0.00661200  0.82597100  1
  N  N6  1  0.00146800  0.49343300  0.82611900  1
  N  N7  1  0.98771900  0.50463600  0.32606300  1
  N  N8  1  0.50102900  0.99202400  0.32603500  1
  O  O1  1  0.99795900  0.90424100  0.02616500  1
  O  O2  1  0.08444400  0.99951900  0.02722500  1
  O  O3  1  0.99223200  0.08623400  0.02856000  1
  O  O4  1  0.90238600  0.99383900  0.02755600  1
  O  O5  1  0.49768600  0.40204700  0.52613000  1
  O  O6  1  0.58413800  0.49735000  0.52728400  1
  O  O7  1  0.49189600  0.58403300  0.52862300  1
  O  O8  1  0.40208200  0.49161300  0.52752600  1
  O  O9  1  0.99275200  0.90507300  0.97694800  1
  O  O10  1  0.08100700  0.99906900  0.97799500  1
  O  O11  1  0.98398100  0.08670600  0.97933900  1
  O  O12  1  0.89924200  0.99013500  0.97826900  1
  O  O13  1  0.49258900  0.40299900  0.47691100  1
  O  O14  1  0.58080200  0.49703200  0.47805200  1
  O  O15  1  0.48373800  0.58462100  0.47939900  1
  O  O16  1  0.39903800  0.48802300  0.47823600  1
  O  O17  1  0.49689900  0.05374500  0.96073300  1
  O  O18  1  0.94231900  0.49641700  0.95920900  1
  O  O19  1  0.48923000  0.94853500  0.95956200  1
  O  O20  1  0.04752800  0.49058900  0.96145300  1
  O  O21  1  0.99648500  0.55160600  0.46077200  1
  O  O22  1  0.44210200  0.99415200  0.45914700  1
  O  O23  1  0.98878000  0.44639400  0.45969200  1
  O  O24  1  0.54730900  0.98827200  0.46136100  1
  O  O25  1  0.58538600  0.05084200  0.00466100  1
  O  O26  1  0.94233500  0.58833400  0.99999800  1
  O  O27  1  0.39846400  0.95078700  0.00112000  1
  O  O28  1  0.04378100  0.40229500  0.00553300  1
  O  O29  1  0.08514500  0.54885200  0.50462300  1
  O  O30  1  0.44223600  0.08622000  0.49985900  1
  O  O31  1  0.89819400  0.44883600  0.50133700  1
  O  O32  1  0.54360200  0.90013900  0.50551600  1
  O  O33  1  0.58069400  0.94558100  0.00188900  1
  O  O34  1  0.04756100  0.58460100  0.00407500  1
  O  O35  1  0.40309300  0.05621300  0.00320200  1
  O  O36  1  0.93856500  0.40611400  0.00191900  1
  O  O37  1  0.08042400  0.44358100  0.50193900  1
  O  O38  1  0.54746800  0.08243900  0.50390600  1
  O  O39  1  0.90284700  0.55427000  0.50331200  1
  O  O40  1  0.43838800  0.90400900  0.50193600  1
  O  O41  1  0.49390700  0.05316400  0.04579800  1
  O  O42  1  0.93858200  0.50056700  0.04424900  1
  O  O43  1  0.48754000  0.94788100  0.04464200  1
  O  O44  1  0.04374300  0.49386500  0.04651100  1
  O  O45  1  0.99382600  0.55136600  0.54583500  1
  O  O46  1  0.43852500  0.99863800  0.54418500  1
  O  O47  1  0.98746100  0.44607700  0.54477800  1
  O  O48  1  0.54368500  0.99187300  0.54641800  1
  O  O49  1  0.90468200  0.43330400  0.17968300  1
  O  O50  1  0.56620200  0.91677800  0.17804800  1
  O  O51  1  0.06127800  0.57780400  0.17879200  1
  O  O52  1  0.42135900  0.07298800  0.18036200  1
  O  O53  1  0.40484100  0.93323900  0.67984000  1
  O  O54  1  0.06637800  0.41599300  0.67835300  1
  O  O55  1  0.56154800  0.07760100  0.67844700  1
  O  O56  1  0.92164500  0.57233000  0.68022700  1
  O  O57  1  0.57107300  0.07340900  0.82547400  1
  O  O58  1  0.93452400  0.57628900  0.82712900  1
  O  O59  1  0.40494000  0.93999800  0.82694500  1
  O  O60  1  0.06871600  0.41081900  0.82559200  1
  O  O61  1  0.07070500  0.57145600  0.32578500  1
  O  O62  1  0.43401600  0.07481000  0.32728700  1
  O  O63  1  0.90463900  0.43794100  0.32682000  1
  O  O64  1  0.56834900  0.90947800  0.32526500  1
  O  O65  1  0.80767100  0.13438500  0.02187900  1
  O  O66  1  0.99255700  0.80213500  0.07147600  1
  O  O67  1  0.18473600  0.91336500  0.05790500  1
  O  O68  1  0.13031300  0.18076200  0.02065600  1
  O  O69  1  0.30752200  0.63215300  0.52204700  1
  O  O70  1  0.49197700  0.29981200  0.57137500  1
  O  O71  1  0.68438600  0.41076700  0.55781900  1
  O  O72  1  0.63006400  0.67854800  0.52059000  1
