# generated using pymatgen
data_ZnH7C15NClO4
_symmetry_space_group_name_H-M   'P 1'
_cell_length_a   9.29115700
_cell_length_b   8.47748900
_cell_length_c   15.06872800
_cell_angle_alpha   90.00000000
_cell_angle_beta   98.91099200
_cell_angle_gamma   90.00000000
_symmetry_Int_Tables_number   1
_chemical_formula_structural   ZnH7C15NClO4
_chemical_formula_sum   'Zn2 H14 C30 N2 Cl2 O8'
_cell_volume   1172.57295842
_cell_formula_units_Z   2
loop_
 _symmetry_equiv_pos_site_id
 _symmetry_equiv_pos_as_xyz
  1  'x, y, z'
loop_
 _atom_site_type_symbol
 _atom_site_label
 _atom_site_symmetry_multiplicity
 _atom_site_fract_x
 _atom_site_fract_y
 _atom_site_fract_z
 _atom_site_occupancy
  Zn  Zn1  1  0.15911100  0.50075700  0.49587200  1
  Zn  Zn2  1  0.83802600  0.50144800  0.50053200  1
  H  H1  1  0.91851700  0.00675000  0.43049800  1
  H  H2  1  0.07171800  0.99253800  0.56470100  1
  H  H3  1  0.98426600  0.75089800  0.19779200  1
  H  H4  1  0.01641000  0.74979900  0.80350600  1
  H  H5  1  0.82581400  0.18139100  0.05558900  1
  H  H6  1  0.16165600  0.81529100  0.93946300  1
  H  H7  1  0.84144000  0.17961800  0.89613800  1
  H  H8  1  0.14316800  0.81457300  0.09947300  1
  H  H9  1  0.36097400  0.26224700  0.47016600  1
  H  H10  1  0.62598700  0.26276200  0.47473000  1
  H  H11  1  0.24217500  0.80716600  0.49949500  1
  H  H12  1  0.75739900  0.80794300  0.51057000  1
  H  H13  1  0.37579100  0.03103700  0.54529300  1
  H  H14  1  0.64034000  0.03138000  0.55072100  1
  C  C1  1  0.94922000  0.14570500  0.31758400  1
  C  C2  1  0.04534900  0.13814100  0.67579600  1
  C  C3  1  0.97044500  0.14509100  0.22916400  1
  C  C4  1  0.02685000  0.14233700  0.76488600  1
  C  C5  1  0.97555300  0.00300500  0.18439600  1
  C  C6  1  0.02178500  0.00218000  0.81214100  1
  C  C7  1  0.97275500  0.86221800  0.23088100  1
  C  C8  1  0.02925100  0.85917500  0.76872600  1
  C  C9  1  0.95008200  0.86372300  0.31929000  1
  C  C10  1  0.04875900  0.85605900  0.67996400  1
  C  C11  1  0.93216400  0.00542000  0.36071300  1
  C  C12  1  0.06097400  0.99543300  0.63491900  1
  C  C13  1  0.90402500  0.10495100  0.03111000  1
  C  C14  1  0.08787800  0.89625100  0.96479700  1
  C  C15  1  0.91353000  0.10457900  0.94074200  1
  C  C16  1  0.07746400  0.89578600  0.05510600  1
  C  C17  1  0.00804800  0.00250700  0.90757900  1
  C  C18  1  0.98747700  0.00223500  0.08878500  1
  C  C19  1  0.96483100  0.28948700  0.37144700  1
  C  C20  1  0.03084200  0.28025700  0.61995500  1
  C  C21  1  0.96373300  0.72083600  0.37443700  1
  C  C22  1  0.03483600  0.71055800  0.62749200  1
  C  C23  1  0.35589600  0.78762700  0.51345800  1
  C  C24  1  0.64823800  0.78796100  0.51955300  1
  C  C25  1  0.43266900  0.92313600  0.53541500  1
  C  C26  1  0.57925600  0.92333200  0.53840000  1
  C  C27  1  0.57590600  0.64283000  0.50999200  1
  C  C28  1  0.42518600  0.64268900  0.50669000  1
  C  C29  1  0.42083200  0.37092400  0.48307100  1
  C  C30  1  0.57092800  0.37113200  0.48613900  1
  N  N1  1  0.34848900  0.50519000  0.49460500  1
  N  N2  1  0.64857300  0.50531800  0.50149500  1
  Cl  Cl1  1  0.00165100  0.32374600  0.17682300  1
  Cl  Cl2  1  0.02265700  0.32586400  0.81797500  1
  O  O1  1  0.84917800  0.33997900  0.40398200  1
  O  O2  1  0.14733300  0.33157500  0.58821100  1
  O  O3  1  0.09865700  0.34057800  0.39876300  1
  O  O4  1  0.89758700  0.33456100  0.59393200  1
  O  O5  1  0.09425600  0.66619800  0.40169900  1
  O  O6  1  0.90370700  0.65861600  0.59922600  1
  O  O7  1  0.85032300  0.67055500  0.40744200  1
  O  O8  1  0.14781200  0.66056800  0.59406900  1
