# generated using pymatgen
data_CuH15C13(NO2)2
_symmetry_space_group_name_H-M   'P 1'
_cell_length_a   15.86463900
_cell_length_b   11.04038300
_cell_length_c   9.54580800
_cell_angle_alpha   90.02053600
_cell_angle_beta   89.99734000
_cell_angle_gamma   89.99826200
_symmetry_Int_Tables_number   1
_chemical_formula_structural   CuH15C13(NO2)2
_chemical_formula_sum   'Cu2 H30 C26 N4 O8'
_cell_volume   1671.96430049
_cell_formula_units_Z   2
loop_
 _symmetry_equiv_pos_site_id
 _symmetry_equiv_pos_as_xyz
  1  'x, y, z'
loop_
 _atom_site_type_symbol
 _atom_site_label
 _atom_site_symmetry_multiplicity
 _atom_site_fract_x
 _atom_site_fract_y
 _atom_site_fract_z
 _atom_site_occupancy
  Cu  Cu1  1  0.49714900  0.49427700  0.64084600  1
  Cu  Cu2  1  0.49887700  0.49318600  0.36045100  1
  H  H1  1  0.93660300  0.33111600  0.58464800  1
  H  H2  1  0.07457200  0.35082000  0.64394800  1
  H  H3  1  0.08087900  0.46380300  0.28014900  1
  H  H4  1  0.05374800  0.33447800  0.38493700  1
  H  H5  1  0.91619000  0.37151600  0.34010900  1
  H  H6  1  0.08883800  0.67996400  0.56937000  1
  H  H7  1  0.06327200  0.66795100  0.38689100  1
  H  H8  1  0.05940300  0.49894900  0.72085000  1
  H  H9  1  0.92066800  0.44409400  0.71590900  1
  H  H10  1  0.92751100  0.70262800  0.44471100  1
  H  H11  1  0.49729400  0.88344600  0.28632500  1
  H  H12  1  0.49237400  0.89844600  0.60696400  1
  H  H13  1  0.49151300  0.10672700  0.28906900  1
  H  H14  1  0.50612600  0.08809900  0.60900000  1
  H  H15  1  0.42681500  0.33951400  0.87224200  1
  H  H16  1  0.51127000  0.57531800  0.89985300  1
  H  H17  1  0.40192300  0.37319700  0.13191000  1
  H  H18  1  0.55350900  0.52397000  0.10092200  1
  H  H19  1  0.83056100  0.64733300  0.29464700  1
  H  H20  1  0.80393400  0.50358900  0.21082200  1
  H  H21  1  0.84501100  0.63164300  0.11446100  1
  H  H22  1  0.98139200  0.38455000  0.12298800  1
  H  H23  1  0.01585000  0.53196800  0.06176400  1
  H  H24  1  0.91087800  0.47747100  0.02691600  1
  H  H25  1  0.99896300  0.84638200  0.57187500  1
  H  H26  1  0.02783800  0.81271000  0.75134800  1
  H  H27  1  0.92672800  0.87759400  0.70862800  1
  H  H28  1  0.83504000  0.59933700  0.74464800  1
  H  H29  1  0.81270300  0.73191800  0.63580000  1
  H  H30  1  0.85214000  0.74315200  0.81322400  1
  C  C1  1  0.49964300  0.26117800  0.50280600  1
  C  C2  1  0.33636300  0.49082100  0.49694800  1
  C  C3  1  0.49590700  0.72641900  0.49885300  1
  C  C4  1  0.65977100  0.49648300  0.50437900  1
  C  C5  1  0.04496900  0.44091000  0.62907900  1
  C  C6  1  0.04365700  0.43322700  0.37154500  1
  C  C7  1  0.94914600  0.45897100  0.35691800  1
  C  C8  1  0.75015900  0.50039900  0.50498600  1
  C  C9  1  0.07789400  0.49946600  0.49741900  1
  C  C10  1  0.95094300  0.42619100  0.61373800  1
  C  C11  1  0.91851000  0.51071500  0.49921600  1
  C  C12  1  0.95503500  0.63965800  0.52206500  1
  C  C13  1  0.04983900  0.63035600  0.49229400  1
  C  C14  1  0.82608500  0.50499000  0.50321300  1
  C  C15  1  0.17001900  0.49456200  0.49636900  1
  C  C16  1  0.24594200  0.49205200  0.49609200  1
  C  C17  1  0.49616800  0.92731800  0.38786600  1
  C  C18  1  0.49468000  0.85904100  0.50363900  1
  C  C19  1  0.49560700  0.06158100  0.38958400  1
  C  C20  1  0.50067200  0.12846900  0.50652800  1
  C  C21  1  0.45681600  0.41548000  0.92402800  1
  C  C22  1  0.45014700  0.42529200  0.07870600  1
  C  C23  1  0.84891300  0.58049300  0.21432600  1
  C  C24  1  0.96219000  0.47992500  0.10564400  1
  C  C25  1  0.97563100  0.81244900  0.67404800  1
  C  C26  1  0.85581300  0.69091900  0.71406200  1
  N  N1  1  0.49500000  0.49612800  0.85040000  1
  N  N2  1  0.50087000  0.49144400  0.15089600  1
  N  N3  1  0.93401500  0.53637300  0.23460800  1
  N  N4  1  0.94151300  0.69097800  0.66192900  1
  O  O1  1  0.50187500  0.31820300  0.62331300  1
  O  O2  1  0.49678200  0.31720400  0.38159000  1
  O  O3  1  0.37489200  0.48729500  0.61839000  1
  O  O4  1  0.37617000  0.49580100  0.37665800  1
  O  O5  1  0.49829700  0.66998700  0.61884400  1
  O  O6  1  0.49453100  0.66940300  0.37852700  1
  O  O7  1  0.61983300  0.49244100  0.62405800  1
  O  O8  1  0.62109100  0.49907700  0.38361900  1
