# Generated by REPEAT Assigner based on pymatgen
data_DB0-m3_o46_o23_f0_fsc.sym.99_sqe
_audit_creation_date              2022-05-24
_audit_creation_method            REPEAT_Assigner
_cell_length_a                    8.542234
_cell_length_b                    8.758711
_cell_length_c                    14.191919
_cell_angle_alpha                 90.380330
_cell_angle_beta                  92.909819
_cell_angle_gamma                 82.903903
_cell_volume                      1052.332799
_symmetry_space_group_name_H-M    P1
_symmetry_Int_Tables_number       1
loop_
    _symmetry_equiv_pos_site_id
    _symmetry_equiv_pos_as_xyz
    1  x,y,z
loop_
    _atom_site_type_symbol
    _atom_site_label
    _atom_site_fract_x
    _atom_site_fract_y
    _atom_site_fract_z
    _atom_type_partial_charge
    C   C1   0.106030  0.800365  0.976357  -0.019690
    C   C2   0.975940  0.723362  0.964684  -0.186259
    H   H1   0.991765  0.601200  0.951963  0.112677
    C   C3   0.827221  0.796880  0.978392  -0.012028
    C   C4   0.803915  0.952334  0.995581  -0.387303
    H   H2   0.686101  0.007591  0.006823  0.148160
    C   C5   0.931729  0.034524  0.000485  0.289549
    C   C6   0.083892  0.957700  0.992998  0.039407
    H   H3   0.329512  0.984648  0.986657  0.113984
    C   C7   0.211703  0.039896  0.997900  -0.239991
    C   C8   0.188399  0.195349  0.015103  -0.035009
    H   H4   0.023848  0.391023  0.041548  0.144857
    C   C9   0.039682  0.268859  0.028817  -0.160121
    C   C10  0.909598  0.191854  0.017138  -0.160501
    O   O1   0.314163  0.637457  0.905505  -0.590660
    O   O2   0.328039  0.674288  0.066658  -0.719002
    C   C11  0.261867  0.706779  0.982270  0.777247
    O   O3   0.362646  0.356488  0.085822  -0.746713
    O   O4   0.360575  0.319245  0.924567  -0.727357
    C   C12  0.315988  0.288898  0.008806  0.874501
    O   O5   0.701481  0.354762  0.087985  -0.716678
    O   O6   0.687597  0.317927  0.926852  -0.523462
    C   C13  0.753766  0.285433  0.011231  0.741013
    O   O7   0.652995  0.635727  0.907683  -0.790789
    O   O8   0.655060  0.672979  0.068931  -0.759752
    C   C14  0.699637  0.703333  0.984694  0.976184
    Zn  Zn1  0.513318  0.515451  0.101255  1.158740
    Zn  Zn2  0.502328  0.476765  0.892246  0.940876
    C   C15  0.618796  0.614489  0.456687  -0.174627
    C   C16  0.568558  0.342616  0.436854  -0.146952
    C   C17  0.573371  0.331033  0.543895  0.006660
    H   H5   0.728432  0.574249  0.596078  0.032497
    H   H6   0.742598  0.580313  0.437744  0.047329
    H   H7   0.493303  0.263714  0.401113  0.018069
    H   H8   0.690143  0.311406  0.413233  0.050995
    H   H9   0.700233  0.313375  0.565889  -0.005425
    N   N1   0.496153  0.460303  0.768847  0.086896
    C   C18  0.512461  0.507968  0.408304  0.585677
    C   C19  0.608473  0.604626  0.562720  -0.070212
    C   C20  0.503861  0.483371  0.585191  0.583791
    C   C21  0.338956  0.534686  0.543190  -0.039323
    C   C22  0.344332  0.550214  0.437258  -0.132234
    C   C23  0.498770  0.468539  0.687611  -0.279648
    C   C24  0.517265  0.523313  0.305896  -0.179825
    N   N2   0.519536  0.531891  0.224657  -0.040163
    H   H10  0.302676  0.670797  0.416457  0.031899
    H   H11  0.266274  0.473166  0.401564  0.032620
    H   H12  0.295267  0.648474  0.572635  0.004096
    H   H13  0.581087  0.734562  0.433310  0.047823
    H   H14  0.557606  0.717815  0.590232  -0.005963
    H   H15  0.255952  0.453367  0.561368  0.015210
    C   C25  0.494823  0.200874  0.581644  0.080028
    C   C26  0.559150  0.123508  0.662613  -0.116089
    Cl  Cl1  0.733958  0.168650  0.720668  -0.046106
    C   C27  0.482188  0.012370  0.702352  0.042913
    C   C28  0.340447  0.977672  0.663036  0.116861
    Cl  Cl2  0.239844  0.842409  0.717291  -0.102930
    C   C29  0.275824  0.053082  0.582854  -0.122617
    C   C30  0.351836  0.164410  0.542501  -0.197600
    H   H16  0.531935  0.954524  0.766055  0.094759
    H   H17  0.163506  0.027195  0.552447  0.090852
    H   H18  0.294479  0.224502  0.481650  0.148859
