# generated using pymatgen
data_FeH9C21(NO3)3
_symmetry_space_group_name_H-M   'P 1'
_cell_length_a   12.17833700
_cell_length_b   16.67558500
_cell_length_c   13.27524900
_cell_angle_alpha   106.31246300
_cell_angle_beta   91.54305900
_cell_angle_gamma   107.57372900
_symmetry_Int_Tables_number   1
_chemical_formula_structural   FeH9C21(NO3)3
_chemical_formula_sum   'Fe2 H18 C42 N6 O18'
_cell_volume   2448.20279222
_cell_formula_units_Z   2
loop_
 _symmetry_equiv_pos_site_id
 _symmetry_equiv_pos_as_xyz
  1  'x, y, z'
loop_
 _atom_site_type_symbol
 _atom_site_label
 _atom_site_symmetry_multiplicity
 _atom_site_fract_x
 _atom_site_fract_y
 _atom_site_fract_z
 _atom_site_occupancy
  Fe  Fe1  1  0.51160100  0.01582000  0.28357700  1
  Fe  Fe2  1  0.48898300  0.98119100  0.71749400  1
  H  H1  1  0.06455100  0.94244800  0.73554800  1
  H  H2  1  0.87742600  0.95755100  0.73839700  1
  H  H3  1  0.13451300  0.05434000  0.26264200  1
  H  H4  1  0.36394800  0.98008300  0.00101300  1
  H  H5  1  0.63698000  0.01647300  0.99885100  1
  H  H6  1  0.48743000  0.27160200  0.43455900  1
  H  H7  1  0.50148400  0.30934900  0.81463700  1
  H  H8  1  0.50029600  0.56392100  0.25477600  1
  H  H9  1  0.50221800  0.68507300  0.18787900  1
  H  H10  1  0.51321100  0.72725900  0.56900300  1
  H  H11  1  0.93056100  0.14714000  0.30187400  1
  H  H12  1  0.93235000  0.17489400  0.48130400  1
  H  H13  1  0.03253700  0.13173200  0.53412400  1
  H  H14  1  0.87812900  0.07492300  0.51812200  1
  H  H15  1  0.46804600  0.45079900  0.83319800  1
  H  H16  1  0.58327000  0.58408800  0.94317700  1
  H  H17  1  0.70454200  0.64206400  0.88757500  1
  H  H18  1  0.72209000  0.56723400  0.95757100  1
  C  C1  1  0.27578100  0.98128500  0.99803100  1
  C  C2  1  0.21672900  0.97543600  0.90490000  1
  C  C3  1  0.10359600  0.97874600  0.90501300  1
  C  C4  1  0.03561600  0.96260200  0.81177100  1
  C  C5  1  0.92605100  0.96922500  0.81322800  1
  C  C6  1  0.23105300  0.99986000  0.09208200  1
  C  C7  1  0.12239400  0.01035600  0.09412300  1
  C  C8  1  0.05692800  0.99690400  0.00031100  1
  C  C9  1  0.94584600  0.00373700  0.00217300  1
  C  C10  1  0.88097300  0.99074500  0.90775600  1
  C  C11  1  0.77206500  0.00044900  0.90886300  1
  C  C12  1  0.07995200  0.03586200  0.18906700  1
  C  C13  1  0.96992800  0.04299600  0.19231300  1
  C  C14  1  0.89948700  0.02293600  0.09785600  1
  C  C15  1  0.78460900  0.02357500  0.09586000  1
  C  C16  1  0.72610100  0.01746100  0.00236000  1
  C  C17  1  0.71336500  0.01819200  0.18320100  1
  C  C18  1  0.50506200  0.84790900  0.29410300  1
  C  C19  1  0.31036200  0.01980900  0.18708700  1
  C  C20  1  0.47729900  0.12768100  0.47043400  1
  C  C21  1  0.52049900  0.86935200  0.53032900  1
  C  C22  1  0.69329600  0.97954900  0.81311200  1
  C  C23  1  0.49025600  0.14644100  0.70568900  1
  C  C24  1  0.28370300  0.97445000  0.81379800  1
  C  C25  1  0.48514700  0.20933300  0.55305000  1
  C  C26  1  0.49211900  0.28122900  0.51863500  1
  C  C27  1  0.50039900  0.36248600  0.58785000  1
  C  C28  1  0.50469700  0.37175500  0.69561500  1
  C  C29  1  0.49724900  0.29981300  0.73053100  1
  C  C30  1  0.48861500  0.21818400  0.66104000  1
  C  C31  1  0.50250800  0.56426200  0.46050600  1
  C  C32  1  0.50196800  0.43490700  0.54361400  1
  C  C33  1  0.50397700  0.62641000  0.31013500  1
  C  C34  1  0.50529400  0.69589800  0.27219600  1
  C  C35  1  0.50986600  0.77742900  0.34015600  1
  C  C36  1  0.51425400  0.78775700  0.44866900  1
  C  C37  1  0.50952800  0.71719000  0.48486400  1
  C  C38  1  0.50502100  0.63663300  0.41704300  1
  C  C39  1  0.95665200  0.05927100  0.37526500  1
  C  C40  1  0.94942600  0.11377800  0.48373100  1
  C  C41  1  0.62898100  0.50537100  0.80270800  1
  C  C42  1  0.66130900  0.57908900  0.90409700  1
  N  N1  1  0.48846000  0.51005500  0.60391700  1
  N  N2  1  0.48917400  0.57384500  0.56304800  1
  N  N3  1  0.51461400  0.48879600  0.39949400  1
  N  N4  1  0.51428400  0.42507400  0.44063700  1
  N  N5  1  0.93968700  0.08594000  0.29047000  1
  N  N6  1  0.51739100  0.45345700  0.77177000  1
  O  O1  1  0.62501400  0.04813600  0.18597800  1
  O  O2  1  0.49237200  0.83149400  0.19106700  1
  O  O3  1  0.72122500  0.96790000  0.24144900  1
  O  O4  1  0.51396900  0.92708700  0.35554000  1
  O  O5  1  0.35508300  0.95943300  0.19720100  1
  O  O6  1  0.36384500  0.10294000  0.23967400  1
  O  O7  1  0.54673400  0.13198800  0.39679300  1
  O  O8  1  0.38959500  0.05543900  0.45850800  1
  O  O9  1  0.45368700  0.86417300  0.60574500  1
  O  O10  1  0.60691500  0.94217600  0.54136200  1
  O  O11  1  0.64594100  0.03860300  0.80322200  1
  O  O12  1  0.64279200  0.89624100  0.75948400  1
  O  O13  1  0.26857500  0.01535900  0.74600700  1
  O  O14  1  0.48574300  0.06860800  0.64374000  1
  O  O15  1  0.37641300  0.95005300  0.81630200  1
  O  O16  1  0.49822800  0.16085500  0.80844200  1
  O  O17  1  0.97162800  0.98825200  0.36341700  1
  O  O18  1  0.70426600  0.49221200  0.74785700  1
