# generated using pymatgen
data_ZnH18C25N3O4
_symmetry_space_group_name_H-M   'P 1'
_cell_length_a   16.28084400
_cell_length_b   17.49968600
_cell_length_c   19.32701100
_cell_angle_alpha   89.99630700
_cell_angle_beta   92.91289000
_cell_angle_gamma   89.07685500
_symmetry_Int_Tables_number   1
_chemical_formula_structural   ZnH18C25N3O4
_chemical_formula_sum   'Zn2 H36 C50 N6 O8'
_cell_volume   5498.62154586
_cell_formula_units_Z   2
loop_
 _symmetry_equiv_pos_site_id
 _symmetry_equiv_pos_as_xyz
  1  'x, y, z'
loop_
 _atom_site_type_symbol
 _atom_site_label
 _atom_site_symmetry_multiplicity
 _atom_site_fract_x
 _atom_site_fract_y
 _atom_site_fract_z
 _atom_site_occupancy
  Zn  Zn1  1  0.40687900  0.49440500  0.49640500  1
  Zn  Zn2  1  0.59297600  0.50543300  0.50357000  1
  H  H1  1  0.37097600  0.48404900  0.71461100  1
  H  H2  1  0.62888700  0.51575800  0.28537000  1
  H  H3  1  0.37014800  0.48592200  0.83940200  1
  H  H4  1  0.62972100  0.51386800  0.16057900  1
  H  H5  1  0.63271200  0.50261700  0.85151600  1
  H  H6  1  0.36715600  0.49719000  0.14845800  1
  H  H7  1  0.63333300  0.50070100  0.72653100  1
  H  H8  1  0.36652800  0.49912400  0.27344200  1
  H  H9  1  0.60299300  0.74576600  0.47376900  1
  H  H10  1  0.39730200  0.25411100  0.52714700  1
  H  H11  1  0.56766200  0.99811300  0.44796700  1
  H  H12  1  0.43227200  0.00168100  0.55229800  1
  H  H13  1  0.36120100  0.88630800  0.55035400  1
  H  H14  1  0.63832100  0.11364200  0.44892600  1
  H  H15  1  0.39674600  0.11774400  0.52124200  1
  H  H16  1  0.60355000  0.88215100  0.47981400  1
  H  H17  1  0.72488900  0.43744700  0.42255100  1
  H  H18  1  0.27496600  0.56239900  0.57742400  1
  H  H19  1  0.27918100  0.41136200  0.40865200  1
  H  H20  1  0.72067200  0.58848900  0.59132200  1
  H  H21  1  0.00048700  0.42539900  0.45835000  1
  H  H22  1  0.99936600  0.57447200  0.54161000  1
  H  H23  1  0.87090700  0.59605900  0.59507300  1
  H  H24  1  0.12894500  0.40380500  0.40489200  1
  H  H25  1  0.12675800  0.55663500  0.57770000  1
  H  H26  1  0.87309500  0.44323300  0.42226200  1
  H  H27  1  0.69281500  0.29600700  0.48162500  1
  H  H28  1  0.63398500  0.31372200  0.40094200  1
  H  H29  1  0.69207800  0.19124900  0.35151200  1
  H  H30  1  0.81759900  0.23776900  0.46663600  1
  H  H31  1  0.83352100  0.17410500  0.39054500  1
  H  H32  1  0.36455600  0.68637900  0.59818300  1
  H  H33  1  0.30698900  0.70377700  0.51682900  1
  H  H34  1  0.30534100  0.80887000  0.64659900  1
  H  H35  1  0.18189500  0.76208600  0.52999200  1
  H  H36  1  0.16452400  0.82589400  0.60571200  1
  C  C1  1  0.48776200  0.64954700  0.50655300  1
  C  C2  1  0.51208500  0.35030400  0.49341600  1
  C  C3  1  0.50222100  0.49334500  0.63547200  1
  C  C4  1  0.49763600  0.50648500  0.36450300  1
  C  C5  1  0.42894400  0.48783400  0.74410900  1
  C  C6  1  0.57092000  0.51197400  0.25587000  1
  C  C7  1  0.42849300  0.48898500  0.81539700  1
  C  C8  1  0.57137400  0.51081200  0.18458300  1
  C  C9  1  0.50135600  0.49455600  0.85491700  1
  C  C10  1  0.49851300  0.50524200  0.14506100  1
  C  C11  1  0.57474800  0.49828600  0.82211800  1
  C  C12  1  0.42511800  0.50152100  0.17785800  1
  C  C13  1  0.57516700  0.49711400  0.75078600  1
  C  C14  1  0.42469500  0.50270300  0.24918900  1
  C  C15  1  0.50223400  0.49216500  0.71134400  1
  C  C16  1  0.49762600  0.50765400  0.28863200  1
  C  C17  1  0.49921300  0.50267000  0.06916100  1
  C  C18  1  0.50065800  0.49712200  0.93081700  1
  C  C19  1  0.48170000  0.73379700  0.51056200  1
  C  C20  1  0.51813000  0.26607200  0.48943400  1
  C  C21  1  0.54884900  0.77481200  0.49135700  1
  C  C22  1  0.45124400  0.22505400  0.50917900  1
  C  C23  1  0.54859500  0.85335700  0.49351300  1
  C  C24  1  0.45153000  0.14651100  0.50710100  1
  C  C25  1  0.48012500  0.89301300  0.51424900  1
  C  C26  1  0.51980500  0.10685500  0.48593100  1
  C  C27  1  0.41338400  0.85289600  0.53490400  1
  C  C28  1  0.58626300  0.14700300  0.46471900  1
  C  C29  1  0.41323500  0.77332900  0.53447000  1
  C  C30  1  0.58630800  0.22657100  0.46501500  1
  C  C31  1  0.47630000  0.97717700  0.51828800  1
  C  C32  1  0.52368000  0.02267200  0.48199500  1
  C  C33  1  0.75762300  0.47180200  0.46098800  1
  C  C34  1  0.24223100  0.52805000  0.53898400  1
  C  C35  1  0.84218900  0.47459000  0.46160800  1
  C  C36  1  0.15766500  0.52527400  0.53835700  1
  C  C37  1  0.88443500  0.51877700  0.51053400  1
  C  C38  1  0.11541800  0.48109000  0.48942900  1
  C  C39  1  0.83978200  0.56039000  0.55670700  1
  C  C40  1  0.16007200  0.43947200  0.44325900  1
  C  C41  1  0.75520600  0.55610400  0.55470500  1
  C  C42  1  0.24464800  0.44374900  0.44526600  1
  C  C43  1  0.97468900  0.52552100  0.51411100  1
  C  C44  1  0.02516400  0.47435000  0.48584800  1
  C  C45  1  0.65778200  0.26900300  0.43771100  1
  C  C46  1  0.71467200  0.21927500  0.39859700  1
  C  C47  1  0.79321600  0.21001100  0.42001900  1
  C  C48  1  0.34129800  0.73094800  0.56104600  1
  C  C49  1  0.28362300  0.78074300  0.59929900  1
  C  C50  1  0.20542000  0.78994000  0.57684900  1
  N  N1  1  0.57152300  0.50315300  0.96920500  1
  N  N2  1  0.42834900  0.49663900  0.03077300  1
  N  N3  1  0.57080600  0.50585100  0.03752200  1
  N  N4  1  0.42906500  0.49394000  0.96245600  1
  N  N5  1  0.71558400  0.51189600  0.50733600  1
  N  N6  1  0.28427100  0.48795100  0.49263900  1
  O  O1  1  0.42057700  0.60914800  0.50127600  1
  O  O2  1  0.57929100  0.39068500  0.49869600  1
  O  O3  1  0.56148800  0.61784600  0.50752800  1
  O  O4  1  0.43835800  0.38199200  0.49245300  1
  O  O5  1  0.43145700  0.49043100  0.60015700  1
  O  O6  1  0.56839900  0.50940700  0.39981900  1
  O  O7  1  0.57260200  0.49915200  0.60594100  1
  O  O8  1  0.42725500  0.50067700  0.39403400  1
