data_DB0-m3_o25_o115_f0_fsc.sym.8_repeat
_audit_creation_date              2024-02-23
_audit_creation_method            'Materials Studio'
_symmetry_space_group_name_H-M    'P1'
_symmetry_Int_Tables_number       1
_symmetry_cell_setting            triclinic
loop_
_symmetry_equiv_pos_as_xyz
  x,y,z
_cell_length_a                    14.2439
_cell_length_b                    16.5196
_cell_length_c                    16.6827
_cell_angle_alpha                 90.0676
_cell_angle_beta                  98.8123
_cell_angle_gamma                 90.6971
loop_
_atom_site_label
_atom_site_type_symbol
_atom_site_fract_x
_atom_site_fract_y
_atom_site_fract_z
_atom_site_U_iso_or_equiv
_atom_site_adp_type
_atom_site_occupancy
H1     H     0.07357   0.92115   0.72270   0.00000  Uiso   1.00
H2     H     0.92643   0.07885   0.27730   0.00000  Uiso   1.00
C1     C     0.99847   0.25682   0.95849   0.00000  Uiso   1.00
C2     C     0.00153   0.74318   0.04151   0.00000  Uiso   1.00
C3     C     0.99820   0.25684   0.04082   0.00000  Uiso   1.00
C4     C     0.00180   0.74316   0.95918   0.00000  Uiso   1.00
C5     C     0.99802   0.17661   0.06418   0.00000  Uiso   1.00
C6     C     0.00198   0.82339   0.93582   0.00000  Uiso   1.00
N1     N     0.99917   0.12773   0.99966   0.00000  Uiso   1.00
N2     N     0.00083   0.87227   0.00034   0.00000  Uiso   1.00
C7     C     0.99972   0.17660   0.93515   0.00000  Uiso   1.00
C8     C     0.00028   0.82340   0.06485   0.00000  Uiso   1.00
C9     C     0.99423   0.15142   0.13987   0.00000  Uiso   1.00
C10    C     0.00577   0.84858   0.86013   0.00000  Uiso   1.00
C11    C     0.98519   0.06556   0.16266   0.00000  Uiso   1.00
C12    C     0.01481   0.93444   0.83734   0.00000  Uiso   1.00
C13    C     0.95080   0.04113   0.23189   0.00000  Uiso   1.00
C14    C     0.04920   0.95887   0.76811   0.00000  Uiso   1.00
C15    C     0.95147   0.95791   0.23209   0.00000  Uiso   1.00
C16    C     0.04853   0.04209   0.76791   0.00000  Uiso   1.00
C17    C     0.98630   0.93426   0.16303   0.00000  Uiso   1.00
C18    C     0.01370   0.06574   0.83697   0.00000  Uiso   1.00
N3     N     0.00841   0.00017   0.12154   0.00000  Uiso   1.00
N4     N     0.99159   0.99983   0.87846   0.00000  Uiso   1.00
C19    C     0.99630   0.84858   0.14055   0.00000  Uiso   1.00
C20    C     0.00370   0.15142   0.85945   0.00000  Uiso   1.00
H3     H     0.99870   0.31030   0.92123   0.00000  Uiso   1.00
H4     H     0.00130   0.68970   0.07876   0.00000  Uiso   1.00
H5     H     0.99706   0.31034   0.07802   0.00000  Uiso   1.00
H6     H     0.00293   0.68966   0.92198   0.00000  Uiso   1.00
H7     H     0.92763   0.91957   0.27762   0.00000  Uiso   1.00
H8     H     0.07237   0.08043   0.72238   0.00000  Uiso   1.00
H9     H     0.04274   0.00066   0.07090   0.00000  Uiso   1.00
H10    H     0.95726   0.99934   0.92910   0.00000  Uiso   1.00
C21    C     0.09202   0.75635   0.78105   0.00000  Uiso   1.00
C22    C     0.90798   0.24365   0.21895   0.00000  Uiso   1.00
H11    H     0.15825   0.77695   0.81595   0.00000  Uiso   1.00
H12    H     0.84175   0.22305   0.18405   0.00000  Uiso   1.00
C23    C     0.09244   0.69900   0.72090   0.00000  Uiso   1.00
C24    C     0.90756   0.30100   0.27910   0.00000  Uiso   1.00
C25    C     0.00774   0.67214   0.67647   0.00000  Uiso   1.00
C26    C     0.99226   0.32786   0.32353   0.00000  Uiso   1.00
C27    C     0.92295   0.70361   0.69254   0.00000  Uiso   1.00
C28    C     0.07705   0.29639   0.30746   0.00000  Uiso   1.00
H13    H     0.85573   0.68397   0.65871   0.00000  Uiso   1.00
H14    H     0.14428   0.31603   0.34129   0.00000  Uiso   1.00
C29    C     0.92291   0.76135   0.75212   0.00000  Uiso   1.00
C30    C     0.07709   0.23865   0.24788   0.00000  Uiso   1.00
H15    H     0.85648   0.78583   0.76429   0.00000  Uiso   1.00
H16    H     0.14352   0.21417   0.23571   0.00000  Uiso   1.00
C31    C     0.00721   0.78764   0.79658   0.00000  Uiso   1.00
C32    C     0.99279   0.21236   0.20342   0.00000  Uiso   1.00
C33    C     0.08960   0.24811   0.78297   0.00000  Uiso   1.00
C34    C     0.91040   0.75189   0.21703   0.00000  Uiso   1.00
H17    H     0.15542   0.23134   0.82011   0.00000  Uiso   1.00
H18    H     0.84458   0.76866   0.17989   0.00000  Uiso   1.00
C35    C     0.09021   0.30529   0.72277   0.00000  Uiso   1.00
C36    C     0.90980   0.69471   0.27723   0.00000  Uiso   1.00
H19    H     0.15701   0.33285   0.71388   0.00000  Uiso   1.00
H20    H     0.84299   0.66715   0.28612   0.00000  Uiso   1.00
C37    C     0.00605   0.32736   0.67544   0.00000  Uiso   1.00
C38    C     0.99395   0.67264   0.32456   0.00000  Uiso   1.00
C39    C     0.92167   0.29109   0.68859   0.00000  Uiso   1.00
C40    C     0.07833   0.70891   0.31141   0.00000  Uiso   1.00
H21    H     0.85490   0.30687   0.65242   0.00000  Uiso   1.00
H22    H     0.14510   0.69313   0.34758   0.00000  Uiso   1.00
C41    C     0.92149   0.23353   0.74825   0.00000  Uiso   1.00
C42    C     0.07851   0.76647   0.25174   0.00000  Uiso   1.00
H23    H     0.85536   0.20536   0.75814   0.00000  Uiso   1.00
H24    H     0.14464   0.79464   0.24186   0.00000  Uiso   1.00
C43    C     0.00520   0.21222   0.79579   0.00000  Uiso   1.00
C44    C     0.99480   0.78778   0.20421   0.00000  Uiso   1.00
H25    H     0.15955   0.67517   0.70969   0.00000  Uiso   1.00
H26    H     0.84045   0.32482   0.29031   0.00000  Uiso   1.00
O1     O     0.92436   0.58175   0.57846   0.00000  Uiso   1.00
O2     O     0.07564   0.41825   0.42154   0.00000  Uiso   1.00
O3     O     0.08783   0.58626   0.59347   0.00000  Uiso   1.00
O4     O     0.91217   0.41374   0.40653   0.00000  Uiso   1.00
C45    C     0.00687   0.61044   0.61311   0.00000  Uiso   1.00
C46    C     0.99313   0.38957   0.38689   0.00000  Uiso   1.00
O5     O     0.08661   0.41790   0.59568   0.00000  Uiso   1.00
O6     O     0.91339   0.58210   0.40432   0.00000  Uiso   1.00
O7     O     0.92285   0.41364   0.57499   0.00000  Uiso   1.00
O8     O     0.07715   0.58636   0.42501   0.00000  Uiso   1.00
C47    C     0.00537   0.38918   0.61225   0.00000  Uiso   1.00
C48    C     0.99463   0.61082   0.38775   0.00000  Uiso   1.00
Zn1    Zn    0.10580   0.50085   0.51097   0.00000  Uiso   1.00
Zn2    Zn    0.89420   0.49915   0.48903   0.00000  Uiso   1.00
C49    C     0.51015   0.54014   0.43210   0.00000  Uiso   1.00
C50    C     0.48985   0.45986   0.56790   0.00000  Uiso   1.00
C51    C     0.44883   0.46624   0.43986   0.00000  Uiso   1.00
C52    C     0.55117   0.53376   0.56014   0.00000  Uiso   1.00
H27    H     0.51829   0.57052   0.37428   0.00000  Uiso   1.00
H28    H     0.48171   0.42948   0.62571   0.00000  Uiso   1.00
H29    H     0.54809   0.35963   0.48653   0.00000  Uiso   1.00
H30    H     0.45191   0.64037   0.51347   0.00000  Uiso   1.00
N5     N     0.23043   0.50185   0.52136   0.00000  Uiso   1.00
N6     N     0.76958   0.49815   0.47864   0.00000  Uiso   1.00
C53    C     0.47334   0.57692   0.50553   0.00000  Uiso   1.00
C54    C     0.52666   0.42308   0.49446   0.00000  Uiso   1.00
C55    C     0.41210   0.50195   0.51130   0.00000  Uiso   1.00
C56    C     0.58790   0.49805   0.48870   0.00000  Uiso   1.00
C57    C     0.31101   0.50197   0.51826   0.00000  Uiso   1.00
C58    C     0.68900   0.49803   0.48173   0.00000  Uiso   1.00
O9     O     0.39001   0.42961   0.37514   0.00000  Uiso   1.00
H31    H     0.43395   0.41149   0.33835   0.00000  Uiso   1.00
O10    O     0.60999   0.57039   0.62486   0.00000  Uiso   1.00
H32    H     0.56605   0.58851   0.66165   0.00000  Uiso   1.00
