# generated using pymatgen
data_ZnH18C28N2O5
_symmetry_space_group_name_H-M   'P 1'
_cell_length_a   16.58983800
_cell_length_b   17.10239200
_cell_length_c   17.77297300
_cell_angle_alpha   89.63535300
_cell_angle_beta   90.00050700
_cell_angle_gamma   93.55263100
_symmetry_Int_Tables_number   1
_chemical_formula_structural   ZnH18C28N2O5
_chemical_formula_sum   'Zn2 H36 C56 N4 O10'
_cell_volume   5032.86021170
_cell_formula_units_Z   2
loop_
 _symmetry_equiv_pos_site_id
 _symmetry_equiv_pos_as_xyz
  1  'x, y, z'
loop_
 _atom_site_type_symbol
 _atom_site_label
 _atom_site_symmetry_multiplicity
 _atom_site_fract_x
 _atom_site_fract_y
 _atom_site_fract_z
 _atom_site_occupancy
  Zn  Zn1  1  0.40842000  0.50051600  0.50076100  1
  Zn  Zn2  1  0.59168800  0.50097000  0.50060400  1
  H  H1  1  0.38642100  0.75025400  0.50118500  1
  H  H2  1  0.61377100  0.25129900  0.50072600  1
  H  H3  1  0.39397700  0.89048500  0.50128900  1
  H  H4  1  0.60629700  0.11105500  0.50061000  1
  H  H5  1  0.34773000  0.10814800  0.50207800  1
  H  H6  1  0.65253900  0.89326000  0.49877600  1
  H  H7  1  0.35570600  0.25072400  0.50219300  1
  H  H8  1  0.64448200  0.75068800  0.49863900  1
  H  H9  1  0.37156600  0.50081600  0.12355800  1
  H  H10  1  0.62836400  0.50164700  0.87790600  1
  H  H11  1  0.37066000  0.50103500  0.26080300  1
  H  H12  1  0.62941000  0.50145700  0.74066000  1
  H  H13  1  0.62903900  0.50181300  0.26081200  1
  H  H14  1  0.37090200  0.49866000  0.74045000  1
  H  H15  1  0.62813900  0.50158300  0.12358900  1
  H  H16  1  0.37167400  0.49890000  0.87766400  1
  H  H17  1  0.27698200  0.41596500  0.58758600  1
  H  H18  1  0.72350200  0.59137400  0.41939100  1
  H  H19  1  0.28533400  0.58358200  0.41357200  1
  H  H20  1  0.71429500  0.41043700  0.58063200  1
  H  H21  1  0.13715500  0.58266100  0.41219900  1
  H  H22  1  0.86231700  0.40893500  0.57967900  1
  H  H23  1  0.04660600  0.33652400  0.51785300  1
  H  H24  1  0.97366100  0.24928400  0.60744000  1
  H  H25  1  0.96397200  0.19850100  0.85211700  1
  H  H26  1  0.99226400  0.30190700  0.85186600  1
  H  H27  1  0.06866000  0.23071400  0.84020800  1
  H  H28  1  0.11066300  0.35664800  0.78744100  1
  H  H29  1  0.18094200  0.44354000  0.69850300  1
  H  H30  1  0.94395900  0.51848500  0.34302600  1
  H  H31  1  0.01727000  0.61156400  0.25902800  1
  H  H32  1  0.04021100  0.86624500  0.20988800  1
  H  H33  1  0.01865100  0.86615800  0.30922500  1
  H  H34  1  0.93682500  0.85400100  0.24096100  1
  H  H35  1  0.89946600  0.79928000  0.36202300  1
  H  H36  1  0.82884100  0.70687200  0.44568200  1
  C  C1  1  0.50024600  0.50029200  0.64801000  1
  C  C2  1  0.49985300  0.50123300  0.35335100  1
  C  C3  1  0.49072800  0.34733800  0.50121600  1
  C  C4  1  0.50938900  0.65414400  0.50018700  1
  C  C5  1  0.48541900  0.26143900  0.50139900  1
  C  C6  1  0.51475300  0.74004200  0.49999300  1
  C  C7  1  0.55481900  0.22067000  0.50102600  1
  C  C8  1  0.44538700  0.78085100  0.50064000  1
  C  C9  1  0.55011500  0.13985300  0.50094400  1
  C  C10  1  0.45014300  0.86166500  0.50071000  1
  C  C11  1  0.47523600  0.09886400  0.50127600  1
  C  C12  1  0.52504300  0.90261700  0.50009100  1
  C  C13  1  0.40620600  0.13975300  0.50178300  1
  C  C14  1  0.59404600  0.86168800  0.49930800  1
  C  C15  1  0.41098000  0.22046700  0.50183500  1
  C  C16  1  0.58922200  0.78097200  0.49925600  1
  C  C17  1  0.42796500  0.50104900  0.15402900  1
  C  C18  1  0.57197100  0.50098400  0.84738800  1
  C  C19  1  0.42779400  0.50117000  0.23160300  1
  C  C20  1  0.57222300  0.50086800  0.76981600  1
  C  C21  1  0.49984200  0.50138100  0.27085700  1
  C  C22  1  0.50018700  0.50012900  0.73050300  1
  C  C23  1  0.57189900  0.50160000  0.23161300  1
  C  C24  1  0.42805000  0.49934700  0.76968800  1
  C  C25  1  0.57173800  0.50147800  0.15404600  1
  C  C26  1  0.42813300  0.49945400  0.84725600  1
  C  C27  1  0.49985400  0.50115600  0.11526800  1
  C  C28  1  0.50001200  0.50032800  0.88609000  1
  C  C29  1  0.49987500  0.50087000  0.03456700  1
  C  C30  1  0.49993000  0.50061200  0.96679200  1
  C  C31  1  0.16200400  0.44977700  0.54938100  1
  C  C32  1  0.83809600  0.55159800  0.45187600  1
  C  C33  1  0.24540400  0.45289400  0.54945000  1
  C  C34  1  0.75490500  0.55172500  0.45492000  1
  C  C35  1  0.25030900  0.54595400  0.45208300  1
  C  C36  1  0.74947600  0.45048600  0.54444300  1
  C  C37  1  0.16724900  0.54526300  0.45104100  1
  C  C38  1  0.83241800  0.44935400  0.54373600  1
  C  C39  1  0.12259100  0.49703200  0.49976600  1
  C  C40  1  0.87722800  0.49997000  0.49729700  1
  C  C41  1  0.03622900  0.49887500  0.49970700  1
  C  C42  1  0.96369900  0.49978600  0.49894200  1
  C  C43  1  0.11732200  0.39730700  0.60242200  1
  C  C44  1  0.05963700  0.34190600  0.57724300  1
  C  C45  1  0.01897400  0.29223000  0.62762100  1
  C  C46  1  0.03591300  0.29644600  0.70349700  1
  C  C47  1  0.00574500  0.24474000  0.82718800  1
  C  C48  1  0.09487300  0.35116300  0.72869600  1
  C  C49  1  0.13544800  0.40085500  0.67814400  1
  C  C50  1  0.88294200  0.60670100  0.40135600  1
  C  C51  1  0.93530200  0.58034500  0.34812200  1
  C  C52  1  0.97612900  0.63268500  0.30029400  1
  C  C53  1  0.96460300  0.71171300  0.30424900  1
  C  C54  1  0.99977000  0.84039800  0.25437800  1
  C  C55  1  0.91092200  0.73809000  0.35682500  1
  C  C56  1  0.87017200  0.68556800  0.40466800  1
  N  N1  1  0.46711900  0.01602700  0.50109700  1
  N  N2  1  0.53319100  0.98545600  0.50026000  1
  N  N3  1  0.28791100  0.50010700  0.50096200  1
  N  N4  1  0.71219300  0.50131500  0.50034100  1
  O  O1  1  0.43074400  0.50028100  0.61281900  1
  O  O2  1  0.56934600  0.50126600  0.38854700  1
  O  O3  1  0.56974700  0.50056400  0.61274500  1
  O  O4  1  0.43038800  0.50096100  0.38862900  1
  O  O5  1  0.42350600  0.38387200  0.50116400  1
  O  O6  1  0.57662400  0.61761600  0.50026000  1
  O  O7  1  0.56246300  0.38418600  0.50100800  1
  O  O8  1  0.43762100  0.61730800  0.50039300  1
  O  O9  1  0.99441300  0.24653700  0.75069100  1
  O  O10  1  0.00603900  0.76073800  0.25620300  1
