# generated using pymatgen
data_Fe2H40C71N2O23
_symmetry_space_group_name_H-M   'P 1'
_cell_length_a   15.66878500
_cell_length_b   9.36405600
_cell_length_c   28.24764800
_cell_angle_alpha   84.04881800
_cell_angle_beta   82.57776600
_cell_angle_gamma   108.39013500
_symmetry_Int_Tables_number   1
_chemical_formula_structural   Fe2H40C71N2O23
_chemical_formula_sum   'Fe2 H40 C71 N2 O23'
_cell_volume   3853.75708297
_cell_formula_units_Z   1
loop_
 _symmetry_equiv_pos_site_id
 _symmetry_equiv_pos_as_xyz
  1  'x, y, z'
loop_
 _atom_site_type_symbol
 _atom_site_label
 _atom_site_symmetry_multiplicity
 _atom_site_fract_x
 _atom_site_fract_y
 _atom_site_fract_z
 _atom_site_occupancy
  Fe  Fe1  1  0.54236700  0.01904400  0.07999700  1
  Fe  Fe2  1  0.57078900  0.02876600  0.87096400  1
  H  H1  1  0.99728600  0.11093900  0.89717500  1
  H  H2  1  0.24056600  0.01966800  0.90207900  1
  H  H3  1  0.09624700  0.03145500  0.91962000  1
  H  H4  1  0.26832100  0.99885500  0.07342800  1
  H  H5  1  0.97277500  0.06084300  0.10830000  1
  H  H6  1  0.83940900  0.08722700  0.08371200  1
  H  H7  1  0.49063000  0.72138600  0.72218600  1
  H  H8  1  0.56820700  0.87550900  0.57107500  1
  H  H9  1  0.53055400  0.70700800  0.21434200  1
  H  H10  1  0.43346500  0.78249000  0.35506200  1
  H  H11  1  0.45475700  0.80873800  0.43638800  1
  H  H12  1  0.53846900  0.86057600  0.49074800  1
  H  H13  1  0.58006200  0.33262900  0.73303100  1
  H  H14  1  0.53248000  0.14456900  0.45828300  1
  H  H15  1  0.54412900  0.15299700  0.37296600  1
  H  H16  1  0.45237100  0.21859600  0.23752700  1
  H  H17  1  0.46328200  0.11183400  0.53082300  1
  H  H18  1  0.56057900  0.56496400  0.85310700  1
  H  H19  1  0.52400500  0.46340600  0.09603000  1
  H  H20  1  0.33521600  0.97451200  0.59762400  1
  H  H21  1  0.32521700  0.11630300  0.63503600  1
  H  H22  1  0.35704600  0.81652100  0.66786800  1
  H  H23  1  0.34719000  0.95687900  0.70568100  1
  H  H24  1  0.19071400  0.92220200  0.68857100  1
  H  H25  1  0.20075100  0.74504000  0.71489100  1
  H  H26  1  0.20045800  0.78116800  0.65079500  1
  H  H27  1  0.75963700  0.93760700  0.84209300  1
  H  H28  1  0.82214700  0.87950300  0.88537900  1
  H  H29  1  0.90117800  0.03283900  0.78032900  1
  H  H30  1  0.96376800  0.97426000  0.82367500  1
  H  H31  1  0.86087200  0.70622600  0.83146700  1
  H  H32  1  0.91636300  0.78185200  0.76965900  1
  H  H33  1  0.79823100  0.76482300  0.78800200  1
  H  H34  1  0.12835800  0.79775600  0.11336400  1
  H  H35  1  0.01614300  0.80204400  0.10629500  1
  H  H36  1  0.11379500  0.89533800  0.19143300  1
  H  H37  1  0.00133900  0.89895500  0.18440700  1
  H  H38  1  0.94910200  0.61972300  0.18284700  1
  H  H39  1  0.99252700  0.66523300  0.23766800  1
  H  H40  1  0.06173800  0.61614300  0.18996400  1
  C  C1  1  0.94150700  0.09215700  0.92616800  1
  C  C2  1  0.32673000  0.00779000  0.95411100  1
  C  C3  1  0.24653400  0.01331000  0.93985600  1
  C  C4  1  0.17491000  0.01740600  0.97312200  1
  C  C5  1  0.09809600  0.03317200  0.95742600  1
  C  C6  1  0.02731700  0.04874800  0.98949500  1
  C  C7  1  0.86098700  0.09513300  0.91252000  1
  C  C8  1  0.78500600  0.07268200  0.94673600  1
  C  C9  1  0.94864000  0.06748300  0.97463400  1
  C  C10  1  0.87542600  0.06309700  0.00905500  1
  C  C11  1  0.79148800  0.05709000  0.99548300  1
  C  C12  1  0.33327800  0.00018200  0.00278100  1
  C  C13  1  0.25999200  0.99792700  0.03608500  1
  C  C14  1  0.18122600  0.00927400  0.02128900  1
  C  C15  1  0.11009700  0.01796700  0.05403100  1
  C  C16  1  0.03455000  0.04083200  0.03800700  1
  C  C17  1  0.96659600  0.05783100  0.07075000  1
  C  C18  1  0.88815400  0.06877400  0.05658000  1
  C  C19  1  0.70874900  0.02427100  0.03224400  1
  C  C20  1  0.52632200  0.73199500  0.11913800  1
  C  C21  1  0.42033500  0.02110000  0.01942800  1
  C  C22  1  0.50027700  0.19758600  0.14498500  1
  C  C23  1  0.52982300  0.80493200  0.80643600  1
  C  C24  1  0.69696400  0.04486800  0.93044400  1
  C  C25  1  0.57734800  0.30448000  0.82875800  1
  C  C26  1  0.40370400  0.01614500  0.91691000  1
  C  C27  1  0.55229300  0.64276600  0.63768200  1
  C  C28  1  0.49295300  0.37712900  0.65656900  1
  C  C29  1  0.56157700  0.42150200  0.74858500  1
  C  C30  1  0.56471200  0.42908900  0.79697200  1
  C  C31  1  0.53161700  0.66367700  0.78808800  1
  C  C32  1  0.51633600  0.64332200  0.74184000  1
  C  C33  1  0.53488900  0.52625300  0.72072600  1
  C  C34  1  0.50960300  0.49577000  0.57537400  1
  C  C35  1  0.53554000  0.63433200  0.59109600  1
  C  C36  1  0.54744600  0.76477800  0.55969900  1
  C  C37  1  0.49186000  0.36564000  0.60787900  1
  C  C38  1  0.55297900  0.55356600  0.81609400  1
  C  C39  1  0.51424300  0.46452800  0.13453500  1
  C  C40  1  0.48767700  0.60216700  0.45032600  1
  C  C41  1  0.50088200  0.35323400  0.46000800  1
  C  C42  1  0.49222000  0.47458600  0.43110900  1
  C  C43  1  0.46613500  0.71247500  0.42223400  1
  C  C44  1  0.45199000  0.69631700  0.37564700  1
  C  C45  1  0.46718500  0.57732100  0.35506400  1
  C  C46  1  0.48940500  0.46937000  0.38261400  1
  C  C47  1  0.51010900  0.35728400  0.36109300  1
  C  C48  1  0.51786000  0.36406900  0.31155300  1
  C  C49  1  0.45870500  0.56425500  0.30738000  1
  C  C50  1  0.51422900  0.59833700  0.20172700  1
  C  C51  1  0.51774200  0.59624400  0.15261900  1
  C  C52  1  0.49554500  0.33162100  0.16541900  1
  C  C53  1  0.47547700  0.32772800  0.21456300  1
  C  C54  1  0.49149000  0.46291800  0.23367000  1
  C  C55  1  0.50549100  0.61614200  0.49698400  1
  C  C56  1  0.50233800  0.48816700  0.52734800  1
  C  C57  1  0.49330700  0.35317900  0.50970200  1
  C  C58  1  0.52841000  0.75522500  0.51369900  1
  C  C59  1  0.47118800  0.22638400  0.59112800  1
  C  C60  1  0.51851700  0.23670800  0.43829900  1
  C  C61  1  0.52709300  0.24260300  0.38894100  1
  C  C62  1  0.47718200  0.22208500  0.54218000  1
  C  C63  1  0.35678200  0.02742300  0.62938500  1
  C  C64  1  0.32568300  0.90556700  0.67367200  1
  C  C65  1  0.22262000  0.83397200  0.68248000  1
  C  C66  1  0.82744800  0.96291000  0.85332800  1
  C  C67  1  0.89602300  0.94965200  0.81241500  1
  C  C68  1  0.86572900  0.79007600  0.79961200  1
  C  C69  1  0.07800600  0.85622700  0.12162900  1
  C  C70  1  0.05204200  0.84118600  0.17596200  1
  C  C71  1  0.01119000  0.67452200  0.19796200  1
  N  N1  1  0.52698400  0.51497500  0.67081200  1
  N  N2  1  0.48843400  0.46296000  0.28501200  1
  O  O1  1  0.64409400  0.08128600  0.02446200  1
  O  O2  1  0.52545100  0.72380600  0.07308500  1
  O  O3  1  0.69725200  0.93102200  0.07225900  1
  O  O4  1  0.53209200  0.86108800  0.13477300  1
  O  O5  1  0.42703300  0.92400200  0.05460100  1
  O  O6  1  0.48736600  0.15037100  0.00471800  1
  O  O7  1  0.56136800  0.21537700  0.10636500  1
  O  O8  1  0.44380600  0.06167000  0.16428700  1
  O  O9  1  0.54684000  0.82282500  0.85020500  1
  O  O10  1  0.52199100  0.91742400  0.77757100  1
  O  O11  1  0.68974000  0.13034400  0.89222300  1
  O  O12  1  0.62959800  0.91879100  0.94881700  1
  O  O13  1  0.40244200  0.05970900  0.87142600  1
  O  O14  1  0.57745800  0.17564100  0.81369300  1
  O  O15  1  0.47405200  0.98139700  0.92838400  1
  O  O16  1  0.57672100  0.31388300  0.87482300  1
  O  O17  1  0.59630900  0.77936400  0.64923900  1
  O  O18  1  0.41909500  0.65152100  0.28393800  1
  O  O19  1  0.45750600  0.25113600  0.68978200  1
  O  O20  1  0.55867400  0.27542400  0.29006500  1
  O  O21  1  0.45181200  0.09270500  0.62173200  1
  O  O22  1  0.85557700  0.11095800  0.86439400  1
  O  O23  1  0.11610300  0.01063400  0.10211900  1
