# generated using pymatgen
data_Cu(C2O)4
_symmetry_space_group_name_H-M   'P 1'
_cell_length_a   21.14772800
_cell_length_b   32.04106600
_cell_length_c   42.93349200
_cell_angle_alpha   111.89244000
_cell_angle_beta   104.24507400
_cell_angle_gamma   90.00505200
_symmetry_Int_Tables_number   1
_chemical_formula_structural   Cu(C2O)4
_chemical_formula_sum   'Cu12 C96 O48'
_cell_volume   26026.85733825
_cell_formula_units_Z   12
loop_
 _symmetry_equiv_pos_site_id
 _symmetry_equiv_pos_as_xyz
  1  'x, y, z'
loop_
 _atom_site_type_symbol
 _atom_site_label
 _atom_site_symmetry_multiplicity
 _atom_site_fract_x
 _atom_site_fract_y
 _atom_site_fract_z
 _atom_site_occupancy
  Cu  Cu1  1  0.46030100  0.98309500  0.47814100  1
  Cu  Cu2  1  0.55682000  0.01557000  0.52609100  1
  Cu  Cu3  1  0.96498600  0.30914600  0.52611100  1
  Cu  Cu4  1  0.01356400  0.29370500  0.47815100  1
  Cu  Cu5  1  0.67717200  0.57030900  0.28507000  1
  Cu  Cu6  1  0.60347500  0.51343000  0.28510500  1
  Cu  Cu7  1  0.68689400  0.93920000  0.78612000  1
  Cu  Cu8  1  0.63831200  0.97165200  0.83408000  1
  Cu  Cu9  1  0.19150300  0.66105100  0.83404400  1
  Cu  Cu10  1  0.09499600  0.64560200  0.78609000  1
  Cu  Cu11  1  0.97455200  0.44130700  0.02714100  1
  Cu  Cu12  1  0.04826300  0.38441400  0.02715000  1
  C  C1  1  0.46951700  0.97346000  0.54713100  1
  C  C2  1  0.55326800  0.91757000  0.47435100  1
  C  C3  1  0.56915900  0.03755400  0.46981500  1
  C  C4  1  0.43773200  0.07054100  0.52094800  1
  C  C5  1  0.07329200  0.37229200  0.54713800  1
  C  C6  1  0.07895100  0.24904700  0.52095700  1
  C  C7  1  0.89641400  0.23091500  0.46983700  1
  C  C8  1  0.91678600  0.35543300  0.47437300  1
  C  C9  1  0.72482600  0.51928100  0.33387300  1
  C  C10  1  0.60463000  0.61325600  0.33386500  1
  C  C11  1  0.53704600  0.54784300  0.23549000  1
  C  C12  1  0.69399100  0.48627500  0.23549400  1
  C  C13  1  0.75547500  0.91719400  0.84238600  1
  C  C14  1  0.73506600  0.03719100  0.83786800  1
  C  C15  1  0.57856300  0.98130300  0.76509800  1
  C  C16  1  0.57294500  0.88421500  0.79126400  1
  C  C17  1  0.08267500  0.72383400  0.84236800  1
  C  C18  1  0.21410700  0.70570300  0.79123100  1
  C  C19  1  0.18226900  0.58245500  0.76506000  1
  C  C20  1  0.09851000  0.59931400  0.83782900  1
  C  C21  1  0.95771400  0.40687200  0.07674700  1
  C  C22  1  0.92693500  0.34148700  0.97836900  1
  C  C23  1  0.04712900  0.43545900  0.97835400  1
  C  C24  1  0.11466700  0.46843700  0.07673500  1
  C  C25  1  0.13112300  0.22199600  0.53199900  1
  C  C26  1  0.18054200  0.20088800  0.53197000  1
  C  C27  1  0.23913300  0.17584800  0.53194900  1
  C  C28  1  0.28854800  0.15473300  0.53194800  1
  C  C29  1  0.34715900  0.12971200  0.53196700  1
  C  C30  1  0.39660700  0.10863300  0.53199500  1
  C  C31  1  0.60288700  0.06005100  0.45289500  1
  C  C32  1  0.64817300  0.08456900  0.45294900  1
  C  C33  1  0.70174300  0.11357100  0.45298500  1
  C  C34  1  0.74699900  0.13807000  0.45298900  1
  C  C35  1  0.80054000  0.16704200  0.45296400  1
  C  C36  1  0.84577600  0.19151100  0.45292000  1
  C  C37  1  0.57616900  0.87156900  0.45920300  1
  C  C38  1  0.57770100  0.83103300  0.44072000  1
  C  C39  1  0.57954100  0.78289900  0.41877900  1
  C  C40  1  0.58109900  0.74236000  0.40030800  1
  C  C41  1  0.58293900  0.69421900  0.37838500  1
  C  C42  1  0.58447700  0.65367200  0.35993100  1
  C  C43  1  0.53063900  0.99320000  0.73932700  1
  C  C44  1  0.51527500  0.98726500  0.70828600  1
  C  C45  1  0.49704300  0.98031300  0.67163400  1
  C  C46  1  0.48151800  0.97444700  0.64060400  1
  C  C47  1  0.46307300  0.96749500  0.60395200  1
  C  C48  1  0.44737500  0.96156000  0.57291000  1
  C  C49  1  0.87872300  0.38628600  0.45922500  1
  C  C50  1  0.85869300  0.40834300  0.44073900  1
  C  C51  1  0.83489500  0.43454000  0.41879400  1
  C  C52  1  0.81485200  0.45661300  0.40032100  1
  C  C53  1  0.79107200  0.48283500  0.37839400  1
  C  C54  1  0.77106600  0.50493300  0.35993700  1
  C  C55  1  0.12118900  0.40996500  0.57290700  1
  C  C56  1  0.13654300  0.43507800  0.60394200  1
  C  C57  1  0.15476400  0.46478700  0.64058700  1
  C  C58  1  0.17027900  0.48995700  0.67161000  1
  C  C59  1  0.18871200  0.51966500  0.70825500  1
  C  C60  1  0.20440000  0.54477800  0.73929000  1
  C  C61  1  0.47891000  0.55060200  0.20831400  1
  C  C62  1  0.42193700  0.54084500  0.18888700  1
  C  C63  1  0.35433600  0.52928600  0.16582700  1
  C  C64  1  0.29736900  0.51956400  0.14639100  1
  C  C65  1  0.22976700  0.50805400  0.12333100  1
  C  C66  1  0.17279500  0.49837600  0.10390400  1
  C  C67  1  0.92674300  0.40410000  0.10392200  1
  C  C68  1  0.88918300  0.41385700  0.12334800  1
  C  C69  1  0.84462400  0.42541600  0.14640700  1
  C  C70  1  0.80707800  0.43513800  0.16584200  1
  C  C71  1  0.76251900  0.44664900  0.18890100  1
  C  C72  1  0.72495800  0.45632700  0.20832700  1
  C  C73  1  0.80611000  0.89469100  0.85929500  1
  C  C74  1  0.85133700  0.87017400  0.85924400  1
  C  C75  1  0.90486600  0.84117400  0.85921100  1
  C  C76  1  0.95011300  0.81667500  0.85920900  1
  C  C77  1  0.00367200  0.78770500  0.85923700  1
  C  C78  1  0.04894800  0.76323800  0.85928400  1
  C  C79  1  0.52077200  0.84612200  0.78020900  1
  C  C80  1  0.47134500  0.82504200  0.78023400  1
  C  C81  1  0.41274300  0.80002000  0.78024800  1
  C  C82  1  0.36331900  0.77890500  0.78024300  1
  C  C83  1  0.30469800  0.75386400  0.78021800  1
  C  C84  1  0.25524200  0.73275500  0.78018500  1
  C  C85  1  0.77311200  0.08319300  0.85302000  1
  C  C86  1  0.79313100  0.12372700  0.87150500  1
  C  C87  1  0.81691700  0.17185800  0.89344900  1
  C  C88  1  0.83694900  0.21239500  0.91192200  1
  C  C89  1  0.86071700  0.26053300  0.93384800  1
  C  C90  1  0.88071300  0.30107800  0.95230400  1
  C  C91  1  0.07559900  0.56845600  0.85297900  1
  C  C92  1  0.07406900  0.54639800  0.87146800  1
  C  C93  1  0.07223100  0.52020000  0.89341600  1
  C  C94  1  0.07067500  0.49812700  0.91189200  1
  C  C95  1  0.06883700  0.47190400  0.93382200  1
  C  C96  1  0.06730100  0.44980600  0.95228200  1
  O  O1  1  0.43350300  0.96403100  0.51447700  1
  O  O2  1  0.52733300  0.99558000  0.55739300  1
  O  O3  1  0.49490800  0.92470300  0.45912500  1
  O  O4  1  0.58821300  0.95199800  0.50284900  1
  O  O5  1  0.51046200  0.01313600  0.45472100  1
  O  O6  1  0.59850000  0.04241700  0.50166600  1
  O  O7  1  0.41161800  0.03547600  0.49239100  1
  O  O8  1  0.49919000  0.06936500  0.53874700  1
  O  O9  1  0.02574800  0.36042400  0.55741100  1
  O  O10  1  0.07666200  0.34908700  0.51448200  1
  O  O11  1  0.03528100  0.26800500  0.53875800  1
  O  O12  1  0.07651400  0.25557600  0.49239800  1
  O  O13  1  0.89891600  0.25788000  0.50169100  1
  O  O14  1  0.94001100  0.24025300  0.45473600  1
  O  O15  1  0.91033500  0.34948300  0.50287400  1
  O  O16  1  0.95993300  0.33309300  0.45914400  1
  O  O17  1  0.74009300  0.55103500  0.32262700  1
  O  O18  1  0.66525300  0.49893100  0.32066400  1
  O  O19  1  0.65096500  0.62037900  0.32062100  1
  O  O20  1  0.57813000  0.57026900  0.32265200  1
  O  O21  1  0.59495000  0.57340100  0.24699000  1
  O  O22  1  0.53095500  0.51840900  0.24919400  1
  O  O23  1  0.71377400  0.52940300  0.24916300  1
  O  O24  1  0.64760200  0.47224000  0.24702300  1
  O  O25  1  0.75297400  0.91234200  0.81053400  1
  O  O26  1  0.71187400  0.94160800  0.85749000  1
  O  O27  1  0.74152200  0.00277100  0.80936400  1
  O  O28  1  0.69192900  0.03004900  0.85309800  1
  O  O29  1  0.62612300  0.95919600  0.75482500  1
  O  O30  1  0.57519600  0.99071900  0.79775300  1
  O  O31  1  0.61660700  0.88540600  0.77346200  1
  O  O32  1  0.57538400  0.91926700  0.81983100  1
  O  O33  1  0.14136200  0.71450100  0.85746700  1
  O  O34  1  0.05334100  0.69686600  0.81051400  1
  O  O35  1  0.24021400  0.69917600  0.81978800  1
  O  O36  1  0.15264400  0.68674600  0.77343400  1
  O  O37  1  0.21828200  0.60566400  0.79771400  1
  O  O38  1  0.12446200  0.59432200  0.75479000  1
  O  O39  1  0.15687300  0.62166300  0.85305500  1
  O  O40  1  0.06357300  0.60526000  0.80932900  1
  O  O41  1  0.93793200  0.43631800  0.06305600  1
  O  O42  1  0.00411000  0.38131500  0.06523400  1
  O  O43  1  0.91166000  0.38447600  0.98959400  1
  O  O44  1  0.98650300  0.33435500  0.99159900  1
  O  O45  1  0.00078100  0.45581700  0.99158000  1
  O  O46  1  0.07362600  0.40369800  0.98959000  1
  O  O47  1  0.05676000  0.48247900  0.06521900  1
  O  O48  1  0.12077200  0.42530800  0.06305400  1
