# generated using pymatgen
data_Zn3H24(C20O7)2
_symmetry_space_group_name_H-M   'P 1'
_cell_length_a   21.91443300
_cell_length_b   21.85227100
_cell_length_c   22.21291700
_cell_angle_alpha   119.45057200
_cell_angle_beta   119.54637000
_cell_angle_gamma   90.01203400
_symmetry_Int_Tables_number   1
_chemical_formula_structural   Zn3H24(C20O7)2
_chemical_formula_sum   'Zn6 H48 C80 O28'
_cell_volume   7633.57720102
_cell_formula_units_Z   2
loop_
 _symmetry_equiv_pos_site_id
 _symmetry_equiv_pos_as_xyz
  1  'x, y, z'
loop_
 _atom_site_type_symbol
 _atom_site_label
 _atom_site_symmetry_multiplicity
 _atom_site_fract_x
 _atom_site_fract_y
 _atom_site_fract_z
 _atom_site_occupancy
  Zn  Zn1  1  0.42950800  0.00033000  0.49712300  1
  Zn  Zn2  1  0.57049200  0.99967000  0.50287700  1
  Zn  Zn3  1  0.00137300  0.57016300  0.50179500  1
  Zn  Zn4  1  0.99862700  0.42983700  0.49820500  1
  Zn  Zn5  1  0.54334600  0.53951400  0.59395500  1
  Zn  Zn6  1  0.45665400  0.46048600  0.40604500  1
  H  H1  1  0.82820900  0.74317700  0.74931700  1
  H  H2  1  0.17179100  0.25682300  0.25068300  1
  H  H3  1  0.71249600  0.64445200  0.63708700  1
  H  H4  1  0.28750400  0.35554800  0.36291300  1
  H  H5  1  0.72194600  0.37117500  0.07653500  1
  H  H6  1  0.27805400  0.62882500  0.92346500  1
  H  H7  1  0.65993400  0.30893500  0.93574900  1
  H  H8  1  0.34006600  0.69106500  0.06425100  1
  H  H9  1  0.81003900  0.23115900  0.93227700  1
  H  H10  1  0.18996100  0.76884100  0.06772300  1
  H  H11  1  0.76888600  0.30151200  0.92698600  1
  H  H12  1  0.23111400  0.69848800  0.07301400  1
  H  H13  1  0.83072400  0.37590500  0.06801400  1
  H  H14  1  0.16927600  0.62409500  0.93198500  1
  H  H15  1  0.88059700  0.31090100  0.07333400  1
  H  H16  1  0.11940300  0.68909900  0.92666600  1
  H  H17  1  0.66803400  0.13697000  0.93158200  1
  H  H18  1  0.33196600  0.86303000  0.06841800  1
  H  H19  1  0.74586400  0.12969000  0.92296300  1
  H  H20  1  0.25413600  0.87031000  0.07703700  1
  H  H21  1  0.74918500  0.20045200  0.07209600  1
  H  H22  1  0.25081500  0.79954800  0.92790300  1
  H  H23  1  0.61174900  0.23474400  0.92693900  1
  H  H24  1  0.38825100  0.76525600  0.07306100  1
  H  H25  1  0.68260700  0.29200600  0.06750800  1
  H  H26  1  0.31739300  0.70799400  0.93249200  1
  H  H27  1  0.82692100  0.20361500  0.06375800  1
  H  H28  1  0.17307900  0.79638500  0.93624200  1
  H  H29  1  0.59935100  0.24432900  0.59736700  1
  H  H30  1  0.40064900  0.75567100  0.40263300  1
  H  H31  1  0.38455400  0.05252200  0.33850500  1
  H  H32  1  0.61544600  0.94747800  0.66149500  1
  H  H33  1  0.28220900  0.04443200  0.21953200  1
  H  H34  1  0.71779100  0.95556700  0.78046700  1
  H  H35  1  0.36261500  0.27484400  0.33763400  1
  H  H36  1  0.63738500  0.72515600  0.66236600  1
  H  H37  1  0.59640200  0.35376500  0.59496700  1
  H  H38  1  0.40359800  0.64623400  0.40503300  1
  H  H39  1  0.63925500  0.40280300  0.39626800  1
  H  H40  1  0.36074500  0.59719700  0.60373200  1
  H  H41  1  0.93818400  0.62141200  0.64518000  1
  H  H42  1  0.06181600  0.37858800  0.35481900  1
  H  H43  1  0.94120100  0.73076300  0.75430100  1
  H  H44  1  0.05879900  0.26923700  0.24569900  1
  H  H45  1  0.21188500  0.09981700  0.14646800  1
  H  H46  1  0.78811500  0.90018200  0.85353200  1
  H  H47  1  0.69201100  0.33170000  0.32661500  1
  H  H48  1  0.30798900  0.66830000  0.67338500  1
  C  C1  1  0.49878800  0.11280500  0.48719700  1
  C  C2  1  0.50121200  0.88719400  0.51280300  1
  C  C3  1  0.58001100  0.09010200  0.66357600  1
  C  C4  1  0.41998900  0.90989800  0.33642400  1
  C  C5  1  0.76058800  0.63544700  0.63673500  1
  C  C6  1  0.23941200  0.36455300  0.36326400  1
  C  C7  1  0.68994300  0.44908700  0.44580100  1
  C  C8  1  0.31005700  0.55091300  0.55419900  1
  C  C9  1  0.69208100  0.50999400  0.51067500  1
  C  C10  1  0.30791900  0.49000600  0.48932500  1
  C  C11  1  0.82019200  0.56588800  0.57278500  1
  C  C12  1  0.17980800  0.43411100  0.42721400  1
  C  C13  1  0.66698600  0.26900100  0.95381400  1
  C  C14  1  0.33301400  0.73099900  0.04618600  1
  C  C15  1  0.77930500  0.26723200  0.95264100  1
  C  C16  1  0.22069500  0.73276800  0.04735900  1
  C  C17  1  0.82486000  0.31736000  0.04748800  1
  C  C18  1  0.17514000  0.68264000  0.95251200  1
  C  C19  1  0.87127200  0.37785900  0.24613000  1
  C  C20  1  0.12872800  0.62214100  0.75387000  1
  C  C21  1  0.70637600  0.21961200  0.92073400  1
  C  C22  1  0.29362400  0.78038800  0.07926600  1
  C  C23  1  0.71267200  0.31096800  0.04851500  1
  C  C24  1  0.28732800  0.68903200  0.95148500  1
  C  C25  1  0.78638600  0.29656100  0.07889300  1
  C  C26  1  0.21361400  0.70343900  0.92110700  1
  C  C27  1  0.77349700  0.21507900  0.04553400  1
  C  C28  1  0.22650300  0.78492100  0.95446600  1
  C  C29  1  0.72092200  0.16891100  0.95088200  1
  C  C30  1  0.27907800  0.83108800  0.04911800  1
  C  C31  1  0.83286900  0.34111900  0.17058700  1
  C  C32  1  0.16713100  0.65888000  0.82941300  1
  C  C33  1  0.66029900  0.17466100  0.82903400  1
  C  C34  1  0.33970100  0.82533900  0.17096500  1
  C  C35  1  0.62312600  0.13668900  0.75348100  1
  C  C36  1  0.37687400  0.86331100  0.24651900  1
  C  C37  1  0.38238600  0.10316600  0.34145000  1
  C  C38  1  0.61761400  0.89683400  0.65855000  1
  C  C39  1  0.32375400  0.09777800  0.27277500  1
  C  C40  1  0.67624600  0.90222100  0.72722500  1
  C  C41  1  0.31802800  0.15981600  0.27181600  1
  C  C42  1  0.68197200  0.84018400  0.72818300  1
  C  C43  1  0.37163300  0.22761100  0.33981700  1
  C  C44  1  0.62836700  0.77238800  0.66018300  1
  C  C45  1  0.43379600  0.23372800  0.40828800  1
  C  C46  1  0.56620400  0.76627200  0.59171200  1
  C  C47  1  0.43732100  0.17079600  0.40989400  1
  C  C48  1  0.56267900  0.82920400  0.59010600  1
  C  C49  1  0.49625000  0.17541500  0.47913600  1
  C  C50  1  0.50375000  0.82458500  0.52086400  1
  C  C51  1  0.55323900  0.24092500  0.54383900  1
  C  C52  1  0.44676100  0.75907500  0.45616100  1
  C  C53  1  0.55074000  0.30301700  0.54259000  1
  C  C54  1  0.44926000  0.69698300  0.45741000  1
  C  C55  1  0.49163100  0.30108300  0.47614100  1
  C  C56  1  0.50836900  0.69891700  0.52385900  1
  C  C57  1  0.75043400  0.44601500  0.44141400  1
  C  C58  1  0.24956600  0.55398500  0.55858600  1
  C  C59  1  0.81657700  0.50447800  0.50561200  1
  C  C60  1  0.18342300  0.49552200  0.49438800  1
  C  C61  1  0.88197200  0.50264500  0.50248700  1
  C  C62  1  0.11802900  0.49735500  0.49751300  1
  C  C63  1  0.91698000  0.42180600  0.33608900  1
  C  C64  1  0.08302000  0.57819400  0.66391100  1
  C  C65  1  0.62327600  0.50759900  0.50737900  1
  C  C66  1  0.37672400  0.49240100  0.49262100  1
  C  C67  1  0.49408900  0.37228800  0.48379000  1
  C  C68  1  0.50591100  0.62771200  0.51621000  1
  C  C69  1  0.75733500  0.57011100  0.57390200  1
  C  C70  1  0.24266500  0.42988900  0.42609800  1
  C  C71  1  0.88664600  0.62343800  0.63968500  1
  C  C72  1  0.11335400  0.37656100  0.36031500  1
  C  C73  1  0.88940000  0.68614600  0.70314900  1
  C  C74  1  0.11060000  0.31385400  0.29685100  1
  C  C75  1  0.82618100  0.69284500  0.70061700  1
  C  C76  1  0.17381900  0.30715500  0.29938300  1
  C  C77  1  0.25544800  0.15268100  0.19736100  1
  C  C78  1  0.74455200  0.84731900  0.80263900  1
  C  C79  1  0.73987600  0.38031000  0.36598700  1
  C  C80  1  0.26012400  0.61968900  0.63401200  1
  O  O1  1  0.44508100  0.08496000  0.48642300  1
  O  O2  1  0.55491900  0.91504000  0.51357700  1
  O  O3  1  0.55494300  0.08784600  0.49568500  1
  O  O4  1  0.44505700  0.91215400  0.50431500  1
  O  O5  1  0.50758900  0.06731500  0.62232200  1
  O  O6  1  0.49241100  0.93268500  0.37767800  1
  O  O7  1  0.61538600  0.07037200  0.62713700  1
  O  O8  1  0.38461400  0.92962800  0.37286200  1
  O  O9  1  0.90964300  0.55459200  0.50074400  1
  O  O10  1  0.09035700  0.44540800  0.49925600  1
  O  O11  1  0.91046400  0.44980000  0.50253000  1
  O  O12  1  0.08953600  0.55019900  0.49747000  1
  O  O13  1  0.93563900  0.49421100  0.37606800  1
  O  O14  1  0.06436100  0.50578900  0.62393200  1
  O  O15  1  0.93753800  0.38745300  0.37399200  1
  O  O16  1  0.06246200  0.61254700  0.62600700  1
  O  O17  1  0.62609100  0.53314100  0.57629700  1
  O  O18  1  0.37390900  0.46685900  0.42370300  1
  O  O19  1  0.56064900  0.47631500  0.43356000  1
  O  O20  1  0.43935100  0.52368400  0.56644000  1
  O  O21  1  0.52775200  0.43313400  0.55965800  1
  O  O22  1  0.47224800  0.56686500  0.44034200  1
  O  O23  1  0.46553400  0.37358300  0.41691700  1
  O  O24  1  0.53446600  0.62641700  0.58308200  1
  O  O25  1  0.25303200  0.20498700  0.19081600  1
  O  O26  1  0.74696800  0.79501300  0.80918400  1
  O  O27  1  0.77965900  0.38106300  0.34261600  1
  O  O28  1  0.22034100  0.61893700  0.65738400  1
