# Generated by REPEAT Assigner based on pymatgen
data_DB0-m3_o16_o44_f0_fsc.sym.9
_audit_creation_date              2022-05-24
_audit_creation_method            REPEAT_Assigner
_cell_length_a                    12.173142
_cell_length_b                    8.552536
_cell_length_c                    13.437605
_cell_angle_alpha                 90.000000
_cell_angle_beta                  108.232743
_cell_angle_gamma                 90.000000
_cell_volume                      1328.766319
_symmetry_space_group_name_H-M    P1
_symmetry_Int_Tables_number       1
loop_
    _symmetry_equiv_pos_site_id
    _symmetry_equiv_pos_as_xyz
    1  x,y,z
loop_
    _atom_site_type_symbol
    _atom_site_label
    _atom_site_fract_x
    _atom_site_fract_y
    _atom_site_fract_z
    _atom_type_partial_charge
    C   C1   0.021545  0.841364  0.700395  -0.035747
    C   C2   0.020964  0.120530  0.700206  -0.001691
    C   C3   0.009016  0.840591  0.798831  -0.314240
    C   C4   0.008001  0.121248  0.798491  -0.334184
    H   H1   0.002755  0.731097  0.836847  0.175371
    H   H2   0.000690  0.230683  0.836178  0.157887
    C   C5   0.007496  0.980936  0.849625  0.395133
    C   C6   0.034565  0.980982  0.655075  -0.121585
    C   C7   0.005271  0.980966  0.955674  -0.205388
    C   C8   0.004411  0.981004  0.045047  -0.133298
    C   C9   0.999568  0.840781  0.201633  0.114286
    C   C10  0.998765  0.121363  0.201347  0.145562
    C   C11  0.983940  0.841341  0.298903  -0.140592
    C   C12  0.983468  0.120745  0.298736  -0.164795
    C   C13  0.968823  0.981014  0.343327  -0.201655
    C   C14  0.001170  0.981045  0.150786  0.172658
    H   H3   0.049128  0.981017  0.580320  0.124246
    H   H4   0.952351  0.980989  0.417262  0.159343
    O   O1   0.109983  0.649704  0.622952  -0.721917
    O   O2   0.109601  0.311921  0.622797  -0.714780
    O   O3   0.912028  0.644829  0.586987  -0.683976
    O   O4   0.911667  0.317333  0.586867  -0.696356
    C   C15  0.014926  0.699275  0.638632  0.806678
    C   C16  0.014476  0.262599  0.638463  0.807976
    O   O5   0.894795  0.649937  0.376221  -0.757984
    O   O6   0.894434  0.312370  0.376081  -0.759768
    O   O7   0.093351  0.644182  0.412060  -0.719049
    O   O8   0.092998  0.317638  0.411930  -0.763561
    C   C17  0.990264  0.699155  0.360670  0.953281
    C   C18  0.989850  0.262936  0.360506  1.007173
    Zn  Zn1  0.873610  0.481171  0.473301  1.018844
    Zn  Zn2  0.130863  0.480805  0.525889  1.045997
    C   C19  0.453887  0.479299  0.702854  -0.249028
    H   H5   0.286030  0.479084  0.717820  0.146932
    H   H6   0.494156  0.478389  0.786794  0.173292
    N   N1   0.282163  0.480499  0.560088  0.119731
    C   C20  0.672659  0.481732  0.334771  -0.076952
    C   C21  0.554880  0.481921  0.290587  -0.155479
    C   C22  0.484797  0.481733  0.352824  -0.045471
    C   C23  0.533347  0.481411  0.461053  0.037916
    C   C24  0.654175  0.481363  0.503274  0.067092
    C   C25  0.464558  0.480947  0.528014  -0.003691
    C   C26  0.518635  0.480286  0.635319  0.202978
    C   C27  0.637231  0.480845  0.675988  0.193846
    C   C28  0.703966  0.481157  0.610877  -0.239319
    C   C29  0.343194  0.481052  0.491804  -0.185349
    C   C30  0.335840  0.479537  0.663936  -0.078300
    N   N2   0.722002  0.481469  0.439584  0.059805
    H   H7   0.294067  0.481719  0.410146  0.198674
    H   H8   0.725596  0.481759  0.283615  0.182667
    H   H9   0.393485  0.481744  0.312771  0.095329
    H   H10  0.517134  0.482122  0.206289  0.131371
    H   H11  0.795424  0.481224  0.647918  0.220150
    O   O9   0.009646  0.702513  0.154314  -0.297149
    C   C31  0.128503  0.678063  0.179840  0.207750
    H   H12  0.149775  0.558031  0.211161  0.012159
    H   H13  0.175074  0.763685  0.240318  -0.030541
    H   H14  0.155447  0.693314  0.108867  -0.010446
    O   O10  0.009081  0.259668  0.154166  -0.304722
    C   C32  0.895572  0.309838  0.107492  0.140695
    H   H15  0.875598  0.405779  0.154625  -0.015610
    H   H16  0.835297  0.211041  0.103328  -0.012673
    H   H17  0.885218  0.352010  0.027025  0.052462
    O   O11  0.690106  0.479851  0.781959  -0.330027
    C   C33  0.706247  0.637271  0.809793  0.104134
    H   H18  0.665192  0.711229  0.740303  0.007057
    H   H19  0.800092  0.663332  0.839462  0.040752
    H   H20  0.666121  0.663020  0.871566  0.026096
