# generated using pymatgen
data_Zn2H21C40I(NO4)2
_symmetry_space_group_name_H-M   'P 1'
_cell_length_a   9.83005000
_cell_length_b   10.98717700
_cell_length_c   15.99466100
_cell_angle_alpha   89.99789000
_cell_angle_beta   72.28098400
_cell_angle_gamma   90.00020900
_symmetry_Int_Tables_number   1
_chemical_formula_structural   Zn2H21C40I(NO4)2
_chemical_formula_sum   'Zn2 H21 C40 I1 N2 O8'
_cell_volume   1645.54387442
_cell_formula_units_Z   1
loop_
 _symmetry_equiv_pos_site_id
 _symmetry_equiv_pos_as_xyz
  1  'x, y, z'
loop_
 _atom_site_type_symbol
 _atom_site_label
 _atom_site_symmetry_multiplicity
 _atom_site_fract_x
 _atom_site_fract_y
 _atom_site_fract_z
 _atom_site_occupancy
  Zn  Zn1  1  0.34748200  0.50087500  0.50008700  1
  Zn  Zn2  1  0.65731200  0.50297600  0.49862500  1
  H  H1  1  0.13040100  0.56181000  0.07159800  1
  H  H2  1  0.42755300  0.51684900  0.22491000  1
  H  H3  1  0.85046200  0.43597700  0.22012600  1
  H  H4  1  0.87018100  0.42069000  0.92830300  1
  H  H5  1  0.07943200  0.56829400  0.93805300  1
  H  H6  1  0.15242500  0.55446400  0.77933100  1
  H  H7  1  0.57915700  0.48937800  0.77381500  1
  H  H8  1  0.28589700  0.53540100  0.15561500  1
  H  H9  1  0.71447700  0.44758900  0.84428700  1
  H  H10  1  0.92192400  0.41671900  0.06169600  1
  H  H11  1  0.72294900  0.89190000  0.47789700  1
  H  H12  1  0.26158400  0.81399700  0.43804700  1
  H  H13  1  0.03440700  0.91252200  0.49223100  1
  H  H14  1  0.01011900  0.10057400  0.57858200  1
  H  H15  1  0.21809700  0.19573800  0.59910900  1
  H  H16  1  0.72063800  0.11111300  0.48917000  1
  H  H17  1  0.91873100  0.36455600  0.40962400  1
  H  H18  1  0.70432700  0.67682000  0.60730400  1
  H  H19  1  0.78098500  0.81306800  0.69846300  1
  H  H20  1  0.02913900  0.80936300  0.70019500  1
  H  H21  1  0.19294700  0.67107800  0.61145200  1
  C  C1  1  0.50537900  0.74097400  0.48637900  1
  C  C2  1  0.41777300  0.51402700  0.67127900  1
  C  C3  1  0.49851000  0.26322900  0.51088600  1
  C  C4  1  0.58711000  0.48666000  0.32776800  1
  C  C5  1  0.37224400  0.52011000  0.76759800  1
  C  C6  1  0.63223200  0.47717900  0.23156800  1
  C  C7  1  0.18996800  0.54935500  0.90296000  1
  C  C8  1  0.23122800  0.54150000  0.81312900  1
  C  C9  1  0.47087300  0.50463800  0.81289900  1
  C  C10  1  0.42979000  0.50903300  0.90462700  1
  C  C11  1  0.28783400  0.53338700  0.94821000  1
  C  C12  1  0.52554200  0.49064600  0.95384900  1
  C  C13  1  0.47736700  0.50079500  0.04560700  1
  C  C14  1  0.33364900  0.52686100  0.08602200  1
  C  C15  1  0.24128300  0.54218200  0.03782500  1
  C  C16  1  0.66820400  0.46075600  0.91362200  1
  C  C17  1  0.76025600  0.44394200  0.96188000  1
  C  C18  1  0.71462700  0.45607800  0.05131800  1
  C  C19  1  0.57358900  0.48405100  0.09472800  1
  C  C20  1  0.81231700  0.43923900  0.09661300  1
  C  C21  1  0.77195900  0.45029800  0.18627900  1
  C  C22  1  0.53397800  0.49415500  0.18618000  1
  C  C23  1  0.25649100  0.89428300  0.47738100  1
  C  C24  1  0.12672400  0.95246900  0.50485700  1
  C  C25  1  0.11357400  0.05833000  0.55164800  1
  C  C26  1  0.23375000  0.11396800  0.56008900  1
  C  C27  1  0.36841200  0.06296100  0.52292300  1
  C  C28  1  0.37600100  0.94282200  0.49500300  1
  C  C29  1  0.50204400  0.87637500  0.48514300  1
  C  C30  1  0.62331700  0.93931200  0.48654100  1
  C  C31  1  0.62134900  0.06433200  0.49542400  1
  C  C32  1  0.49444900  0.12813200  0.51396100  1
  C  C33  1  0.81302400  0.66954400  0.60498200  1
  C  C34  1  0.85594800  0.74897900  0.65792000  1
  C  C35  1  0.99386700  0.74685100  0.65886300  1
  C  C36  1  0.08809800  0.66555600  0.60683500  1
  C  C37  1  0.04749500  0.58310400  0.55265100  1
  C  C38  1  0.90621100  0.58563700  0.55200700  1
  C  C39  1  0.95378900  0.42779400  0.45058400  1
  C  C40  1  0.09450200  0.42476300  0.45066800  1
  I  I1  1  0.22639300  0.29413300  0.36791700  1
  N  N1  1  0.86037800  0.50757700  0.50061500  1
  N  N2  1  0.14239200  0.50217600  0.50158400  1
  O  O1  1  0.38862900  0.68157400  0.49191100  1
  O  O2  1  0.62162800  0.68365800  0.48843100  1
  O  O3  1  0.32093200  0.50936700  0.63070400  1
  O  O4  1  0.55405900  0.51252900  0.62903600  1
  O  O5  1  0.38344400  0.32038000  0.50664500  1
  O  O6  1  0.61865400  0.32111500  0.50658000  1
  O  O7  1  0.44942100  0.49056800  0.36953800  1
  O  O8  1  0.68577700  0.48921300  0.36802000  1
