# Generated by REPEAT Assigner based on pymatgen
data_DB0-m29_o97_o90_f0_pts.sym.9
_audit_creation_date              2022-05-24
_audit_creation_method            REPEAT_Assigner
_cell_length_a                    17.586739
_cell_length_b                    16.882059
_cell_length_c                    11.327464
_cell_angle_alpha                 108.224430
_cell_angle_beta                  82.814826
_cell_angle_gamma                 109.038636
_cell_volume                      3018.694564
_symmetry_space_group_name_H-M    P1
_symmetry_Int_Tables_number       1
loop_
    _symmetry_equiv_pos_site_id
    _symmetry_equiv_pos_as_xyz
    1  x,y,z
loop_
    _atom_site_type_symbol
    _atom_site_label
    _atom_site_fract_x
    _atom_site_fract_y
    _atom_site_fract_z
    _atom_type_partial_charge
    C   C1   0.255130  0.031220  0.199064  -0.217607
    C   C2   0.130426  0.056591  0.268790  -0.352961
    C   C3   0.310291  0.013878  0.105601  -0.025089
    C   C4   0.291082  0.995403  0.982348  -0.045210
    C   C5   0.180974  0.031001  0.172777  0.265661
    C   C6   0.158507  0.007925  0.051742  -0.137922
    C   C7   0.212178  0.986470  0.956358  0.181158
    C   C8   0.184061  0.951313  0.836801  -0.356580
    C   C9   0.055500  0.056024  0.245681  0.308708
    C   C10  0.027766  0.022991  0.123968  -0.087346
    C   C11  0.082178  0.005503  0.026623  0.098357
    C   C12  0.060646  0.986458  0.904684  -0.194713
    C   C13  0.110933  0.954138  0.808851  0.444322
    C   C14  0.885813  0.000305  0.184568  -0.094734
    C   C15  0.948029  0.008512  0.096623  0.102584
    C   C16  0.929419  0.000031  0.977486  -0.044115
    C   C17  0.987564  0.995571  0.883009  0.194040
    C   C18  0.971872  0.003487  0.770805  -0.206521
    C   C19  0.809259  0.992941  0.158630  -0.143943
    C   C20  0.791048  0.990459  0.041979  0.076829
    C   C21  0.852473  0.996167  0.952530  0.019389
    C   C22  0.837311  0.999256  0.837996  0.164859
    C   C23  0.713256  0.982989  0.013325  -0.033265
    C   C24  0.700025  0.987835  0.897878  0.065308
    C   C25  0.897705  0.005744  0.749081  -0.139067
    C   C26  0.762452  0.997952  0.812380  -0.251603
    H   H1   0.272083  0.048957  0.294549  0.133198
    H   H2   0.150215  0.079793  0.363566  0.183463
    H   H3   0.217116  0.916769  0.763772  0.195650
    H   H4   0.893158  0.994348  0.273964  0.117778
    H   H5   0.017656  0.014191  0.700618  0.142710
    H   H6   0.765893  0.991131  0.234351  0.147363
    H   H7   0.887181  0.012046  0.660922  0.132049
    H   H8   0.751340  0.000333  0.722023  0.185297
    O   O1   0.594626  0.018378  0.115381  -0.513426
    C   C27  0.645542  0.974000  0.104125  0.499425
    O   O2   0.467320  0.814367  0.148343  -0.422674
    O   O3   0.633561  0.918947  0.169353  -0.460050
    O   O4   0.497864  0.914271  0.336952  -0.444067
    C   C28  0.479016  0.832400  0.267299  0.446218
    Fe  Fe1  0.510958  0.001602  0.247108  1.428402
    O   O5   0.403936  0.958078  0.166496  -0.586419
    O   O6   0.443404  0.101509  0.172589  -0.531296
    C   C29  0.389885  0.023673  0.143704  0.730875
    O   O7   0.543941  0.119993  0.372512  -0.613974
    O   O8   0.422768  0.059282  0.455719  -0.563640
    C   C30  0.488318  0.125706  0.460609  0.663527
    O   O9   0.451573  0.871805  0.634732  -0.624879
    O   O10  0.569219  0.922099  0.535111  -0.551880
    C   C31  0.500652  0.860810  0.538115  0.688908
    O   O11  0.608843  0.032393  0.809949  -0.587501
    O   O12  0.559485  0.907523  0.867941  -0.491934
    C   C32  0.619649  0.976564  0.859950  0.588972
    O   O13  0.348358  0.016297  0.784163  -0.492457
    O   O14  0.502127  0.076439  0.659617  -0.481879
    C   C33  0.499000  0.153006  0.732706  0.502663
    O   O15  0.423208  0.983481  0.898718  -0.516504
    C   C34  0.355138  0.995080  0.883470  0.552889
    O   O16  0.496769  0.167355  0.853648  -0.500610
    Fe  Fe2  0.495614  0.992101  0.751626  1.445737
    C   C35  0.494167  0.209756  0.553457  -0.036382
    C   C36  0.493553  0.277345  0.510159  0.062156
    H   H9   0.490547  0.265017  0.411111  0.076450
    C   C37  0.493269  0.357549  0.591245  -0.436291
    C   C38  0.496357  0.370562  0.717394  0.087718
    H   H10  0.496546  0.432659  0.783515  0.056152
    C   C39  0.498531  0.303787  0.761429  -0.172685
    H   H11  0.500989  0.316333  0.860634  0.142557
    C   C40  0.496925  0.222429  0.680693  0.078644
    N   N1   0.489267  0.505922  0.621989  -0.287641
    N   N2   0.483934  0.568137  0.578849  -0.231366
    C   C41  0.476649  0.553080  0.456245  0.790292
    N   N3   0.474974  0.474100  0.377676  -0.263521
    N   N4   0.480422  0.411887  0.420819  -0.267364
    C   C42  0.487840  0.427043  0.543456  0.811868
    C   C43  0.463870  0.609281  0.283796  0.117765
    H   H12  0.456241  0.545136  0.218437  0.045253
    C   C44  0.464705  0.677353  0.240097  -0.195303
    H   H13  0.457403  0.663845  0.141772  0.143904
    C   C45  0.476504  0.761369  0.319644  0.118572
    C   C46  0.485501  0.775117  0.445871  -0.068785
    C   C47  0.482145  0.706222  0.489043  0.096929
    H   H14  0.490280  0.719569  0.587066  0.045325
    C   C48  0.473197  0.623504  0.408748  -0.455547
    O   O17  0.013053  0.094605  0.343784  -0.294269
    C   C49  0.042358  0.184184  0.355644  0.075655
    H   H15  0.068969  0.195378  0.266002  0.020923
    H   H16  0.088656  0.216649  0.428013  0.026725
    H   H17  0.992068  0.212864  0.383201  0.051157
    O   O18  0.083699  0.910250  0.690376  -0.346376
    C   C50  0.137076  0.953275  0.611216  0.126662
    H   H18  0.183570  0.920162  0.572061  0.055078
    H   H19  0.165610  0.022998  0.661986  0.002586
    H   H20  0.103244  0.950725  0.533098  0.030684
