data_DB0-m3_o11_o29_f0_pcu.sym.28_repeat
_audit_creation_date              2024-02-20
_audit_creation_method            'Materials Studio'
_symmetry_space_group_name_H-M    'P1'
_symmetry_Int_Tables_number       1
_symmetry_cell_setting            triclinic
loop_
_symmetry_equiv_pos_as_xyz
  x,y,z
_cell_length_a                    27.6335
_cell_length_b                    11.1564
_cell_length_c                    9.9491
_cell_angle_alpha                 89.9974
_cell_angle_beta                  89.9930
_cell_angle_gamma                 89.9937
loop_
_atom_site_label
_atom_site_type_symbol
_atom_site_fract_x
_atom_site_fract_y
_atom_site_fract_z
_atom_site_U_iso_or_equiv
_atom_site_adp_type
_atom_site_occupancy
O1     O     0.50379   0.32261   0.62210   0.00000  Uiso   1.00
O2     O     0.50043   0.31899   0.39092   0.00000  Uiso   1.00
C1     C     0.50225   0.26471   0.50744   0.00000  Uiso   1.00
O3     O     0.43125   0.49907   0.62822   0.00000  Uiso   1.00
O4     O     0.42764   0.49741   0.39654   0.00000  Uiso   1.00
C2     C     0.40679   0.49781   0.51497   0.00000  Uiso   1.00
Zn1    Zn    0.50410   0.50230   0.65187   0.00000  Uiso   1.00
Zn2    Zn    0.49869   0.49613   0.34673   0.00000  Uiso   1.00
O5     O     0.50226   0.67950   0.60810   0.00000  Uiso   1.00
O6     O     0.49921   0.67596   0.37617   0.00000  Uiso   1.00
O7     O     0.57514   0.50196   0.60189   0.00000  Uiso   1.00
O8     O     0.57153   0.49951   0.37044   0.00000  Uiso   1.00
C3     C     0.50048   0.73396   0.49138   0.00000  Uiso   1.00
C4     C     0.59600   0.50092   0.48359   0.00000  Uiso   1.00
C5     C     0.17702   0.40977   0.57805   0.00000  Uiso   1.00
O9     O     0.20129   0.31672   0.63110   0.00000  Uiso   1.00
N1     N     0.20174   0.50278   0.52574   0.00000  Uiso   1.00
C6     C     0.17798   0.59550   0.46945   0.00000  Uiso   1.00
C7     C     0.27928   0.49688   0.64317   0.00000  Uiso   1.00
C8     C     0.32926   0.49587   0.64084   0.00000  Uiso   1.00
C9     C     0.32760   0.50143   0.40091   0.00000  Uiso   1.00
C10    C     0.27780   0.50303   0.40358   0.00000  Uiso   1.00
C11    C     0.25339   0.50098   0.52446   0.00000  Uiso   1.00
C12    C     0.10197   0.50109   0.51489   0.00000  Uiso   1.00
C13    C     0.12694   0.40801   0.57352   0.00000  Uiso   1.00
C14    C     0.10182   0.31207   0.62456   0.00000  Uiso   1.00
C15    C     0.12796   0.59562   0.46312   0.00000  Uiso   1.00
C16    C     0.35371   0.49819   0.51949   0.00000  Uiso   1.00
H1     H     0.34558   0.50305   0.30450   0.00000  Uiso   1.00
H2     H     0.25792   0.50472   0.31000   0.00000  Uiso   1.00
H3     H     0.12037   0.23650   0.66878   0.00000  Uiso   1.00
C17    C     0.64909   0.50086   0.47915   0.00000  Uiso   1.00
C18    C     0.97537   0.40597   0.56158   0.00000  Uiso   1.00
C19    C     0.97695   0.58738   0.42975   0.00000  Uiso   1.00
C20    C     0.95124   0.49586   0.49187   0.00000  Uiso   1.00
C21    C     0.94787   0.31997   0.62871   0.00000  Uiso   1.00
C22    C     0.89828   0.32071   0.62221   0.00000  Uiso   1.00
C23    C     0.87458   0.40730   0.54948   0.00000  Uiso   1.00
C24    C     0.90091   0.49449   0.48460   0.00000  Uiso   1.00
C25    C     0.87628   0.58061   0.41295   0.00000  Uiso   1.00
C26    C     0.82620   0.57945   0.40846   0.00000  Uiso   1.00
N2     N     0.80111   0.49391   0.47392   0.00000  Uiso   1.00
C27    C     0.82456   0.40790   0.54322   0.00000  Uiso   1.00
C28    C     0.72354   0.49095   0.35611   0.00000  Uiso   1.00
C29    C     0.67357   0.49293   0.35817   0.00000  Uiso   1.00
C30    C     0.67515   0.50766   0.59757   0.00000  Uiso   1.00
C31    C     0.72496   0.50589   0.59522   0.00000  Uiso   1.00
C32    C     0.74943   0.49692   0.47478   0.00000  Uiso   1.00
O10    O     0.79911   0.32126   0.60498   0.00000  Uiso   1.00
C33    C     0.02609   0.40460   0.56363   0.00000  Uiso   1.00
C34    C     0.05165   0.49944   0.50750   0.00000  Uiso   1.00
C35    C     0.02737   0.59248   0.44369   0.00000  Uiso   1.00
C36    C     0.05220   0.30997   0.61962   0.00000  Uiso   1.00
H4     H     0.65406   0.48714   0.26425   0.00000  Uiso   1.00
H5     H     0.74227   0.48293   0.26113   0.00000  Uiso   1.00
H6     H     0.87861   0.25235   0.67635   0.00000  Uiso   1.00
H7     H     0.96307   0.25141   0.69161   0.00000  Uiso   1.00
H8     H     0.03583   0.22966   0.65800   0.00000  Uiso   1.00
O11    O     0.20315   0.68888   0.42049   0.00000  Uiso   1.00
C37    C     0.10387   0.69042   0.40590   0.00000  Uiso   1.00
H9     H     0.34878   0.49337   0.73491   0.00000  Uiso   1.00
H10    H     0.26053   0.49603   0.73854   0.00000  Uiso   1.00
H11    H     0.12317   0.76722   0.36716   0.00000  Uiso   1.00
C38    C     0.95136   0.67120   0.35384   0.00000  Uiso   1.00
C39    C     0.90180   0.66787   0.34622   0.00000  Uiso   1.00
O12    O     0.80233   0.66628   0.34235   0.00000  Uiso   1.00
C40    C     0.05435   0.68935   0.39653   0.00000  Uiso   1.00
H12    H     0.96828   0.74017   0.29498   0.00000  Uiso   1.00
H13    H     0.65714   0.51462   0.69364   0.00000  Uiso   1.00
H14    H     0.88361   0.73517   0.28666   0.00000  Uiso   1.00
H15    H     0.74476   0.51246   0.68864   0.00000  Uiso   1.00
H16    H     0.03859   0.76882   0.35415   0.00000  Uiso   1.00
C41    C     0.50241   0.93703   0.38691   0.00000  Uiso   1.00
C42    C     0.49936   0.86586   0.49542   0.00000  Uiso   1.00
H17    H     0.49574   0.90362   0.59470   0.00000  Uiso   1.00
C43    C     0.50115   0.06962   0.39592   0.00000  Uiso   1.00
C44    C     0.50316   0.13320   0.51034   0.00000  Uiso   1.00
H18    H     0.49931   0.11709   0.30109   0.00000  Uiso   1.00
H19    H     0.50626   0.09144   0.60785   0.00000  Uiso   1.00
C45    C     0.47967   0.57126   0.92292   0.00000  Uiso   1.00
N3     N     0.50951   0.50980   0.85218   0.00000  Uiso   1.00
H20    H     0.45162   0.62290   0.87347   0.00000  Uiso   1.00
H21    H     0.53922   0.47746   0.90271   0.00000  Uiso   1.00
C46    C     0.48572   0.58098   0.07016   0.00000  Uiso   1.00
N4     N     0.49449   0.48980   0.14611   0.00000  Uiso   1.00
H22    H     0.48341   0.66929   0.11471   0.00000  Uiso   1.00
N5     N     0.50677   0.88564   0.25617   0.00000  Uiso   1.00
H23    H     0.53850   0.91879   0.21303   0.00000  Uiso   1.00
H24    H     0.47752   0.91562   0.19887   0.00000  Uiso   1.00
N6     N     0.47932   0.37917   0.09736   0.00000  Uiso   1.00
H25    H     0.50612   0.34219   0.03640   0.00000  Uiso   1.00
H26    H     0.44634   0.38863   0.04727   0.00000  Uiso   1.00
