# Generated by REPEAT Assigner based on pymatgen
data_DB0-m3_o7_o22_f0_nbo.sym.29_sqe
_audit_creation_date              2022-05-24
_audit_creation_method            REPEAT_Assigner
_cell_length_a                    41.329126
_cell_length_b                    35.551918
_cell_length_c                    21.497902
_cell_angle_alpha                 90.000000
_cell_angle_beta                  59.520033
_cell_angle_gamma                 90.000000
_cell_volume                      27222.319334
_symmetry_space_group_name_H-M    P1
_symmetry_Int_Tables_number       1
loop_
    _symmetry_equiv_pos_site_id
    _symmetry_equiv_pos_as_xyz
    1  x,y,z
loop_
    _atom_site_type_symbol
    _atom_site_label
    _atom_site_fract_x
    _atom_site_fract_y
    _atom_site_fract_z
    _atom_type_partial_charge
    O   O1    0.943971  0.533042  0.557134  -0.640166
    O   O2    0.055902  0.531183  0.445830  -0.655804
    O   O3    0.443971  0.033042  0.557134  -0.640153
    O   O4    0.555902  0.031183  0.445830  -0.655783
    O   O5    0.944045  0.468292  0.554627  -0.711199
    O   O6    0.056087  0.466446  0.442434  -0.697425
    O   O7    0.444045  0.968292  0.554627  -0.711181
    O   O8    0.556087  0.966446  0.442434  -0.697420
    C   C1    0.926314  0.500682  0.573526  0.735527
    C   C2    0.073688  0.498890  0.426505  0.736480
    C   C3    0.426314  0.000682  0.573526  0.735486
    C   C4    0.573688  0.998890  0.426505  0.736489
    O   O9    0.998505  0.531315  0.408965  -0.688687
    O   O10   0.999808  0.532997  0.593078  -0.665597
    O   O11   0.498505  0.031315  0.408965  -0.688679
    O   O12   0.499808  0.032997  0.593078  -0.665590
    O   O13   0.999888  0.466470  0.407243  -0.620299
    O   O14   0.001818  0.468169  0.590716  -0.639697
    O   O15   0.499888  0.966470  0.407243  -0.620291
    O   O16   0.501818  0.968169  0.590716  -0.639692
    C   C5    0.998874  0.498928  0.379382  0.388046
    C   C6    0.001138  0.500529  0.620616  0.382591
    C   C7    0.498874  0.998928  0.379382  0.388026
    C   C8    0.501138  0.000529  0.620616  0.382570
    Zn  Zn1   0.000086  0.542281  0.499859  1.325292
    Zn  Zn2   0.500086  0.042281  0.499859  1.325282
    Zn  Zn3   0.999921  0.457204  0.500155  1.317430
    Zn  Zn4   0.499921  0.957204  0.500155  1.317421
    C   C9    0.965474  0.521969  0.319353  -0.200299
    C   C10   0.033281  0.524900  0.682159  -0.214770
    C   C11   0.465474  0.021969  0.319353  -0.200278
    C   C12   0.533281  0.024900  0.682159  -0.214789
    H   H1    0.965443  0.550451  0.340359  0.072318
    H   H2    0.031815  0.553435  0.662958  0.072372
    H   H3    0.465443  0.050451  0.340359  0.072315
    H   H4    0.531815  0.053435  0.662958  0.072378
    H   H5    0.939013  0.507417  0.357802  0.012750
    H   H6    0.060470  0.511818  0.642839  0.017151
    H   H7    0.439013  0.007417  0.357802  0.012745
    H   H8    0.560470  0.011818  0.642839  0.017155
    C   C13   0.967872  0.525893  0.246993  -0.047569
    C   C14   0.030686  0.528384  0.754755  -0.033296
    C   C15   0.467872  0.025893  0.246993  -0.047583
    C   C16   0.530686  0.028384  0.754755  -0.033285
    H   H9    0.940247  0.518090  0.254008  0.015144
    H   H10   0.058682  0.521948  0.747292  0.012925
    H   H11   0.440247  0.018090  0.254008  0.015145
    H   H12   0.558682  0.021948  0.747292  0.012927
    H   H13   0.974127  0.555522  0.228578  0.034282
    H   H14   0.022898  0.557590  0.775019  0.032351
    H   H15   0.474127  0.055522  0.228578  0.034284
    H   H16   0.522898  0.057590  0.775019  0.032349
    H   H17   0.034715  0.547561  0.264509  0.053020
    H   H18   0.962792  0.546865  0.738461  0.053733
    H   H19   0.534715  0.047561  0.264509  0.053025
    H   H20   0.462792  0.046865  0.738461  0.053731
    C   C17   0.034538  0.517322  0.252037  -0.149897
    C   C18   0.964557  0.516625  0.749040  -0.148272
    C   C19   0.534538  0.017322  0.252037  -0.149904
    C   C20   0.464557  0.016625  0.749040  -0.148273
    C   C21   0.995837  0.459278  0.287763  0.159655
    C   C22   0.006246  0.460690  0.709751  0.173561
    C   C23   0.495837  0.959278  0.287763  0.159633
    C   C24   0.506246  0.960690  0.709751  0.173568
    C   C25   0.998686  0.499213  0.310219  0.493930
    C   C26   0.001310  0.500527  0.689796  0.496243
    C   C27   0.498686  0.999213  0.310219  0.493933
    C   C28   0.501310  0.000527  0.689796  0.496262
    H   H21   0.971089  0.444791  0.332079  -0.008528
    H   H22   0.031724  0.447615  0.664578  -0.008379
    H   H23   0.471089  0.944791  0.332079  -0.008524
    H   H24   0.531724  0.947615  0.664578  -0.008380
    C   C29   0.998667  0.500276  0.192412  0.170601
    C   C30   0.001268  0.501084  0.807672  0.176635
    C   C31   0.498667  0.000276  0.192412  0.170604
    C   C32   0.501268  0.001084  0.807672  0.176618
    C   C33   0.036492  0.513628  0.180130  0.190170
    C   C34   0.962798  0.512541  0.820711  0.185758
    C   C35   0.536492  0.013628  0.180130  0.190168
    C   C36   0.462798  0.012541  0.820711  0.185766
    C   C37   0.991154  0.460641  0.222419  0.344106
    C   C38   0.010840  0.461994  0.775202  0.324698
    C   C39   0.491154  0.960641  0.222419  0.344121
    C   C40   0.510840  0.961994  0.775202  0.324683
    H   H25   0.962060  0.452390  0.238499  -0.031652
    H   H26   0.040322  0.455224  0.758679  -0.030048
    H   H27   0.462060  0.952390  0.238499  -0.031652
    H   H28   0.540322  0.955224  0.758679  -0.030043
    H   H29   0.059329  0.503563  0.249206  0.038123
    H   H30   0.940522  0.501669  0.750961  0.037580
    H   H31   0.559329  0.003563  0.249206  0.038124
    H   H32   0.440522  0.001669  0.750961  0.037576
    H   H33   0.058788  0.493107  0.146333  0.036483
    H   H34   0.941602  0.490832  0.853189  0.037916
    H   H35   0.558788  0.993107  0.146333  0.036481
    H   H36   0.441602  0.990832  0.853189  0.037911
    C   C41   0.674270  0.498435  0.883891  -0.402993
    C   C42   0.325723  0.499484  0.115830  -0.403348
    C   C43   0.174270  0.998435  0.883891  -0.403004
    C   C44   0.825723  0.999484  0.115830  -0.403362
    H   H37   0.690180  0.497697  0.911173  0.201033
    H   H38   0.309806  0.500010  0.088551  0.201342
    H   H39   0.190180  0.997697  0.911173  0.201035
    H   H40   0.809806  0.000010  0.088551  0.201346
    C   C45   0.635561  0.499013  0.923681  0.381883
    C   C46   0.364430  0.500239  0.076081  0.380338
    C   C47   0.135561  0.999013  0.923681  0.381881
    C   C48   0.864430  0.000239  0.076081  0.380344
    C   C49   0.614955  0.500040  0.888939  -0.100571
    C   C50   0.385043  0.499649  0.110827  -0.100335
    C   C51   0.114955  0.000040  0.888939  -0.100565
    C   C52   0.885043  0.999649  0.110827  -0.100338
    C   C53   0.633845  0.500473  0.814188  -0.092410
    C   C54   0.366162  0.498299  0.185537  -0.092777
    C   C55   0.133845  0.000473  0.814188  -0.092409
    C   C56   0.866162  0.998299  0.185537  -0.092771
    H   H41   0.618729  0.501257  0.785385  0.141759
    H   H42   0.381283  0.497792  0.214342  0.141820
    H   H43   0.118729  0.001257  0.785385  0.141760
    H   H44   0.881283  0.997792  0.214342  0.141820
    C   C57   0.672537  0.499888  0.774861  -0.267127
    C   C58   0.327473  0.497550  0.224822  -0.268243
    C   C59   0.172537  0.999888  0.774861  -0.267142
    C   C60   0.827473  0.997550  0.224822  -0.268254
    H   H45   0.687027  0.500286  0.716561  0.157154
    H   H46   0.312990  0.496552  0.283096  0.157542
    H   H47   0.187027  0.000286  0.716561  0.157159
    H   H48   0.812990  0.996552  0.283096  0.157544
    C   C61   0.692764  0.498842  0.809641  0.361067
    C   C62   0.307238  0.498116  0.190038  0.363567
    C   C63   0.192764  0.998842  0.809641  0.361098
    C   C64   0.807238  0.998116  0.190038  0.363587
    C   C65   0.733051  0.498551  0.768633  -0.207280
    C   C66   0.266953  0.497650  0.231038  -0.208777
    C   C67   0.233051  0.998551  0.768633  -0.207324
    C   C68   0.766953  0.997650  0.231038  -0.208793
    C   C69   0.766879  0.498594  0.734272  -0.011564
    C   C70   0.233126  0.497543  0.265432  -0.010656
    C   C71   0.266879  0.998594  0.734272  -0.011489
    C   C72   0.733126  0.997543  0.265432  -0.010643
    C   C73   0.827111  0.465975  0.671929  -0.196333
    C   C74   0.173006  0.464652  0.324449  -0.184546
    C   C75   0.327111  0.965975  0.671929  -0.196153
    C   C76   0.673006  0.964652  0.324449  -0.184565
    H   H49   0.812394  0.439389  0.685718  0.152986
    H   H50   0.187813  0.438145  0.307878  0.149087
    H   H51   0.312394  0.939389  0.685718  0.152959
    H   H52   0.687813  0.938145  0.307878  0.149090
    C   C77   0.865829  0.466619  0.632884  -0.133069
    C   C78   0.134287  0.465115  0.363598  -0.146000
    C   C79   0.365829  0.966619  0.632884  -0.133210
    C   C80   0.634287  0.965115  0.363598  -0.145953
    H   H53   0.880770  0.440193  0.616748  0.161534
    H   H54   0.119438  0.438628  0.376981  0.167177
    H   H55   0.380770  0.940193  0.616748  0.161553
    H   H56   0.619438  0.938628  0.376981  0.167167
    C   C81   0.884983  0.500531  0.614984  -0.099593
    C   C82   0.115018  0.498927  0.385031  -0.099877
    C   C83   0.384983  0.000531  0.614984  -0.099450
    C   C84   0.615018  0.998927  0.385031  -0.099971
    C   C85   0.864634  0.533849  0.636865  0.197758
    C   C86   0.135254  0.532327  0.366605  0.207279
    C   C87   0.364634  0.033849  0.636865  0.197581
    C   C88   0.635254  0.032327  0.366605  0.207405
    C   C89   0.825942  0.532939  0.675874  0.235695
    C   C90   0.173948  0.531599  0.327466  0.227766
    C   C91   0.325942  0.032939  0.675874  0.235940
    C   C92   0.673948  0.031599  0.327466  0.227701
    C   C93   0.807168  0.499118  0.693449  0.039104
    C   C94   0.192836  0.497878  0.306350  0.037643
    C   C95   0.307168  0.999118  0.693449  0.038854
    C   C96   0.692836  0.997878  0.306350  0.037656
    O   O17   0.968447  0.556472  0.032473  -0.688886
    O   O18   0.033209  0.556678  0.966702  -0.672828
    O   O19   0.468447  0.056472  0.032473  -0.688898
    O   O20   0.533209  0.056678  0.966702  -0.672833
    C   C97   0.000785  0.574178  0.999787  0.667234
    C   C98   0.500785  0.074178  0.999787  0.667249
    O   O21   0.966471  0.499293  0.125297  -0.696316
    O   O22   0.033473  0.501430  0.874776  -0.697024
    O   O23   0.466471  0.999293  0.125297  -0.696315
    O   O24   0.533473  0.001430  0.874776  -0.697025
    O   O25   0.031193  0.501329  0.062391  -0.673055
    O   O26   0.968733  0.500045  0.937702  -0.670849
    O   O27   0.531193  0.001329  0.062391  -0.673056
    O   O28   0.468733  0.000045  0.937702  -0.670852
    C   C99   0.998778  0.500502  0.122939  0.587040
    C   C100  0.001146  0.501013  0.877157  0.583697
    C   C101  0.498778  0.000502  0.122939  0.587036
    C   C102  0.501146  0.001013  0.877157  0.583703
    Zn  Zn5   0.957450  0.500542  0.041103  1.321614
    Zn  Zn6   0.042479  0.500443  0.958995  1.321949
    Zn  Zn7   0.457450  0.000542  0.041103  1.321609
    Zn  Zn8   0.542479  0.000443  0.958995  1.321945
    O   O29   0.966737  0.444333  0.032961  -0.677851
    O   O30   0.031461  0.444539  0.968055  -0.692022
    O   O31   0.466737  0.944333  0.032961  -0.677838
    O   O32   0.531461  0.944539  0.968055  -0.692015
    C   C103  0.999143  0.426812  0.000313  0.622716
    C   C104  0.499143  0.926812  0.000313  0.622713
    O   O33   0.499238  0.444341  0.948672  -0.691478
    O   O34   0.500864  0.444285  0.054265  -0.672607
    O   O35   0.999238  0.944341  0.948672  -0.691464
    O   O36   0.000864  0.944285  0.054265  -0.672583
    C   C105  0.500042  0.426693  0.001470  0.619714
    C   C106  0.000042  0.926693  0.001470  0.619705
    O   O37   0.555917  0.501242  0.893492  -0.691218
    O   O38   0.444080  0.499544  0.106308  -0.692143
    O   O39   0.055917  0.001242  0.893492  -0.691220
    O   O40   0.944080  0.999544  0.106308  -0.692146
    O   O41   0.555934  0.499656  0.000534  -0.653754
    O   O42   0.444061  0.501069  0.999267  -0.653314
    O   O43   0.055934  0.999656  0.000534  -0.653749
    O   O44   0.944061  0.001069  0.999267  -0.653310
    C   C107  0.573623  0.500437  0.929773  0.695464
    C   C108  0.426373  0.500203  0.070025  0.696708
    C   C109  0.073623  0.000437  0.929773  0.695457
    C   C110  0.926373  0.000203  0.070025  0.696705
    Zn  Zn9   0.500134  0.500232  0.929442  1.314343
    Zn  Zn10  0.499862  0.500510  0.070367  1.315794
    Zn  Zn11  0.000134  0.000232  0.929442  1.314335
    Zn  Zn12  0.999862  0.000510  0.070367  1.315786
    O   O45   0.499154  0.556489  0.945535  -0.668569
    O   O46   0.500736  0.556431  0.051143  -0.687413
    O   O47   0.999154  0.056489  0.945535  -0.668568
    O   O48   0.000736  0.056431  0.051143  -0.687422
    C   C111  0.499952  0.574097  0.998341  0.579750
    C   C112  0.999952  0.074097  0.998341  0.579740
    C   C113  0.499313  0.327095  0.946613  0.427979
    C   C114  0.500956  0.327048  0.055913  0.430001
    C   C115  0.999313  0.827095  0.946613  0.427973
    C   C116  0.000956  0.827048  0.055913  0.429997
    C   C117  0.499260  0.365867  0.946589  -0.455783
    C   C118  0.500910  0.365820  0.056124  -0.455887
    C   C119  0.999260  0.865867  0.946589  -0.455777
    C   C120  0.000910  0.865820  0.056124  -0.455884
    H   H57   0.498592  0.380478  0.903191  0.218630
    H   H58   0.501549  0.380394  0.099585  0.216685
    H   H59   0.998592  0.880478  0.903191  0.218628
    H   H60   0.001549  0.880394  0.099585  0.216681
    C   C121  0.500065  0.385460  0.001399  0.260829
    C   C122  0.000065  0.885460  0.001399  0.260823
    C   C123  0.500163  0.307701  0.001212  -0.164805
    C   C124  0.000163  0.807701  0.001212  -0.164795
    C   C125  0.500246  0.267371  0.001077  -0.026762
    C   C126  0.000246  0.767371  0.001077  -0.026775
    C   C127  0.000329  0.733495  0.000934  -0.029146
    C   C128  0.500329  0.233495  0.000934  -0.029158
    C   C129  0.033965  0.673894  0.966559  0.416955
    C   C130  0.967029  0.673696  0.034639  0.412387
    C   C131  0.533965  0.173894  0.966559  0.416952
    C   C132  0.467029  0.173696  0.034639  0.412387
    C   C133  0.034150  0.635123  0.966210  -0.409166
    C   C134  0.967068  0.634924  0.034437  -0.404868
    C   C135  0.534150  0.135123  0.966210  -0.409170
    C   C136  0.467068  0.134924  0.034437  -0.404875
    H   H61   0.060791  0.620612  0.939040  0.208236
    H   H62   0.940511  0.620254  0.061375  0.208271
    H   H63   0.560791  0.120612  0.939040  0.208239
    H   H64   0.440511  0.120254  0.061375  0.208275
    C   C137  0.000666  0.615407  0.000170  0.190919
    C   C138  0.500666  0.115407  0.000170  0.190921
    C   C139  0.000441  0.693165  0.000724  -0.152159
    C   C140  0.500441  0.193165  0.000724  -0.152149
    C   C141  0.500670  0.673739  0.053231  -0.204634
    C   C142  0.498998  0.673802  0.943983  -0.200212
    C   C143  0.000670  0.173739  0.053231  -0.204630
    C   C144  0.998998  0.173802  0.943983  -0.200208
    H   H65   0.501296  0.688939  0.096150  0.145199
    H   H66   0.498313  0.689052  0.901171  0.144438
    H   H67   0.001296  0.188939  0.096150  0.145198
    H   H68   0.998313  0.189052  0.901171  0.144436
    C   C145  0.500733  0.634956  0.053232  -0.177755
    C   C146  0.499057  0.635019  0.943738  -0.181680
    C   C147  0.000733  0.134956  0.053232  -0.177769
    C   C148  0.999057  0.135019  0.943738  -0.181696
    H   H69   0.501416  0.620340  0.096611  0.141709
    H   H70   0.498410  0.620451  0.900279  0.141476
    H   H71   0.001416  0.120340  0.096611  0.141716
    H   H72   0.998410  0.120451  0.900279  0.141481
    C   C149  0.499920  0.615353  0.998430  0.179136
    C   C150  0.999920  0.115353  0.998430  0.179156
    C   C151  0.499799  0.693161  0.998673  0.279733
    C   C152  0.999799  0.193161  0.998673  0.279735
    C   C153  0.499705  0.733515  0.998842  -0.152902
    C   C154  0.999705  0.233515  0.998842  -0.152908
    C   C155  0.999615  0.267403  0.999021  -0.159009
    C   C156  0.499615  0.767403  0.999021  -0.159016
    C   C157  0.032907  0.327249  0.965828  -0.217239
    C   C158  0.965973  0.327045  0.033023  -0.214628
    C   C159  0.532907  0.827249  0.965828  -0.217238
    C   C160  0.465973  0.827045  0.033023  -0.214627
    H   H73   0.059216  0.312103  0.939351  0.139649
    H   H74   0.939756  0.311740  0.059277  0.139482
    H   H75   0.559216  0.812103  0.939351  0.139649
    H   H76   0.439756  0.811740  0.059277  0.139481
    C   C161  0.032867  0.366032  0.966068  -0.124976
    C   C162  0.965782  0.365827  0.033413  -0.129119
    C   C163  0.532867  0.866032  0.966068  -0.124978
    C   C164  0.465782  0.865827  0.033413  -0.129120
    H   H77   0.059426  0.380704  0.939488  0.135428
    H   H78   0.939136  0.380337  0.060250  0.135194
    H   H79   0.559426  0.880704  0.939488  0.135429
    H   H80   0.439136  0.880337  0.060250  0.135193
    C   C165  0.999266  0.385561  0.999912  0.118296
    C   C166  0.499266  0.885561  0.999912  0.118296
    C   C167  0.999498  0.307757  0.999277  0.284111
    C   C168  0.499498  0.807757  0.999277  0.284114
    F   F1    0.015951  0.435817  0.170649  -0.298427
    F   F2    0.987365  0.435790  0.825366  -0.293133
    F   F3    0.515951  0.935817  0.170649  -0.298428
    F   F4    0.487365  0.935790  0.825366  -0.293129
    F   F5    0.618490  0.498568  0.996663  -0.190324
    F   F6    0.381493  0.501580  0.003140  -0.190029
    F   F7    0.118490  0.998568  0.996663  -0.190323
    F   F8    0.881493  0.001580  0.003140  -0.190030
    F   F9    0.881925  0.567801  0.620865  -0.159281
    F   F10   0.117847  0.566187  0.386202  -0.161366
    F   F11   0.381925  0.067801  0.620865  -0.159267
    F   F12   0.617847  0.066187  0.386202  -0.161414
    F   F13   0.806290  0.565545  0.697106  -0.175598
    F   F14   0.193490  0.564288  0.309619  -0.173870
    F   F15   0.306290  0.065545  0.697106  -0.175632
    F   F16   0.693490  0.064288  0.309619  -0.173856
    F   F17   0.498537  0.308032  0.892810  -0.197119
    F   F18   0.501794  0.307939  0.109608  -0.197271
    F   F19   0.998537  0.808032  0.892810  -0.197118
    F   F20   0.001794  0.807939  0.109608  -0.197269
    F   F21   0.066825  0.693077  0.933199  -0.202145
    F   F22   0.934058  0.692684  0.068237  -0.201410
    F   F23   0.566825  0.193077  0.933199  -0.202145
    F   F24   0.434058  0.192684  0.068237  -0.201410
    F   F25   0.045435  0.548292  0.146233  -0.270577
    F   F26   0.952061  0.546585  0.856745  -0.271906
    F   F27   0.545435  0.048292  0.146233  -0.270574
    F   F28   0.452061  0.046585  0.856745  -0.271905
    F   F29   0.027998  0.439211  0.270552  -0.274271
    F   F30   0.975187  0.439016  0.725621  -0.277291
    F   F31   0.527998  0.939211  0.270552  -0.274266
    F   F32   0.475187  0.939016  0.725621  -0.277289
