# generated using pymatgen
data_Fe2H23C42N3O19
_symmetry_space_group_name_H-M   'P 1'
_cell_length_a   15.85435200
_cell_length_b   9.30970100
_cell_length_c   18.39686600
_cell_angle_alpha   90.07042800
_cell_angle_beta   100.16090300
_cell_angle_gamma   97.49024900
_symmetry_Int_Tables_number   1
_chemical_formula_structural   Fe2H23C42N3O19
_chemical_formula_sum   'Fe2 H23 C42 N3 O19'
_cell_volume   2649.15367937
_cell_formula_units_Z   1
loop_
 _symmetry_equiv_pos_site_id
 _symmetry_equiv_pos_as_xyz
  1  'x, y, z'
loop_
 _atom_site_type_symbol
 _atom_site_label
 _atom_site_symmetry_multiplicity
 _atom_site_fract_x
 _atom_site_fract_y
 _atom_site_fract_z
 _atom_site_occupancy
  Fe  Fe1  1  0.49777300  0.99280700  0.83611700  1
  Fe  Fe2  1  0.50371500  0.98982900  0.15739800  1
  H  H1  1  0.81763500  0.95219700  0.91118700  1
  H  H2  1  0.78382400  0.01489300  0.16906500  1
  H  H3  1  0.92815000  0.02677500  0.13731800  1
  H  H4  1  0.50135900  0.73699400  0.62605400  1
  H  H5  1  0.47782700  0.27856800  0.59055500  1
  H  H6  1  0.50381400  0.24650200  0.36837200  1
  H  H7  1  0.52760700  0.70502100  0.40474900  1
  H  H8  1  0.50856900  0.45197800  0.80782700  1
  H  H9  1  0.50145700  0.53328800  0.18763900  1
  H  H10  1  0.46990800  0.63935200  0.50040000  1
  H  H11  1  0.53463600  0.34352700  0.49429900  1
  H  H12  1  0.18353000  0.92716500  0.76883700  1
  H  H13  1  0.20450600  0.05418000  0.66557500  1
  H  H14  1  0.28238200  0.21586900  0.68113200  1
  H  H15  1  0.16952200  0.22727200  0.68099600  1
  H  H16  1  0.05150500  0.92357000  0.79552900  1
  H  H17  1  0.90233300  0.04714300  0.75535200  1
  H  H18  1  0.99111100  0.11406200  0.70923100  1
  H  H19  1  0.93949100  0.23952800  0.75611300  1
  H  H20  1  0.20722700  0.94127800  0.13451200  1
  H  H21  1  0.22747400  0.13657700  0.23894800  1
  H  H22  1  0.11414700  0.06295900  0.22593500  1
  H  H23  1  0.14536700  0.25651200  0.22211300  1
  C  C1  1  0.21150300  0.00369300  0.87927000  1
  C  C2  1  0.12999600  0.00137700  0.89666600  1
  C  C3  1  0.12092500  0.00951600  0.96944800  1
  C  C4  1  0.19197000  0.02044900  0.02532600  1
  C  C5  1  0.27509700  0.02853900  0.00875400  1
  C  C6  1  0.28396500  0.01921200  0.93467600  1
  C  C7  1  0.03604800  0.00002400  0.98784500  1
  C  C8  1  0.96503000  0.99339400  0.00359900  1
  C  C9  1  0.80837500  0.96354500  0.96758400  1
  C  C10  1  0.72622700  0.95926800  0.98432200  1
  C  C11  1  0.71739900  0.97549600  0.05783200  1
  C  C12  1  0.79031500  0.00201300  0.11199600  1
  C  C13  1  0.87153500  0.00740200  0.09442300  1
  C  C14  1  0.88047300  0.98665900  0.02230600  1
  C  C15  1  0.48905900  0.20663400  0.73086500  1
  C  C16  1  0.36870100  0.03047400  0.91204200  1
  C  C17  1  0.65232700  0.95121800  0.92273100  1
  C  C18  1  0.50661100  0.73025300  0.77406500  1
  C  C19  1  0.50191000  0.25487100  0.22068400  1
  C  C20  1  0.35122800  0.04143800  0.06925900  1
  C  C21  1  0.63313600  0.95965300  0.08116700  1
  C  C22  1  0.51758600  0.77770100  0.26439600  1
  C  C23  1  0.50489100  0.60843700  0.72267300  1
  C  C24  1  0.50009200  0.62897900  0.64764600  1
  C  C25  1  0.49401900  0.51167800  0.59965500  1
  C  C26  1  0.48813400  0.37274200  0.62680900  1
  C  C27  1  0.49521700  0.35251000  0.70161300  1
  C  C28  1  0.50508200  0.47000900  0.74945600  1
  C  C29  1  0.49079900  0.53832800  0.52038000  1
  C  C30  1  0.51373800  0.44454800  0.47432200  1
  C  C31  1  0.50574500  0.35477800  0.34705800  1
  C  C32  1  0.50293000  0.37607100  0.27228700  1
  C  C33  1  0.50393300  0.51483500  0.24587800  1
  C  C34  1  0.51264100  0.63193300  0.29379200  1
  C  C35  1  0.51810500  0.61108900  0.36841500  1
  C  C36  1  0.51139900  0.47179800  0.39519400  1
  C  C37  1  0.23610000  0.13726600  0.77766100  1
  C  C38  1  0.22217000  0.15942800  0.69630400  1
  C  C39  1  0.02217000  0.11558100  0.82702900  1
  C  C40  1  0.95983800  0.12987000  0.75750200  1
  C  C41  1  0.15941600  0.13449100  0.12781700  1
  C  C42  1  0.16178700  0.14842800  0.20884900  1
  N  N1  1  0.22219400  0.00334400  0.80469500  1
  N  N2  1  0.05558000  0.99036800  0.84089500  1
  N  N3  1  0.17689600  0.01111500  0.09868000  1
  O  O1  1  0.53053800  0.18644000  0.79752700  1
  O  O2  1  0.42734100  0.14193600  0.93445100  1
  O  O3  1  0.43758000  0.09989400  0.69323700  1
  O  O4  1  0.38324000  0.93615900  0.86395000  1
  O  O5  1  0.57635000  0.97914800  0.93334300  1
  O  O6  1  0.66504800  0.93447200  0.85484200  1
  O  O7  1  0.50477400  0.86324900  0.75070100  1
  O  O8  1  0.50536200  0.70540500  0.84409000  1
  O  O9  1  0.49410700  0.11981300  0.24193800  1
  O  O10  1  0.51132300  0.28170700  0.15234900  1
  O  O11  1  0.42377400  0.99599900  0.06011600  1
  O  O12  1  0.34543100  0.09053300  0.13474400  1
  O  O13  1  0.56755500  0.88614600  0.30195200  1
  O  O14  1  0.61716900  0.05307000  0.12881700  1
  O  O15  1  0.47558300  0.79598900  0.19772800  1
  O  O16  1  0.57697100  0.84410900  0.06062300  1
  O  O17  1  0.25921900  0.24161000  0.81988100  1
  O  O18  1  0.04361600  0.21800500  0.87065800  1
  O  O19  1  0.14217300  0.23520700  0.08808100  1
