# Generated by REPEAT Assigner based on pymatgen
data_DB0-m3_o1520_o155_f0_fsc.sym.52
_audit_creation_date              2022-05-24
_audit_creation_method            REPEAT_Assigner
_cell_length_a                    8.511007
_cell_length_b                    13.064729
_cell_length_c                    17.522535
_cell_angle_alpha                 90.949760
_cell_angle_beta                  90.079574
_cell_angle_gamma                 95.291853
_cell_volume                      1939.821378
_symmetry_space_group_name_H-M    P1
_symmetry_Int_Tables_number       1
loop_
    _symmetry_equiv_pos_site_id
    _symmetry_equiv_pos_as_xyz
    1  x,y,z
loop_
    _atom_site_type_symbol
    _atom_site_label
    _atom_site_fract_x
    _atom_site_fract_y
    _atom_site_fract_z
    _atom_type_partial_charge
    C   C1   0.130421  0.294043  0.000430  -0.162579
    C   C2   0.906227  0.705886  0.999400  -0.182618
    C   C3   0.999222  0.345288  0.992473  -0.145635
    C   C4   0.037542  0.654856  0.007819  -0.145377
    C   C5   0.851890  0.296949  0.001544  -0.011294
    C   C6   0.184805  0.703237  0.998556  0.027045
    C   C7   0.832884  0.191567  0.007520  -0.268884
    C   C8   0.203637  0.808510  0.992072  -0.336629
    C   C9   0.964459  0.134601  0.003513  0.063902
    C   C10  0.071996  0.865395  0.995861  0.162468
    C   C11  0.113975  0.187796  0.004276  0.186645
    C   C12  0.922527  0.812133  0.995128  0.152022
    C   C13  0.950573  0.026520  0.999441  0.100475
    C   C14  0.085853  0.973463  0.999753  -0.040166
    C   C15  0.232428  0.029545  0.006298  -0.119804
    C   C16  0.804027  0.970407  0.992811  -0.154729
    C   C17  0.245881  0.134914  0.007281  -0.293004
    C   C18  0.790605  0.865001  0.991867  -0.268364
    H   H1   0.012780  0.425447  0.981372  0.127440
    H   H2   0.024147  0.574799  0.019308  0.125975
    H   H3   0.713892  0.158060  0.014542  0.115971
    H   H4   0.322587  0.841966  0.984833  0.143689
    H   H5   0.695051  0.004983  0.987708  0.133083
    H   H6   0.341450  0.995019  0.011332  0.117922
    H   H7   0.674031  0.824715  0.988905  0.130824
    H   H8   0.362494  0.175149  0.010170  0.143213
    O   O1   0.701975  0.606102  0.063934  -0.661686
    O   O2   0.336091  0.392457  0.935826  -0.660306
    O   O3   0.695652  0.609176  0.932504  -0.714213
    O   O4   0.339811  0.391562  0.067522  -0.695658
    C   C19  0.754946  0.642485  0.998661  0.865508
    C   C20  0.281796  0.357280  0.001283  0.837820
    O   O5   0.675940  0.396319  0.936794  -0.669532
    O   O6   0.362486  0.605232  0.063458  -0.665272
    O   O7   0.668021  0.393065  0.068228  -0.721197
    O   O8   0.367273  0.606274  0.931739  -0.694118
    C   C21  0.719502  0.360773  0.002217  0.816391
    C   C22  0.317322  0.639565  0.997839  0.782695
    Zn  Zn1  0.518260  0.497899  0.914874  1.007442
    Zn  Zn2  0.518205  0.502145  0.085128  1.017484
    C   C23  0.532913  0.582682  0.778125  -0.266225
    C   C24  0.510887  0.417395  0.221862  -0.260955
    N   N1   0.518060  0.492322  0.814614  0.050447
    N   N2   0.518222  0.507714  0.185389  0.041939
    C   C25  0.489935  0.402920  0.774208  0.255314
    C   C26  0.511899  0.596811  0.225798  0.266564
    C   C27  0.491470  0.496264  0.657806  0.005771
    C   C28  0.491074  0.503267  0.342177  0.008195
    C   C29  0.521883  0.585661  0.699618  0.185957
    C   C30  0.499392  0.414201  0.300358  0.182162
    C   C31  0.539166  0.678212  0.663091  -0.216905
    C   C32  0.494273  0.321741  0.336874  -0.215603
    C   C33  0.469905  0.404860  0.695697  -0.013252
    C   C34  0.491607  0.594502  0.304294  -0.013600
    H   H9   0.564556  0.748965  0.695476  0.139348
    H   H10  0.502194  0.251270  0.304482  0.137889
    C   C35  0.480767  0.592295  0.462559  0.050463
    C   C36  0.458426  0.406866  0.537428  0.045561
    C   C37  0.471825  0.407998  0.458144  0.019858
    C   C38  0.494599  0.591389  0.541836  0.016023
    C   C39  0.481024  0.501121  0.421113  0.037712
    C   C40  0.481340  0.498234  0.578870  0.042191
    C   C41  0.464564  0.682208  0.423449  -0.194816
    C   C42  0.420544  0.316502  0.576548  -0.196307
    C   C43  0.465745  0.682358  0.345031  -0.066102
    C   C44  0.422270  0.316382  0.654964  -0.058120
    C   C45  0.525294  0.681463  0.584925  -0.147517
    C   C46  0.480165  0.318249  0.415042  -0.145990
    H   H11  0.446614  0.752648  0.316508  0.092364
    H   H12  0.386146  0.245627  0.683490  0.087683
    H   H13  0.444033  0.753355  0.451894  0.121400
    H   H14  0.382368  0.244861  0.548117  0.122030
    H   H15  0.546971  0.755887  0.559643  0.131150
    H   H16  0.483863  0.244028  0.440311  0.130610
    H   H17  0.552058  0.653732  0.810640  0.197573
    H   H18  0.512638  0.346525  0.189355  0.196729
    O   O9   0.474643  0.310149  0.810533  -0.353266
    C   C47  0.625445  0.274639  0.810996  0.247969
    H   H19  0.645152  0.240049  0.867087  0.031750
    H   H20  0.716517  0.339194  0.800597  -0.024958
    C   C48  0.640602  0.190513  0.751330  0.139482
    H   H21  0.532738  0.135990  0.750926  -0.005924
    H   H22  0.661443  0.224694  0.694439  -0.030355
    C   C49  0.780960  0.132062  0.770422  -0.298559
    H   H23  0.888315  0.186598  0.776161  0.071216
    H   H24  0.798486  0.075685  0.723903  0.062939
    H   H25  0.759430  0.090364  0.824584  0.055310
    O   O10  0.519232  0.689541  0.189502  -0.356560
    C   C50  0.678988  0.727708  0.189360  0.225632
    H   H26  0.707427  0.762332  0.133216  0.040098
    H   H27  0.754486  0.664665  0.200254  -0.021250
    C   C51  0.714324  0.812689  0.248775  0.136942
    H   H28  0.619239  0.865276  0.248827  -0.003563
    H   H29  0.727073  0.779198  0.305818  -0.024090
    C   C52  0.868965  0.873817  0.229715  -0.317978
    H   H30  0.963502  0.821158  0.224283  0.075934
    H   H31  0.900080  0.930901  0.276101  0.063756
    H   H32  0.857302  0.914906  0.175401  0.068985
