# generated using pymatgen
data_Zn6H47C94(BrO8)3
_symmetry_space_group_name_H-M   'P 1'
_cell_length_a   18.69431200
_cell_length_b   19.06888000
_cell_length_c   18.81113900
_cell_angle_alpha   110.15202100
_cell_angle_beta   109.34832700
_cell_angle_gamma   109.06755300
_symmetry_Int_Tables_number   1
_chemical_formula_structural   Zn6H47C94(BrO8)3
_chemical_formula_sum   'Zn6 H47 C94 Br3 O24'
_cell_volume   5151.89435727
_cell_formula_units_Z   1
loop_
 _symmetry_equiv_pos_site_id
 _symmetry_equiv_pos_as_xyz
  1  'x, y, z'
loop_
 _atom_site_type_symbol
 _atom_site_label
 _atom_site_symmetry_multiplicity
 _atom_site_fract_x
 _atom_site_fract_y
 _atom_site_fract_z
 _atom_site_occupancy
  Zn  Zn1  1  0.05978800  0.99691900  0.55542100  1
  Zn  Zn2  1  0.91484000  0.99239000  0.41679900  1
  Zn  Zn3  1  0.48843600  0.56839500  0.55641700  1
  Zn  Zn4  1  0.48726600  0.42617100  0.41843100  1
  Zn  Zn5  1  0.05076700  0.55210000  0.98481800  1
  Zn  Zn6  1  0.92622200  0.44032200  0.98726300  1
  H  H1  1  0.31416400  0.35476000  0.78691100  1
  H  H2  1  0.05906600  0.04727900  0.32752700  1
  H  H3  1  0.04232400  0.04065300  0.19335600  1
  H  H4  1  0.13662800  0.16554500  0.19386700  1
  H  H5  1  0.25115600  0.29421300  0.32868900  1
  H  H6  1  0.43766200  0.43280800  0.65550900  1
  H  H7  1  0.44055700  0.45119700  0.78908700  1
  H  H8  1  0.18773400  0.23651600  0.65102200  1
  H  H9  1  0.03505100  0.26716200  0.64413400  1
  H  H10  1  0.91055400  0.02137500  0.66605700  1
  H  H11  1  0.85843200  0.99275700  0.75886800  1
  H  H12  1  0.91871500  0.25172100  0.89584700  1
  H  H13  1  0.72606500  0.85984200  0.48053500  1
  H  H14  1  0.92239800  0.75555600  0.45735300  1
  H  H15  1  0.94283000  0.64214500  0.47183700  1
  H  H16  1  0.84676500  0.54753400  0.50121000  1
  H  H17  1  0.72805400  0.56389000  0.51177300  1
  H  H18  1  0.61597900  0.75098600  0.48342300  1
  H  H19  1  0.87109400  0.72002300  0.25511700  1
  H  H20  1  0.14154200  0.97285600  0.38377400  1
  H  H21  1  0.26808100  0.00399900  0.36590800  1
  H  H22  1  0.27409600  0.88943800  0.26104400  1
  H  H23  1  0.15326400  0.74410100  0.17312500  1
  H  H24  1  0.87384600  0.60679000  0.14586800  1
  H  H25  1  0.59465600  0.37910800  0.64887200  1
  H  H26  1  0.73742200  0.64460700  0.66442300  1
  H  H27  1  0.88399500  0.76566300  0.75368700  1
  H  H28  1  0.99687200  0.76807900  0.86935200  1
  H  H29  1  0.96400300  0.64932600  0.89480000  1
  H  H30  1  0.37794800  0.54402400  0.25379100  1
  H  H31  1  0.23931500  0.42715800  0.38870700  1
  H  H32  1  0.09513600  0.37757500  0.37103000  1
  H  H33  1  0.98261700  0.38346900  0.26361200  1
  H  H34  1  0.01397900  0.43806100  0.17345000  1
  H  H35  1  0.26493800  0.54617800  0.14353000  1
  H  H36  1  0.74082800  0.98133100  0.78602700  1
  H  H37  1  0.68802200  0.95152000  0.88059600  1
  H  H38  1  0.90314700  0.19064600  0.10141800  1
  H  H39  1  0.95843700  0.22077300  0.00849800  1
  H  H40  1  0.91631900  0.39174500  0.70431500  1
  H  H41  1  0.96922500  0.53163700  0.71187400  1
  H  H42  1  0.22725800  0.56877100  0.80645000  1
  H  H43  1  0.17456500  0.42914700  0.79953500  1
  H  H44  1  0.77302000  0.31505200  0.70497600  1
  H  H45  1  0.73048200  0.18422000  0.71537200  1
  H  H46  1  0.57436500  0.24585800  0.81917800  1
  H  H47  1  0.61738300  0.37707900  0.80943000  1
  C  C1  1  0.98000200  0.10772600  0.60664200  1
  C  C2  1  0.10530900  0.11954000  0.49015000  1
  C  C3  1  0.99474900  0.88162100  0.36553800  1
  C  C4  1  0.86937000  0.86888900  0.48084900  1
  C  C5  1  0.10230900  0.10442800  0.33222700  1
  C  C6  1  0.09276700  0.09911900  0.25463400  1
  C  C7  1  0.14581800  0.16864200  0.25493000  1
  C  C8  1  0.21218400  0.24158200  0.33291300  1
  C  C9  1  0.22591900  0.24643400  0.41235000  1
  C  C10  1  0.16592500  0.17978400  0.41183100  1
  C  C11  1  0.29833200  0.31676400  0.49151700  1
  C  C12  1  0.30575500  0.32309000  0.57008700  1
  C  C13  1  0.23893600  0.26243700  0.56919200  1
  C  C14  1  0.17071300  0.18863200  0.49028800  1
  C  C15  1  0.37987900  0.38874300  0.65018500  1
  C  C16  1  0.38310300  0.39921600  0.72742200  1
  C  C17  1  0.31275400  0.34496700  0.72623400  1
  C  C18  1  0.24132700  0.27670200  0.64791900  1
  C  C19  1  0.91346100  0.07393000  0.71569300  1
  C  C20  1  0.88258700  0.05683700  0.76816900  1
  C  C21  1  0.88553400  0.12136600  0.83355500  1
  C  C22  1  0.91819800  0.20303300  0.84484200  1
  C  C23  1  0.94752500  0.22082800  0.79079100  1
  C  C24  1  0.94693600  0.15591200  0.72704700  1
  C  C25  1  0.97907200  0.17334600  0.67474600  1
  C  C26  1  0.01082500  0.25438900  0.68567900  1
  C  C27  1  0.01111300  0.31896000  0.74795000  1
  C  C28  1  0.97924100  0.30296200  0.80089200  1
  C  C29  1  0.87903300  0.71655200  0.47131500  1
  C  C30  1  0.89041700  0.65092200  0.47785100  1
  C  C31  1  0.83626800  0.59757800  0.49354600  1
  C  C32  1  0.76759800  0.60664700  0.49789100  1
  C  C33  1  0.75256000  0.67012300  0.48726100  1
  C  C34  1  0.81266500  0.72946700  0.48012400  1
  C  C35  1  0.80399700  0.79921800  0.47946400  1
  C  C36  1  0.73317100  0.80588200  0.48075000  1
  C  C37  1  0.67175400  0.74520900  0.48395700  1
  C  C38  1  0.68002100  0.67673000  0.48619100  1
  C  C39  1  0.14101100  0.92037800  0.33665700  1
  C  C40  1  0.21338600  0.93899100  0.32672800  1
  C  C41  1  0.21659400  0.87492500  0.26778700  1
  C  C42  1  0.14676600  0.79226800  0.21724700  1
  C  C43  1  0.07219900  0.77276800  0.22483100  1
  C  C44  1  0.07034600  0.83707000  0.28677600  1
  C  C45  1  0.99748800  0.81769100  0.29741000  1
  C  C46  1  0.92730600  0.73519800  0.24615700  1
  C  C47  1  0.92937200  0.67133100  0.18547500  1
  C  C48  1  0.00073000  0.68944300  0.17357900  1
  C  C49  1  0.60991000  0.49932400  0.60848300  1
  C  C50  1  0.36725900  0.38265700  0.49157100  1
  C  C51  1  0.36574800  0.49535200  0.36634900  1
  C  C52  1  0.60960400  0.61166500  0.48460100  1
  C  C53  1  0.87429600  0.49966700  0.86973800  1
  C  C54  1  0.98279700  0.37400700  0.86873600  1
  C  C55  1  0.10145500  0.49424200  0.10481000  1
  C  C56  1  0.99763100  0.61915400  0.10580100  1
  C  C57  1  0.78496600  0.64237800  0.71396300  1
  C  C58  1  0.86840300  0.71174900  0.76440000  1
  C  C59  1  0.93159600  0.71297100  0.82896100  1
  C  C60  1  0.91210700  0.64422500  0.84241700  1
  C  C61  1  0.82865800  0.57248200  0.79047600  1
  C  C62  1  0.76412100  0.57272700  0.72711600  1
  C  C63  1  0.67969100  0.50292700  0.67683300  1
  C  C64  1  0.66030300  0.43364200  0.68913900  1
  C  C65  1  0.72366400  0.43250400  0.75125600  1
  C  C66  1  0.80837300  0.50158300  0.80228300  1
  C  C67  1  0.19199200  0.43045000  0.34012100  1
  C  C68  1  0.10981800  0.40177500  0.33048700  1
  C  C69  1  0.04679600  0.40481400  0.27018400  1
  C  C70  1  0.06524000  0.43528800  0.21829600  1
  C  C71  1  0.14725100  0.46227700  0.22546700  1
  C  C72  1  0.21173300  0.46153700  0.28832400  1
  C  C73  1  0.29491400  0.49099400  0.29814900  1
  C  C74  1  0.31305900  0.52050200  0.24553700  1
  C  C75  1  0.24972200  0.52250200  0.18420000  1
  C  C76  1  0.16670100  0.49273400  0.17292500  1
  C  C77  1  0.85350500  0.10324800  0.89033800  1
  C  C78  1  0.77796300  0.02735500  0.85539400  1
  C  C79  1  0.74745900  0.01060800  0.90843700  1
  C  C80  1  0.79224000  0.06923900  0.99671400  1
  C  C81  1  0.86769600  0.14475700  0.03205700  1
  C  C82  1  0.89827400  0.16184500  0.97917400  1
  C  C83  1  0.04260500  0.40289100  0.75396100  1
  C  C84  1  0.98485900  0.43102800  0.72777300  1
  C  C85  1  0.01443200  0.50930400  0.73152700  1
  C  C86  1  0.10162300  0.55909100  0.76042200  1
  C  C87  1  0.15902500  0.53009900  0.78454000  1
  C  C88  1  0.12943100  0.45177300  0.78069000  1
  C  C89  1  0.69986100  0.35550700  0.75891800  1
  C  C90  1  0.73013200  0.30043900  0.73099500  1
  C  C91  1  0.70589500  0.22677300  0.73636900  1
  C  C92  1  0.65044500  0.20748100  0.76863600  1
  C  C93  1  0.61844700  0.26135500  0.79457800  1
  C  C94  1  0.64262700  0.33498300  0.78913100  1
  Br  Br1  1  0.74974200  0.04586400  0.06976400  1
  Br  Br2  1  0.14260700  0.66757200  0.76620500  1
  Br  Br3  1  0.61738000  0.10594100  0.77658700  1
  O  O1  1  0.03826400  0.08415400  0.63015400  1
  O  O2  1  0.92455700  0.07781400  0.52491200  1
  O  O3  1  0.13304700  0.08990300  0.54062800  1
  O  O4  1  0.02193500  0.08951800  0.43891100  1
  O  O5  1  0.05000900  0.91140700  0.44734000  1
  O  O6  1  0.93642700  0.90520700  0.34200500  1
  O  O7  1  0.95263300  0.90023900  0.53370200  1
  O  O8  1  0.84144600  0.89925400  0.43135700  1
  O  O9  1  0.57916700  0.55076100  0.63172100  1
  O  O10  1  0.58194300  0.44527800  0.52688400  1
  O  O11  1  0.39438700  0.46444300  0.54135200  1
  O  O12  1  0.39812800  0.35669900  0.44057300  1
  O  O13  1  0.39419200  0.54964300  0.44794400  1
  O  O14  1  0.39613400  0.44354100  0.34320100  1
  O  O15  1  0.57827100  0.63808500  0.53498600  1
  O  O16  1  0.58062300  0.52999000  0.43278600  1
  O  O17  1  0.94638700  0.50764800  0.86877900  1
  O  O18  1  0.85981600  0.48876100  0.92979300  1
  O  O19  1  0.05790400  0.44507500  0.92687500  1
  O  O20  1  0.91089200  0.36647500  0.86991600  1
  O  O21  1  0.12068500  0.56550500  0.10192100  1
  O  O22  1  0.02705200  0.42331100  0.04434700  1
  O  O23  1  0.00953400  0.62802800  0.04380200  1
  O  O24  1  0.97635400  0.54563200  0.10425800  1
