# Generated by REPEAT Assigner based on pymatgen
data_DB0-m2_o18_o27_f0_pcu.sym.29
_audit_creation_date              2022-05-24
_audit_creation_method            REPEAT_Assigner
_cell_length_a                    14.469093
_cell_length_b                    15.136472
_cell_length_c                    19.245468
_cell_angle_alpha                 76.503037
_cell_angle_beta                  103.791246
_cell_angle_gamma                 114.892756
_cell_volume                      3670.566583
_symmetry_space_group_name_H-M    P1
_symmetry_Int_Tables_number       1
loop_
    _symmetry_equiv_pos_site_id
    _symmetry_equiv_pos_as_xyz
    1  x,y,z
loop_
    _atom_site_type_symbol
    _atom_site_label
    _atom_site_fract_x
    _atom_site_fract_y
    _atom_site_fract_z
    _atom_type_partial_charge
    O   O1   0.981788  0.342585  0.529185  -0.602888
    O   O2   0.021338  0.662227  0.473761  -0.582595
    O   O3   0.840588  0.384750  0.491864  -0.601749
    O   O4   0.162452  0.620085  0.511353  -0.596635
    C   C1   0.881811  0.318743  0.513452  0.730152
    C   C2   0.121288  0.686111  0.489682  0.704630
    O   O5   0.070346  0.477411  0.619205  -0.569946
    O   O6   0.932617  0.527291  0.383813  -0.590639
    O   O7   0.933633  0.526373  0.586111  -0.588673
    O   O8   0.069630  0.478719  0.416888  -0.587349
    C   C3   0.001990  0.501713  0.635339  0.622202
    C   C4   0.001050  0.503076  0.367664  0.641623
    Cu  Cu1  0.083750  0.477926  0.520487  0.887107
    Cu  Cu2  0.919333  0.526911  0.482538  0.887644
    C   C5   0.072763  0.476044  0.765305  -0.137710
    C   C6   0.929664  0.527853  0.237711  -0.134584
    H   H1   0.129372  0.456168  0.752137  0.114809
    H   H2   0.873122  0.547833  0.250861  0.107490
    C   C7   0.072505  0.475890  0.836950  0.149511
    C   C8   0.929560  0.527471  0.166092  0.144705
    H   H3   0.129033  0.455883  0.877675  0.022775
    H   H4   0.872862  0.547221  0.125376  0.019615
    C   C9   0.001186  0.500981  0.855809  -0.515692
    C   C10  0.000768  0.502222  0.147239  -0.510684
    C   C11  0.930118  0.526134  0.802011  0.147399
    C   C12  0.072096  0.477454  0.201024  0.144271
    H   H5   0.873395  0.546087  0.814902  0.013431
    H   H6   0.128768  0.457433  0.188138  0.014407
    C   C13  0.930425  0.526285  0.730413  -0.144037
    C   C14  0.072161  0.477849  0.272597  -0.130707
    H   H7   0.873969  0.546284  0.689585  0.108882
    H   H8   0.128814  0.458139  0.313409  0.099609
    C   C15  0.001779  0.501321  0.711592  0.009834
    C   C16  0.000944  0.503009  0.291417  -0.001449
    N   N1   0.931484  0.525635  0.950124  -0.335105
    N   N2   0.070210  0.477204  0.052937  -0.334841
    N   N3   0.931379  0.525952  0.018736  -0.341047
    N   N4   0.070316  0.476884  0.984327  -0.340729
    C   C17  0.000760  0.501762  0.071010  0.904690
    C   C18  0.000960  0.501112  0.932051  0.906085
    C   C19  0.813476  0.213844  0.520408  -0.145077
    C   C20  0.189634  0.791049  0.483020  -0.124836
    C   C21  0.791388  0.045478  0.547570  -0.277059
    C   C22  0.211718  0.959437  0.456452  -0.262271
    C   C23  0.855273  0.143319  0.541380  -0.021102
    C   C24  0.147838  0.861590  0.462307  -0.035866
    C   C25  0.707235  0.185403  0.506036  -0.107387
    C   C26  0.295886  0.819516  0.497513  -0.110413
    C   C27  0.640968  0.085848  0.512384  0.004208
    C   C28  0.362145  0.919076  0.491562  -0.003650
    C   C29  0.685640  0.016995  0.533219  0.286004
    C   C30  0.317470  0.987927  0.470919  0.265563
    C   C31  0.532214  0.053072  0.498554  0.057744
    C   C32  0.470894  0.951861  0.505538  0.055161
    C   C33  0.520031  0.885850  0.526335  -0.162063
    C   C34  0.483088  0.119086  0.477966  -0.175140
    C   C35  0.625368  0.918393  0.539978  -0.281091
    C   C36  0.377750  0.086540  0.464445  -0.238876
    H   H9   0.660732  0.864944  0.556138  0.141908
    H   H10  0.342392  0.139997  0.448528  0.123899
    H   H11  0.323699  0.761292  0.513305  0.094728
    H   H12  0.679410  0.243622  0.489928  0.096866
    H   H13  0.065311  0.841557  0.450684  0.102297
    H   H14  0.937808  0.163355  0.552943  0.094272
    H   H15  0.825019  0.990687  0.563851  0.138098
    H   H16  0.178105  0.014241  0.440314  0.136719
    H   H17  0.480371  0.807254  0.532991  0.142050
    H   H18  0.522748  0.197674  0.471499  0.129073
    N   N5   0.796314  0.563615  0.454171  -0.123387
    N   N6   0.206928  0.441460  0.548925  -0.130838
    C   C37  0.706721  0.655508  0.374547  -0.291669
    C   C38  0.287895  0.336601  0.619676  -0.303323
    C   C39  0.792619  0.632786  0.396859  0.046027
    C   C40  0.206973  0.366785  0.602473  0.057033
    C   C41  0.715391  0.512827  0.489771  0.023208
    C   C42  0.284642  0.487317  0.509983  0.031513
    C   C43  0.626943  0.534661  0.471249  -0.076342
    C   C44  0.371483  0.463036  0.526901  -0.088049
    C   C45  0.624507  0.608423  0.413294  0.298670
    C   C46  0.372253  0.386835  0.583165  0.313697
    C   C47  0.542029  0.485686  0.509235  0.058762
    C   C48  0.456893  0.512690  0.489443  0.063180
    C   C49  0.460144  0.590248  0.433258  -0.094906
    C   C50  0.540739  0.411036  0.567494  -0.084816
    C   C51  0.542120  0.636902  0.396361  -0.288042
    C   C52  0.458193  0.363605  0.603804  -0.296412
    H   H19  0.539922  0.697844  0.354731  0.149987
    H   H20  0.464413  0.308574  0.649596  0.152390
    H   H21  0.275836  0.543505  0.466519  0.110831
    H   H22  0.724410  0.456947  0.533441  0.113400
    H   H23  0.141840  0.328458  0.631150  0.137249
    H   H24  0.856824  0.669714  0.367219  0.142108
    H   H25  0.400871  0.619117  0.415442  0.118198
    H   H26  0.602563  0.385889  0.588015  0.115325
    C   C53  0.707147  0.729860  0.309859  0.703909
    O   O9   0.780091  0.809064  0.306606  -0.523967
    C   C54  0.628031  0.704787  0.243934  -0.486465
    H   H27  0.572627  0.627349  0.253635  0.100373
    H   H28  0.667118  0.713831  0.198184  0.163362
    H   H29  0.586314  0.755074  0.229989  0.136932
    C   C55  0.280087  0.251237  0.676704  0.716627
    O   O10  0.260481  0.250922  0.734981  -0.520556
    C   C56  0.280070  0.159161  0.660909  -0.496273
    H   H30  0.289826  0.168782  0.603831  0.097211
    H   H31  0.205455  0.097620  0.669842  0.159006
    H   H32  0.343657  0.141288  0.697671  0.138477
