# Generated by REPEAT Assigner based on pymatgen
data_DB0-m2_o14_o24_f0_pcu.sym.52
_audit_creation_date              2022-05-24
_audit_creation_method            REPEAT_Assigner
_cell_length_a                    10.674432
_cell_length_b                    10.905666
_cell_length_c                    9.482907
_cell_angle_alpha                 89.986476
_cell_angle_beta                  90.001886
_cell_angle_gamma                 90.010419
_cell_volume                      1103.922187
_symmetry_space_group_name_H-M    P1
_symmetry_Int_Tables_number       1
loop_
    _symmetry_equiv_pos_site_id
    _symmetry_equiv_pos_as_xyz
    1  x,y,z
loop_
    _atom_site_type_symbol
    _atom_site_label
    _atom_site_fract_x
    _atom_site_fract_y
    _atom_site_fract_z
    _atom_type_partial_charge
    O   O1   0.504614  0.317517  0.600590  -0.292278
    O   O2   0.511110  0.316626  0.358173  -0.434425
    C   C1   0.515041  0.258752  0.481199  0.446245
    O   O3   0.324671  0.490091  0.601534  -0.480671
    O   O4   0.325475  0.483906  0.357643  -0.511638
    C   C2   0.266925  0.488743  0.479400  0.448613
    Cu  Cu1  0.506656  0.495239  0.621486  0.697122
    Cu  Cu2  0.507372  0.495399  0.339240  0.838683
    O   O5   0.500589  0.673176  0.600651  -0.426928
    O   O6   0.494049  0.673225  0.360877  -0.465315
    O   O7   0.688750  0.491485  0.601098  -0.661233
    O   O8   0.689306  0.497772  0.360731  -0.668908
    C   C3   0.493282  0.731688  0.481121  0.510627
    C   C4   0.747695  0.497568  0.481065  0.670800
    C   C5   0.048612  0.489691  0.611594  0.199270
    C   C6   0.964706  0.394277  0.543507  -0.003105
    H   H1   0.084735  0.486489  0.721188  -0.063532
    C   C7   0.886945  0.495315  0.480564  0.260105
    C   C8   0.968976  0.591411  0.547955  -0.242619
    C   C9   0.050297  0.591183  0.416145  -0.179422
    C   C10  0.966135  0.495085  0.348711  -0.062886
    C   C11  0.045839  0.393227  0.412099  -0.048399
    C   C12  0.127656  0.489489  0.479592  0.208723
    H   H2   0.934293  0.673949  0.603970  0.081200
    H   H3   0.089191  0.673302  0.362807  0.134434
    H   H4   0.929721  0.497897  0.239224  0.037996
    H   H5   0.080361  0.310468  0.356384  0.019452
    H   H6   0.537127  0.105025  0.262701  0.110564
    C   C13  0.519437  0.105473  0.746860  0.058586
    H   H7   0.573503  0.187159  0.764980  0.069845
    C   C14  0.475456  0.046831  0.865292  -0.261109
    H   H8   0.486874  0.088507  0.967900  0.141409
    C   C15  0.412828  0.937973  0.852117  0.111474
    C   C16  0.410249  0.880087  0.723750  -0.126594
    H   H9   0.358875  0.795159  0.717523  0.080131
    C   C17  0.465995  0.933247  0.606033  0.002978
    C   C18  0.500963  0.055655  0.612897  0.157340
    C   C19  0.517185  0.122253  0.486803  -0.135139
    C   C20  0.522138  0.057718  0.361382  -0.159316
    H   H10  0.529814  0.883417  0.262277  0.093504
    C   C21  0.514580  0.931355  0.360413  -0.028735
    C   C22  0.486118  0.867380  0.482110  -0.062577
    H   H11  0.375078  0.360396  0.112819  0.038272
    C   C23  0.664996  0.659794  0.121915  -0.153634
    H   H12  0.670778  0.669566  0.232783  0.127883
    C   C24  0.742367  0.737852  0.050324  0.028234
    H   H13  0.802108  0.800775  0.107209  0.044702
    C   C25  0.743616  0.735754  0.907447  -0.206988
    H   H14  0.804653  0.796873  0.849681  0.144182
    C   C26  0.666911  0.656350  0.836615  -0.124059
    H   H15  0.676460  0.663546  0.726039  0.137908
    C   C27  0.585753  0.575355  0.905907  0.167321
    C   C28  0.586213  0.576565  0.053305  0.191710
    N   N1   0.510451  0.499430  0.127631  -0.173026
    C   C29  0.435891  0.422309  0.055968  0.040036
    C   C30  0.432889  0.422004  0.910008  0.075152
    N   N2   0.509006  0.496781  0.833358  -0.140280
    I   I1   0.890191  0.236014  0.645490  -0.155180
    I   I2   0.329839  0.854665  0.029070  -0.085938
    I   I3   0.304396  0.296775  0.820593  -0.020569
