# generated using pymatgen
data_Zn2H29C59N5O13
_symmetry_space_group_name_H-M   'P 1'
_cell_length_a   27.64269300
_cell_length_b   10.93788600
_cell_length_c   9.82863800
_cell_angle_alpha   90.00017700
_cell_angle_beta   90.00761100
_cell_angle_gamma   89.99461100
_symmetry_Int_Tables_number   1
_chemical_formula_structural   Zn2H29C59N5O13
_chemical_formula_sum   'Zn2 H29 C59 N5 O13'
_cell_volume   2971.71445781
_cell_formula_units_Z   1
loop_
 _symmetry_equiv_pos_site_id
 _symmetry_equiv_pos_as_xyz
  1  'x, y, z'
loop_
 _atom_site_type_symbol
 _atom_site_label
 _atom_site_symmetry_multiplicity
 _atom_site_fract_x
 _atom_site_fract_y
 _atom_site_fract_z
 _atom_site_occupancy
  Zn  Zn1  1  0.49448900  0.50110400  0.65802400  1
  Zn  Zn2  1  0.49427300  0.50086600  0.34777400  1
  H  H1  1  0.34187500  0.39111400  0.33191800  1
  H  H2  1  0.25371000  0.38504600  0.33010900  1
  H  H3  1  0.11535200  0.20074200  0.55783300  1
  H  H4  1  0.64895800  0.47526000  0.71851200  1
  H  H5  1  0.73697000  0.47397200  0.71630300  1
  H  H6  1  0.87454900  0.21430600  0.62229300  1
  H  H7  1  0.95943700  0.21078100  0.62164200  1
  H  H8  1  0.03045100  0.19578900  0.55928500  1
  H  H9  1  0.24960400  0.62393300  0.67127200  1
  H  H10  1  0.11399700  0.79820800  0.43808700  1
  H  H11  1  0.95832300  0.78376100  0.37286100  1
  H  H12  1  0.64834000  0.52046500  0.28550600  1
  H  H13  1  0.87348800  0.77908300  0.37452200  1
  H  H14  1  0.73629900  0.51892200  0.28533600  1
  H  H15  1  0.02917100  0.80071400  0.43561300  1
  H  H16  1  0.44207300  0.11104500  0.35617100  1
  H  H17  1  0.57143000  0.22573700  0.65196800  1
  H  H18  1  0.62969600  0.11522200  0.78392000  1
  H  H19  1  0.63057900  0.89127700  0.78313600  1
  H  H20  1  0.57314600  0.77864400  0.65027300  1
  H  H21  1  0.44289600  0.88833200  0.35578600  1
  H  H22  1  0.54730900  0.63211200  0.12780800  1
  H  H23  1  0.42897500  0.33897200  0.24796100  1
  H  H24  1  0.37625600  0.20845500  0.12693400  1
  H  H25  1  0.37620400  0.20885700  0.87779400  1
  H  H26  1  0.42885600  0.33946600  0.75711100  1
  H  H27  1  0.54747100  0.63216600  0.87855000  1
  H  H28  1  0.39219900  0.79431700  0.73513800  1
  H  H29  1  0.37336700  0.78905000  0.57178500  1
  C  C1  1  0.49505700  0.26151700  0.50307400  1
  C  C2  1  0.39960400  0.50770800  0.50308600  1
  C  C3  1  0.49672700  0.74001700  0.50282100  1
  C  C4  1  0.58905000  0.49919200  0.50271700  1
  C  C5  1  0.17074000  0.39539000  0.52053300  1
  C  C6  1  0.17017700  0.60559000  0.47762600  1
  C  C7  1  0.27033400  0.57195800  0.59812500  1
  C  C8  1  0.32028300  0.57885600  0.59821900  1
  C  C9  1  0.32205800  0.44360000  0.40649600  1
  C  C10  1  0.27226000  0.43856700  0.40646400  1
  C  C11  1  0.24625000  0.50268400  0.50239400  1
  C  C12  1  0.09492600  0.49916900  0.49792900  1
  C  C13  1  0.12065300  0.39335400  0.52062600  1
  C  C14  1  0.09621700  0.28577900  0.54257900  1
  C  C15  1  0.12013600  0.60579000  0.47570400  1
  C  C16  1  0.34652500  0.51200600  0.50270800  1
  C  C17  1  0.64213800  0.49806400  0.50212200  1
  C  C18  1  0.96926700  0.39266700  0.53530700  1
  C  C19  1  0.96885500  0.60237400  0.45992700  1
  C  C20  1  0.94411000  0.49730300  0.49786900  1
  C  C21  1  0.94298200  0.29230900  0.58189600  1
  C  C22  1  0.89333500  0.29419700  0.58507000  1
  C  C23  1  0.86847700  0.39580900  0.54185800  1
  C  C24  1  0.89376500  0.49692400  0.49845400  1
  C  C25  1  0.86811600  0.59771900  0.45574600  1
  C  C26  1  0.81806300  0.59606000  0.45637700  1
  C  C27  1  0.81839800  0.39698600  0.54288900  1
  C  C28  1  0.71747500  0.48351600  0.62153200  1
  C  C29  1  0.66758400  0.48499800  0.62248000  1
  C  C30  1  0.66722600  0.51001300  0.38105500  1
  C  C31  1  0.71710400  0.50978100  0.38062700  1
  C  C32  1  0.74241200  0.49633300  0.50073000  1
  C  C33  1  0.01985100  0.39110900  0.52678500  1
  C  C34  1  0.04458200  0.49843600  0.49756900  1
  C  C35  1  0.01941100  0.60510300  0.46819100  1
  C  C36  1  0.04656200  0.28435800  0.54574900  1
  C  C37  1  0.09525800  0.71257800  0.45301600  1
  C  C38  1  0.94220100  0.70213700  0.41340500  1
  C  C39  1  0.89257300  0.69954200  0.41150300  1
  C  C40  1  0.04563800  0.71257100  0.44925100  1
  C  C41  1  0.56819400  0.12766700  0.65385400  1
  C  C42  1  0.60240000  0.06535700  0.72802700  1
  C  C43  1  0.60289300  0.94009400  0.72760200  1
  C  C44  1  0.56917100  0.87655100  0.65301900  1
  C  C45  1  0.53331200  0.93782700  0.58064100  1
  C  C46  1  0.53280500  0.06507600  0.58100600  1
  C  C47  1  0.49863100  0.12762500  0.50290800  1
  C  C48  1  0.46791100  0.06304400  0.41910800  1
  C  C49  1  0.46840800  0.93734800  0.41882100  1
  C  C50  1  0.49965900  0.87397300  0.50225100  1
  C  C51  1  0.43117200  0.34448100  0.14056800  1
  C  C52  1  0.40038800  0.26829800  0.07167900  1
  C  C53  1  0.40036300  0.26851800  0.93322300  1
  C  C54  1  0.43114900  0.34482700  0.86452000  1
  C  C55  1  0.46283200  0.42302000  0.93200000  1
  C  C56  1  0.46279200  0.42289700  0.07334500  1
  C  C57  1  0.52300600  0.57196000  0.07358000  1
  C  C58  1  0.52310000  0.57199100  0.93246900  1
  C  C59  1  0.34328900  0.66388900  0.69460900  1
  N  N1  1  0.19465500  0.50103900  0.49998200  1
  N  N2  1  0.79402400  0.49642500  0.50003800  1
  N  N3  1  0.49303300  0.49786800  0.14360800  1
  N  N4  1  0.49319700  0.49798300  0.86208000  1
  N  N5  1  0.38399800  0.73563400  0.65459700  1
  O  O1  1  0.49437400  0.31919300  0.61927500  1
  O  O2  1  0.49429000  0.31885200  0.38658500  1
  O  O3  1  0.42252000  0.50551200  0.61914600  1
  O  O4  1  0.42225100  0.50479800  0.38662800  1
  O  O5  1  0.49593800  0.68334700  0.62134900  1
  O  O6  1  0.49552400  0.68323500  0.38434700  1
  O  O7  1  0.56667700  0.49983800  0.62141700  1
  O  O8  1  0.56642300  0.50007700  0.38440600  1
  O  O9  1  0.19580800  0.29231400  0.54434400  1
  O  O10  1  0.79378400  0.29760700  0.58374100  1
  O  O11  1  0.19468500  0.70958500  0.45418900  1
  O  O12  1  0.79313300  0.69525400  0.41642600  1
  O  O13  1  0.32472700  0.68191600  0.80533400  1
