# generated using pymatgen
data_CuH28C41(NO4)2
_symmetry_space_group_name_H-M   'P 1'
_cell_length_a   14.96985400
_cell_length_b   13.52952700
_cell_length_c   27.53867000
_cell_angle_alpha   90.00000000
_cell_angle_beta   89.98422800
_cell_angle_gamma   90.00000000
_symmetry_Int_Tables_number   1
_chemical_formula_structural   CuH28C41(NO4)2
_chemical_formula_sum   'Cu2 H56 C82 N4 O16'
_cell_volume   5577.54552550
_cell_formula_units_Z   2
loop_
 _symmetry_equiv_pos_site_id
 _symmetry_equiv_pos_as_xyz
  1  'x, y, z'
loop_
 _atom_site_type_symbol
 _atom_site_label
 _atom_site_symmetry_multiplicity
 _atom_site_fract_x
 _atom_site_fract_y
 _atom_site_fract_z
 _atom_site_occupancy
  Cu  Cu1  1  0.50156900  0.60212500  0.50032400  1
  Cu  Cu2  1  0.49954600  0.40442100  0.49932500  1
  H  H1  1  0.51904000  0.66268600  0.34740800  1
  H  H2  1  0.51800300  0.65776000  0.65333300  1
  H  H3  1  0.51862200  0.66334200  0.25897600  1
  H  H4  1  0.51676700  0.65616000  0.74163600  1
  H  H5  1  0.27902100  0.45666700  0.11969500  1
  H  H6  1  0.70794700  0.59016000  0.87982900  1
  H  H7  1  0.49214500  0.34244700  0.65243100  1
  H  H8  1  0.46976900  0.35084600  0.34626600  1
  H  H9  1  0.49158500  0.34225800  0.74083600  1
  H  H10  1  0.46865700  0.35321000  0.25785200  1
  H  H11  1  0.29559900  0.40940500  0.87833000  1
  H  H12  1  0.71259700  0.55960300  0.12192000  1
  H  H13  1  0.29078900  0.41074200  0.96339200  1
  H  H14  1  0.71786500  0.55695300  0.03699700  1
  H  H15  1  0.27774900  0.45490900  0.03458700  1
  H  H16  1  0.70907400  0.59344300  0.96476800  1
  H  H17  1  0.77504900  0.49248500  0.57337300  1
  H  H18  1  0.22643700  0.50992100  0.42590500  1
  H  H19  1  0.07593300  0.48857500  0.62162000  1
  H  H20  1  0.92602000  0.50184200  0.37756600  1
  H  H21  1  0.40606800  0.75867400  0.55637000  1
  H  H22  1  0.59507200  0.24794700  0.44333300  1
  H  H23  1  0.59645700  0.75907700  0.44414300  1
  H  H24  1  0.40399600  0.24783200  0.55527900  1
  H  H25  1  0.65101600  0.91267900  0.41119900  1
  H  H26  1  0.34884100  0.09387000  0.58798800  1
  H  H27  1  0.34982400  0.91270200  0.58854200  1
  H  H28  1  0.65033300  0.09381600  0.41074400  1
  H  H29  1  0.82296400  0.60573000  0.64529600  1
  H  H30  1  0.93062600  0.63777400  0.62048800  1
  H  H31  1  0.89581000  0.54423900  0.72047300  1
  H  H32  1  0.00417900  0.57528400  0.69574300  1
  H  H33  1  0.95832400  0.75158800  0.68961500  1
  H  H34  1  0.94947500  0.70619900  0.75118800  1
  H  H35  1  0.84995700  0.72049900  0.71463500  1
  H  H36  1  0.17438200  0.63119100  0.35778600  1
  H  H37  1  0.06407800  0.65542500  0.38125000  1
  H  H38  1  0.10894300  0.57222200  0.28022300  1
  H  H39  1  0.99787600  0.59496700  0.30350200  1
  H  H40  1  0.03428600  0.77305200  0.31342300  1
  H  H41  1  0.04989900  0.73291400  0.25138200  1
  H  H42  1  0.14580700  0.75049100  0.29032900  1
  H  H43  1  0.80536600  0.65460900  0.41825900  1
  H  H44  1  0.68812000  0.62648700  0.41085900  1
  H  H45  1  0.83193000  0.60486600  0.33231000  1
  H  H46  1  0.71502800  0.57408700  0.32610000  1
  H  H47  1  0.67500400  0.74880300  0.34542100  1
  H  H48  1  0.74744400  0.74041800  0.29303500  1
  H  H49  1  0.79250400  0.77850300  0.35101800  1
  H  H50  1  0.19327600  0.64573700  0.58832900  1
  H  H51  1  0.31172100  0.61962900  0.58925500  1
  H  H52  1  0.17932500  0.58338300  0.67233300  1
  H  H53  1  0.29634200  0.55016700  0.67264500  1
  H  H54  1  0.33778000  0.72601500  0.66022000  1
  H  H55  1  0.26962600  0.71079100  0.71389500  1
  H  H56  1  0.22066500  0.75967000  0.65886900  1
  C  C1  1  0.32918800  0.50501100  0.50244200  1
  C  C2  1  0.67203400  0.50159000  0.49699500  1
  C  C3  1  0.49622100  0.50555200  0.40651200  1
  C  C4  1  0.50460200  0.50101300  0.59316100  1
  C  C5  1  0.41873100  0.48893000  0.17634400  1
  C  C6  1  0.57545400  0.53071500  0.82342200  1
  C  C7  1  0.57076000  0.52818300  0.17710100  1
  C  C8  1  0.43003300  0.46776900  0.82282600  1
  C  C9  1  0.47932900  0.42125000  0.27759800  1
  C  C10  1  0.49703600  0.41162300  0.72157200  1
  C  C11  1  0.48034300  0.42016000  0.32765100  1
  C  C12  1  0.49780900  0.41197100  0.67149800  1
  C  C13  1  0.50764100  0.59412800  0.32827700  1
  C  C14  1  0.51231800  0.58778200  0.67197900  1
  C  C15  1  0.50775700  0.59473600  0.27821400  1
  C  C16  1  0.51187500  0.58715000  0.72202100  1
  C  C17  1  0.49354200  0.50835700  0.25273900  1
  C  C18  1  0.50404500  0.49917700  0.74701000  1
  C  C19  1  0.49637300  0.50702400  0.10089700  1
  C  C20  1  0.50110300  0.50096200  0.89894500  1
  C  C21  1  0.41885000  0.48794400  0.12609000  1
  C  C22  1  0.57537600  0.53168700  0.87365700  1
  C  C23  1  0.34143400  0.46923500  0.10098100  1
  C  C24  1  0.64914800  0.56408100  0.89863300  1
  C  C25  1  0.57272300  0.52746200  0.12686600  1
  C  C26  1  0.42801400  0.46876600  0.87308000  1
  C  C27  1  0.49446100  0.50667400  0.35328700  1
  C  C28  1  0.50525700  0.50016100  0.64640700  1
  C  C29  1  0.42296700  0.47491500  0.97421200  1
  C  C30  1  0.57598200  0.52786200  0.02569200  1
  C  C31  1  0.57578000  0.53142700  0.97484400  1
  C  C32  1  0.42033000  0.48179900  0.02495400  1
  C  C33  1  0.49994400  0.50244400  0.94949200  1
  C  C34  1  0.49756100  0.50557100  0.05035400  1
  C  C35  1  0.35064600  0.43994800  0.94733500  1
  C  C36  1  0.65307700  0.54538000  0.05276500  1
  C  C37  1  0.35331700  0.43714100  0.89753800  1
  C  C38  1  0.65115100  0.54545000  0.10256800  1
  C  C39  1  0.34184600  0.46653000  0.05117000  1
  C  C40  1  0.64956400  0.56413000  0.94844100  1
  C  C41  1  0.81722700  0.50618200  0.45377400  1
  C  C42  1  0.18425200  0.50345000  0.54559200  1
  C  C43  1  0.76964500  0.50110900  0.49678000  1
  C  C44  1  0.23170200  0.50624100  0.50256700  1
  C  C45  1  0.81408500  0.49667900  0.54045100  1
  C  C46  1  0.18736000  0.50854600  0.45886900  1
  C  C47  1  0.90638600  0.49857100  0.54190600  1
  C  C48  1  0.09509300  0.50791100  0.45747800  1
  C  C49  1  0.95447100  0.50272600  0.49910300  1
  C  C50  1  0.04701800  0.50407300  0.50030500  1
  C  C51  1  0.91002500  0.50445900  0.45503900  1
  C  C52  1  0.09151200  0.50055900  0.54433100  1
  C  C53  1  0.95093700  0.49515400  0.58592400  1
  C  C54  1  0.05064300  0.50891000  0.41343100  1
  C  C55  1  0.04296000  0.49394700  0.58689500  1
  C  C56  1  0.95873500  0.50458000  0.41239800  1
  C  C57  1  0.44834500  0.79925700  0.53159800  1
  C  C58  1  0.55267800  0.20731300  0.46804700  1
  C  C59  1  0.55451200  0.79940000  0.46911400  1
  C  C60  1  0.44616100  0.20730300  0.53041500  1
  C  C61  1  0.55460700  0.90135400  0.46834900  1
  C  C62  1  0.44591500  0.10530400  0.53113100  1
  C  C63  1  0.44694000  0.90129100  0.53171700  1
  C  C64  1  0.55377000  0.10531000  0.46781400  1
  C  C65  1  0.50062600  0.95246800  0.49994400  1
  C  C66  1  0.50004400  0.05418500  0.49959700  1
  C  C67  1  0.60839400  0.95228600  0.43620300  1
  C  C68  1  0.39181900  0.05431500  0.56313100  1
  C  C69  1  0.39227100  0.95228200  0.56340800  1
  C  C70  1  0.60809500  0.05429700  0.43598100  1
  C  C71  1  0.89488800  0.58613800  0.64499400  1
  C  C72  1  0.93233700  0.59514300  0.69593900  1
  C  C73  1  0.92175400  0.70032600  0.71396300  1
  C  C74  1  0.10343100  0.60781300  0.35642300  1
  C  C75  1  0.06862300  0.61895600  0.30500900  1
  C  C76  1  0.07516300  0.72594500  0.28907900  1
  C  C77  1  0.75652100  0.60660000  0.39931700  1
  C  C78  1  0.76357100  0.62270300  0.34493200  1
  C  C79  1  0.74323600  0.72967100  0.33288900  1
  C  C80  1  0.24560900  0.59603800  0.60299400  1
  C  C81  1  0.24624500  0.60262400  0.65795900  1
  C  C82  1  0.27016900  0.70667200  0.67367800  1
  N  N1  1  0.49426900  0.50884200  0.20098000  1
  N  N2  1  0.50322500  0.49890600  0.79881900  1
  N  N3  1  0.50293500  0.74998800  0.50108400  1
  N  N4  1  0.49813500  0.25658700  0.49856900  1
  O  O1  1  0.37160300  0.58948800  0.50004100  1
  O  O2  1  0.62955500  0.41703300  0.49902500  1
  O  O3  1  0.63114900  0.58707000  0.49705600  1
  O  O4  1  0.36998400  0.41946300  0.50316700  1
  O  O5  1  0.50181500  0.58989400  0.42966500  1
  O  O6  1  0.50024200  0.41660600  0.56999200  1
  O  O7  1  0.50730400  0.58636800  0.57074100  1
  O  O8  1  0.49277100  0.42021800  0.42892600  1
  O  O9  1  0.34277000  0.47130200  0.20087900  1
  O  O10  1  0.64848300  0.55981400  0.79888400  1
  O  O11  1  0.35793300  0.43807600  0.79768100  1
  O  O12  1  0.64579100  0.54612900  0.20239000  1
  O  O13  1  0.90463000  0.48883500  0.62870800  1
  O  O14  1  0.09709300  0.50877000  0.37056500  1
  O  O15  1  0.77260900  0.50708300  0.41022500  1
  O  O16  1  0.22916700  0.49825800  0.58893800  1
