# Generated by REPEAT Assigner based on pymatgen
data_DB0-m3_o2_o42_f0_fsc
_audit_creation_date              2022-05-24
_audit_creation_method            REPEAT_Assigner
_cell_length_a                    8.551630
_cell_length_b                    11.115952
_cell_length_c                    14.035509
_cell_angle_alpha                 90.000000
_cell_angle_beta                  90.000000
_cell_angle_gamma                 90.000000
_cell_volume                      1334.208591
_symmetry_space_group_name_H-M    P1
_symmetry_Int_Tables_number       1
loop_
    _symmetry_equiv_pos_site_id
    _symmetry_equiv_pos_as_xyz
    1  x,y,z
loop_
    _atom_site_type_symbol
    _atom_site_label
    _atom_site_fract_x
    _atom_site_fract_y
    _atom_site_fract_z
    _atom_type_partial_charge
    O   O1   0.832856  0.874914  0.080792  -0.747483
    O   O2   0.167144  0.125086  0.919208  -0.747485
    O   O3   0.167144  0.125088  0.080790  -0.747477
    O   O4   0.832856  0.874912  0.919210  -0.747474
    O   O5   0.832856  0.125086  0.919208  -0.747483
    O   O6   0.167144  0.874914  0.080792  -0.747485
    O   O7   0.167144  0.874912  0.919210  -0.747476
    O   O8   0.832856  0.125088  0.080790  -0.747475
    C   C1   0.780896  0.830641  0.000001  0.878449
    C   C2   0.219104  0.169359  0.999999  0.878445
    C   C3   0.780896  0.169359  0.999999  0.878448
    C   C4   0.219104  0.830641  0.000001  0.878446
    C   C5   0.640644  0.632687  0.999997  -0.237788
    C   C6   0.359356  0.367313  0.000003  -0.237787
    C   C7   0.640644  0.367313  0.000003  -0.237791
    C   C8   0.359356  0.632687  0.999997  -0.237785
    H   H1   0.754094  0.591631  0.999991  0.119042
    H   H2   0.245906  0.408369  0.000009  0.119042
    H   H3   0.754094  0.408369  0.000009  0.119042
    H   H4   0.245906  0.591631  0.999991  0.119041
    C   C9   0.500000  0.567470  0.999999  0.146422
    C   C10  0.500000  0.432530  0.000001  0.146423
    C   C11  0.500000  0.815736  0.000013  -0.110366
    C   C12  0.500000  0.184264  0.999987  -0.110374
    Zn  Zn1  0.000000  0.999999  0.894010  1.143070
    Zn  Zn2  0.000000  0.000001  0.105990  1.143068
    C   C13  0.639005  0.756676  0.000002  -0.056784
    C   C14  0.360995  0.243324  0.999998  -0.056778
    C   C15  0.639005  0.243324  0.999998  -0.056778
    C   C16  0.360995  0.756676  0.000002  -0.056784
    C   C17  0.000000  0.893362  0.394604  -0.169864
    C   C18  0.000000  0.106638  0.605396  -0.169863
    C   C19  0.000000  0.106639  0.394604  -0.169860
    C   C20  0.000000  0.893361  0.605396  -0.169865
    H   H5   0.000000  0.805954  0.427019  0.133008
    H   H6   0.000000  0.194046  0.572981  0.133008
    H   H7   0.000000  0.194047  0.427019  0.133006
    H   H8   0.000000  0.805953  0.572981  0.133007
    C   C21  0.000000  0.895277  0.296355  -0.027924
    C   C22  0.000000  0.104723  0.703645  -0.027925
    C   C23  0.000000  0.104725  0.296355  -0.027939
    C   C24  0.000000  0.895275  0.703645  -0.027936
    H   H9   0.000000  0.811456  0.257304  0.132122
    H   H10  0.000000  0.188544  0.742696  0.132123
    H   H11  0.000000  0.188545  0.257305  0.132134
    H   H12  0.000000  0.811455  0.742695  0.132133
    N   N1   0.000000  0.000001  0.248786  0.012680
    N   N2   0.000000  0.999999  0.751214  0.012679
    H   H13  0.500000  0.910446  0.000032  0.137503
    H   H14  0.500000  0.089554  0.999968  0.137505
    C   C25  0.000000  0.000000  0.446631  0.120090
    C   C26  0.000000  0.000000  0.553369  0.120092
