# generated using pymatgen
data_Cu3H18C24(NO6)2
_symmetry_space_group_name_H-M   'P 1'
_cell_length_a   30.91027300
_cell_length_b   30.89298100
_cell_length_c   21.08395900
_cell_angle_alpha   90.00000000
_cell_angle_beta   137.12208900
_cell_angle_gamma   90.00000000
_symmetry_Int_Tables_number   1
_chemical_formula_structural   Cu3H18C24(NO6)2
_chemical_formula_sum   'Cu12 H72 C96 N8 O48'
_cell_volume   13699.46598834
_cell_formula_units_Z   4
loop_
 _symmetry_equiv_pos_site_id
 _symmetry_equiv_pos_as_xyz
  1  'x, y, z'
loop_
 _atom_site_type_symbol
 _atom_site_label
 _atom_site_symmetry_multiplicity
 _atom_site_fract_x
 _atom_site_fract_y
 _atom_site_fract_z
 _atom_site_occupancy
  Cu  Cu1  1  0.78909800  0.70373600  0.50084100  1
  Cu  Cu2  1  0.22841400  0.26317400  0.49943500  1
  Cu  Cu3  1  0.21090200  0.70373600  0.49916000  1
  Cu  Cu4  1  0.77158600  0.26317500  0.50056500  1
  Cu  Cu5  1  0.28909800  0.20373600  0.50084100  1
  Cu  Cu6  1  0.72841400  0.76317400  0.49943500  1
  Cu  Cu7  1  0.71090200  0.20373600  0.49916000  1
  Cu  Cu8  1  0.27158600  0.76317500  0.50056500  1
  Cu  Cu9  1  0.45277600  0.49255600  0.40718600  1
  Cu  Cu10  1  0.54722400  0.49255600  0.59281500  1
  Cu  Cu11  1  0.95277600  0.99255600  0.40718600  1
  Cu  Cu12  1  0.04722400  0.99255600  0.59281500  1
  H  H1  1  0.82266100  0.90752700  0.36329600  1
  H  H2  1  0.15743800  0.09831100  0.63934200  1
  H  H3  1  0.17734000  0.90752700  0.63670400  1
  H  H4  1  0.84256300  0.09831100  0.36065800  1
  H  H5  1  0.32266100  0.40752700  0.36329600  1
  H  H6  1  0.65743800  0.59831100  0.63934200  1
  H  H7  1  0.67734000  0.40752700  0.63670400  1
  H  H8  1  0.34256300  0.59831100  0.36065800  1
  H  H9  1  0.93416800  0.88722700  0.57150700  1
  H  H10  1  0.06784900  0.09617500  0.42871500  1
  H  H11  1  0.06583200  0.88722700  0.42849400  1
  H  H12  1  0.93215100  0.09617500  0.57128500  1
  H  H13  1  0.43416800  0.38722700  0.57150700  1
  H  H14  1  0.56784900  0.59617500  0.42871500  1
  H  H15  1  0.56583200  0.38722700  0.42849400  1
  H  H16  1  0.43215100  0.59617500  0.57128500  1
  H  H17  1  0.89231400  0.81817800  0.52429600  1
  H  H18  1  0.16138600  0.11168000  0.47406400  1
  H  H19  1  0.10768600  0.81817800  0.47570400  1
  H  H20  1  0.83861400  0.11168000  0.52593700  1
  H  H21  1  0.39231400  0.31817800  0.52429600  1
  H  H22  1  0.66138600  0.61168000  0.47406400  1
  H  H23  1  0.60768600  0.31817800  0.47570400  1
  H  H24  1  0.33861400  0.61168000  0.52593700  1
  H  H25  1  0.76001600  0.92301200  0.42986900  1
  H  H26  1  0.67876100  0.90876800  0.32522100  1
  H  H27  1  0.72939700  0.92773400  0.31671100  1
  H  H28  1  0.72434800  0.81040300  0.28813600  1
  H  H29  1  0.72046000  0.86197900  0.24376100  1
  H  H30  1  0.65946000  0.84695500  0.23464300  1
  H  H31  1  0.11101200  0.19547700  0.58075900  1
  H  H32  1  0.17954800  0.22292000  0.68625400  1
  H  H33  1  0.16407600  0.16776300  0.69228200  1
  H  H34  1  0.29129400  0.15900700  0.71126500  1
  H  H35  1  0.26423900  0.13986100  0.75851700  1
  H  H36  1  0.28483400  0.19627700  0.76987200  1
  H  H37  1  0.23998400  0.92301200  0.57013100  1
  H  H38  1  0.32123900  0.90876800  0.67478000  1
  H  H39  1  0.27060300  0.92773400  0.68328900  1
  H  H40  1  0.27565300  0.81040300  0.71186400  1
  H  H41  1  0.27954100  0.86197900  0.75623900  1
  H  H42  1  0.34054000  0.84695500  0.76535700  1
  H  H43  1  0.88898900  0.19547700  0.41924100  1
  H  H44  1  0.82045200  0.22292000  0.31374700  1
  H  H45  1  0.83592400  0.16776300  0.30771800  1
  H  H46  1  0.70870700  0.15900700  0.28873500  1
  H  H47  1  0.73576100  0.13986100  0.24148300  1
  H  H48  1  0.71516600  0.19627700  0.23012800  1
  H  H49  1  0.26001600  0.42301200  0.42986900  1
  H  H50  1  0.17876100  0.40876800  0.32522100  1
  H  H51  1  0.22939700  0.42773400  0.31671100  1
  H  H52  1  0.22434800  0.31040300  0.28813600  1
  H  H53  1  0.22046000  0.36197900  0.24376100  1
  H  H54  1  0.15946000  0.34695500  0.23464300  1
  H  H55  1  0.61101200  0.69547700  0.58075900  1
  H  H56  1  0.67954800  0.72292000  0.68625400  1
  H  H57  1  0.66407600  0.66776300  0.69228200  1
  H  H58  1  0.79129400  0.65900700  0.71126500  1
  H  H59  1  0.76423900  0.63986100  0.75851700  1
  H  H60  1  0.78483400  0.69627700  0.76987200  1
  H  H61  1  0.73998400  0.42301200  0.57013100  1
  H  H62  1  0.82123900  0.40876800  0.67478000  1
  H  H63  1  0.77060300  0.42773400  0.68328900  1
  H  H64  1  0.77565300  0.31040300  0.71186400  1
  H  H65  1  0.77954100  0.36197900  0.75623900  1
  H  H66  1  0.84054000  0.34695500  0.76535700  1
  H  H67  1  0.38898900  0.69547700  0.41924100  1
  H  H68  1  0.32045200  0.72292000  0.31374700  1
  H  H69  1  0.33592400  0.66776300  0.30771800  1
  H  H70  1  0.20870700  0.65900700  0.28873500  1
  H  H71  1  0.23576100  0.63986100  0.24148300  1
  H  H72  1  0.21516600  0.69627700  0.23012800  1
  C  C1  1  0.81197900  0.79145700  0.49088500  1
  C  C2  1  0.20597400  0.17508100  0.50939600  1
  C  C3  1  0.18802100  0.79145700  0.50911600  1
  C  C4  1  0.79402700  0.17508100  0.49060500  1
  C  C5  1  0.31197900  0.29145700  0.49088500  1
  C  C6  1  0.70597400  0.67508100  0.50939600  1
  C  C7  1  0.68802100  0.29145700  0.50911600  1
  C  C8  1  0.29402700  0.67508100  0.49060500  1
  C  C9  1  0.66859300  0.73037800  0.32398100  1
  C  C10  1  0.34827100  0.23616900  0.67635500  1
  C  C11  1  0.33140700  0.73037800  0.67601900  1
  C  C12  1  0.65172900  0.23616900  0.32364500  1
  C  C13  1  0.16859300  0.23037800  0.32398100  1
  C  C14  1  0.84827100  0.73616900  0.67635500  1
  C  C15  1  0.83140700  0.23037800  0.67601900  1
  C  C16  1  0.15172900  0.73616900  0.32364500  1
  C  C17  1  0.61730600  0.72901200  0.22407500  1
  C  C18  1  0.39627500  0.23649800  0.77627200  1
  C  C19  1  0.38269500  0.72901200  0.77592600  1
  C  C20  1  0.60372500  0.23649800  0.22372900  1
  C  C21  1  0.11730600  0.22901200  0.22407500  1
  C  C22  1  0.89627500  0.73649800  0.77627200  1
  C  C23  1  0.88269500  0.22901200  0.77592600  1
  C  C24  1  0.10372500  0.73649800  0.22372900  1
  C  C25  1  0.57364600  0.72828200  0.14018900  1
  C  C26  1  0.43552500  0.23665500  0.86007000  1
  C  C27  1  0.42635400  0.72828200  0.85981100  1
  C  C28  1  0.56447600  0.23665500  0.13993000  1
  C  C29  1  0.07364600  0.22828200  0.14018900  1
  C  C30  1  0.93552500  0.73665500  0.86007000  1
  C  C31  1  0.92635400  0.22828200  0.85981100  1
  C  C32  1  0.06447600  0.73665500  0.13993000  1
  C  C33  1  0.52206500  0.72786000  0.04192600  1
  C  C34  1  0.48078100  0.23674100  0.95816000  1
  C  C35  1  0.47793600  0.72786000  0.95807400  1
  C  C36  1  0.51921900  0.23674100  0.04184000  1
  C  C37  1  0.02206500  0.22786000  0.04192600  1
  C  C38  1  0.98078100  0.73674100  0.95816000  1
  C  C39  1  0.97793600  0.22786000  0.95807400  1
  C  C40  1  0.01921900  0.73674100  0.04184000  1
  C  C41  1  0.84830500  0.89096600  0.42819400  1
  C  C42  1  0.13978100  0.10661200  0.57367700  1
  C  C43  1  0.15169600  0.89096600  0.57180700  1
  C  C44  1  0.86021900  0.10661200  0.42632400  1
  C  C45  1  0.34830500  0.39096600  0.42819400  1
  C  C46  1  0.63978100  0.60661200  0.57367700  1
  C  C47  1  0.65169600  0.39096600  0.57180700  1
  C  C48  1  0.36021900  0.60661200  0.42632400  1
  C  C49  1  0.90897200  0.90128000  0.50463400  1
  C  C50  1  0.08894000  0.08609600  0.49587400  1
  C  C51  1  0.09102800  0.90128000  0.49536700  1
  C  C52  1  0.91106000  0.08609600  0.50412700  1
  C  C53  1  0.40897200  0.40128000  0.50463400  1
  C  C54  1  0.58894000  0.58609600  0.49587400  1
  C  C55  1  0.59102800  0.40128000  0.49536700  1
  C  C56  1  0.41106000  0.58609600  0.50412700  1
  C  C57  1  0.81356200  0.85951000  0.43065700  1
  C  C58  1  0.17012000  0.14260400  0.57167900  1
  C  C59  1  0.18643900  0.85951000  0.56934300  1
  C  C60  1  0.82988000  0.14260400  0.42832100  1
  C  C61  1  0.31356200  0.35951000  0.43065700  1
  C  C62  1  0.67012000  0.64260400  0.57167900  1
  C  C63  1  0.68643900  0.35951000  0.56934300  1
  C  C64  1  0.32988000  0.64260400  0.42832100  1
  C  C65  1  0.84348300  0.82438900  0.48536400  1
  C  C66  1  0.17601800  0.14064600  0.51479300  1
  C  C67  1  0.15651800  0.82438900  0.51463600  1
  C  C68  1  0.82398200  0.14064600  0.48520700  1
  C  C69  1  0.34348300  0.32438900  0.48536400  1
  C  C70  1  0.67601800  0.64064600  0.51479300  1
  C  C71  1  0.65651800  0.32438900  0.51463600  1
  C  C72  1  0.32398200  0.64064600  0.48520700  1
  C  C73  1  0.44247800  0.55166800  0.50183300  1
  C  C74  1  0.55808800  0.43400300  0.49816300  1
  C  C75  1  0.55752200  0.55166800  0.49816700  1
  C  C76  1  0.44191300  0.43400300  0.50183700  1
  C  C77  1  0.94247800  0.05166800  0.50183300  1
  C  C78  1  0.05808800  0.93400300  0.49816300  1
  C  C79  1  0.05752200  0.05166800  0.49816700  1
  C  C80  1  0.94191300  0.93400300  0.50183700  1
  C  C81  1  0.72806500  0.90841900  0.35956400  1
  C  C82  1  0.71089900  0.84493100  0.27877000  1
  C  C83  1  0.16120300  0.19131000  0.64963000  1
  C  C84  1  0.26322200  0.16747400  0.72385000  1
  C  C85  1  0.27193500  0.90841900  0.64043700  1
  C  C86  1  0.28910200  0.84493100  0.72123000  1
  C  C87  1  0.83879700  0.19131000  0.35037000  1
  C  C88  1  0.73677800  0.16747400  0.27615100  1
  C  C89  1  0.22806500  0.40841900  0.35956400  1
  C  C90  1  0.21089900  0.34493100  0.27877000  1
  C  C91  1  0.66120300  0.69131000  0.64963000  1
  C  C92  1  0.76322200  0.66747400  0.72385000  1
  C  C93  1  0.77193500  0.40841900  0.64043700  1
  C  C94  1  0.78910200  0.34493100  0.72123000  1
  C  C95  1  0.33879700  0.69131000  0.35037000  1
  C  C96  1  0.23677800  0.66747400  0.27615100  1
  N  N1  1  0.74712600  0.86438500  0.36813400  1
  N  N2  1  0.19862500  0.17696400  0.63663000  1
  N  N3  1  0.25287400  0.86438500  0.63186600  1
  N  N4  1  0.80137600  0.17696400  0.36337000  1
  N  N5  1  0.24712600  0.36438500  0.36813400  1
  N  N6  1  0.69862500  0.67696400  0.63663000  1
  N  N7  1  0.75287400  0.36438500  0.63186600  1
  N  N8  1  0.30137600  0.67696400  0.36337000  1
  O  O1  1  0.83824200  0.75261600  0.52119900  1
  O  O2  1  0.20619500  0.21516900  0.53164500  1
  O  O3  1  0.16175900  0.75261600  0.47880100  1
  O  O4  1  0.79380600  0.21516900  0.46835600  1
  O  O5  1  0.33824200  0.25261600  0.52119900  1
  O  O6  1  0.70619500  0.71516900  0.53164500  1
  O  O7  1  0.66175900  0.25261600  0.47880100  1
  O  O8  1  0.29380600  0.71516900  0.46835600  1
  O  O9  1  0.76020000  0.80183300  0.46747100  1
  O  O10  1  0.23044200  0.16416500  0.48023100  1
  O  O11  1  0.23980000  0.80183300  0.53253000  1
  O  O12  1  0.76955800  0.16416500  0.51976900  1
  O  O13  1  0.26020000  0.30183300  0.46747100  1
  O  O14  1  0.73044200  0.66416500  0.48023100  1
  O  O15  1  0.73980000  0.30183300  0.53253000  1
  O  O16  1  0.26955800  0.66416500  0.51976900  1
  O  O17  1  0.72448400  0.71474200  0.36682800  1
  O  O18  1  0.30896600  0.26943900  0.63115500  1
  O  O19  1  0.27551600  0.71474200  0.63317300  1
  O  O20  1  0.69103500  0.26943900  0.36884500  1
  O  O21  1  0.22448400  0.21474200  0.36682800  1
  O  O22  1  0.80896600  0.76943900  0.63115500  1
  O  O23  1  0.77551600  0.21474200  0.63317300  1
  O  O24  1  0.19103500  0.76943900  0.36884500  1
  O  O25  1  0.65727600  0.74760300  0.36801000  1
  O  O26  1  0.34415200  0.20193500  0.63457500  1
  O  O27  1  0.34272400  0.74760300  0.63199000  1
  O  O28  1  0.65584900  0.20193500  0.36542500  1
  O  O29  1  0.15727600  0.24760300  0.36801000  1
  O  O30  1  0.84415200  0.70193500  0.63457500  1
  O  O31  1  0.84272400  0.24760300  0.63199000  1
  O  O32  1  0.15584900  0.70193500  0.36542500  1
  O  O33  1  0.41446000  0.53626200  0.42094200  1
  O  O34  1  0.58635600  0.44975400  0.57896800  1
  O  O35  1  0.58554100  0.53626200  0.57905900  1
  O  O36  1  0.41364400  0.44975400  0.42103300  1
  O  O37  1  0.91446000  0.03626200  0.42094200  1
  O  O38  1  0.08635600  0.94975400  0.57896800  1
  O  O39  1  0.08554100  0.03626200  0.57905900  1
  O  O40  1  0.91364400  0.94975400  0.42103300  1
  O  O41  1  0.49791700  0.53793400  0.58156600  1
  O  O42  1  0.50147100  0.44646600  0.41873500  1
  O  O43  1  0.50208300  0.53793400  0.41843400  1
  O  O44  1  0.49853000  0.44646600  0.58126500  1
  O  O45  1  0.99791700  0.03793400  0.58156600  1
  O  O46  1  0.00147100  0.94646600  0.41873500  1
  O  O47  1  0.00208300  0.03793400  0.41843400  1
  O  O48  1  0.99853000  0.94646600  0.58126500  1
