# generated using pymatgen
data_Zn2H24C29O9
_symmetry_space_group_name_H-M   'P 1'
_cell_length_a   27.61324500
_cell_length_b   27.60423300
_cell_length_c   27.65248200
_cell_angle_alpha   109.37049400
_cell_angle_beta   109.51736200
_cell_angle_gamma   109.41968100
_symmetry_Int_Tables_number   1
_chemical_formula_structural   Zn2H24C29O9
_chemical_formula_sum   'Zn6 H72 C87 O27'
_cell_volume   16246.96736910
_cell_formula_units_Z   3
loop_
 _symmetry_equiv_pos_site_id
 _symmetry_equiv_pos_as_xyz
  1  'x, y, z'
loop_
 _atom_site_type_symbol
 _atom_site_label
 _atom_site_symmetry_multiplicity
 _atom_site_fract_x
 _atom_site_fract_y
 _atom_site_fract_z
 _atom_site_occupancy
  Zn  Zn1  1  0.00061400  0.04725400  0.54802700  1
  Zn  Zn2  1  0.00122200  0.95208500  0.45391500  1
  Zn  Zn3  1  0.45280700  0.95225700  0.00009200  1
  Zn  Zn4  1  0.54825800  0.04716300  0.00032300  1
  Zn  Zn5  1  0.54792500  0.49926500  0.54774600  1
  Zn  Zn6  1  0.45314700  0.49986300  0.45298900  1
  H  H1  1  0.71467200  0.90118400  0.24075300  1
  H  H2  1  0.66197400  0.97261400  0.25923600  1
  H  H3  1  0.72454300  0.92742600  0.15274400  1
  H  H4  1  0.83873000  0.02501700  0.24094700  1
  H  H5  1  0.78603500  0.09643700  0.25943600  1
  H  H6  1  0.77615700  0.07019900  0.34742800  1
  H  H7  1  0.76734100  0.75447100  0.59625900  1
  H  H8  1  0.84182000  0.81824500  0.59380200  1
  H  H9  1  0.78677300  0.71560900  0.43629000  1
  H  H10  1  0.84126100  0.74430200  0.51183100  1
  H  H11  1  0.77512200  0.68049800  0.52259000  1
  H  H12  1  0.72415600  0.64566400  0.44444200  1
  H  H13  1  0.72527100  0.81477200  0.47372800  1
  H  H14  1  0.72540300  0.76221900  0.41378300  1
  H  H15  1  0.65139000  0.73766100  0.46346300  1
  H  H16  1  0.79862700  0.85352500  0.57818300  1
  H  H17  1  0.72059700  0.78364600  0.57099300  1
  H  H18  1  0.65859800  0.68507400  0.41056400  1
  H  H19  1  0.26893400  0.09613800  0.75162700  1
  H  H20  1  0.22070600  0.93986700  0.64876400  1
  H  H21  1  0.27233400  0.01661200  0.67831400  1
  H  H22  1  0.33988500  0.00560300  0.74345200  1
  H  H23  1  0.28408300  0.93419500  0.71915400  1
  H  H24  1  0.15760100  0.97402300  0.74915900  1
  H  H25  1  0.15309600  0.91450700  0.69131200  1
  H  H26  1  0.22530500  0.96537300  0.81571100  1
  H  H27  1  0.22189400  0.07625200  0.78106800  1
  H  H28  1  0.22530400  0.91310800  0.75757200  1
  H  H29  1  0.22828000  0.32085100  0.48262200  1
  H  H30  1  0.16298700  0.25761200  0.49461000  1
  H  H31  1  0.19744800  0.14469400  0.41947100  1
  H  H32  1  0.15636700  0.18254700  0.40826900  1
  H  H33  1  0.22822600  0.24752200  0.40555100  1
  H  H34  1  0.27730000  0.23164600  0.58400000  1
  H  H35  1  0.27425900  0.18033500  0.52061200  1
  H  H36  1  0.34225200  0.31060900  0.58826200  1
  H  H37  1  0.21939000  0.28361200  0.56838100  1
  H  H38  1  0.28138700  0.35334200  0.55952600  1
  H  H39  1  0.35081700  0.26011400  0.53566700  1
  H  H40  1  0.40551000  0.24478700  0.23412500  1
  H  H41  1  0.40809800  0.18118400  0.15979200  1
  H  H42  1  0.56554800  0.28447400  0.21427600  1
  H  H43  1  0.48973300  0.25535200  0.15996300  1
  H  H44  1  0.47877400  0.31893600  0.22595900  1
  H  H45  1  0.55714100  0.35420300  0.27671200  1
  H  H46  1  0.52910600  0.18554400  0.27623000  1
  H  H47  1  0.58881500  0.23826700  0.27583300  1
  H  H48  1  0.53919800  0.26254400  0.34990200  1
  H  H49  1  0.42424800  0.14618300  0.20309900  1
  H  H50  1  0.43134000  0.21595500  0.28096300  1
  H  H51  1  0.59178400  0.31524600  0.34241700  1
  H  H52  1  0.51157700  0.67005600  0.76679300  1
  H  H53  1  0.52194400  0.74678900  0.84099500  1
  H  H54  1  0.56945100  0.84959000  0.78583600  1
  H  H55  1  0.59521300  0.82844800  0.84037000  1
  H  H56  1  0.59323200  0.75174600  0.77452900  1
  H  H57  1  0.57716500  0.77905900  0.72353100  1
  H  H58  1  0.40899100  0.75037000  0.72437600  1
  H  H59  1  0.46157200  0.81060500  0.72444000  1
  H  H60  1  0.41258600  0.68703600  0.65075500  1
  H  H61  1  0.44355200  0.71912400  0.79780100  1
  H  H62  1  0.43574700  0.64853500  0.72002300  1
  H  H63  1  0.47229500  0.74729700  0.65792700  1
  H  H64  1  0.39666000  0.11132000  0.86194100  1
  H  H65  1  0.36779500  0.15863400  0.85354100  1
  H  H66  1  0.40951000  0.11987800  0.79576000  1
  H  H67  1  0.32721100  0.08768800  0.90591200  1
  H  H68  1  0.24887200  0.05728000  0.86099000  1
  H  H69  1  0.32827100  0.16505200  0.93249800  1
  H  H70  1  0.29600200  0.18410600  0.43729500  1
  H  H71  1  0.32003300  0.23923100  0.41660500  1
  H  H72  1  0.24640900  0.12762600  0.34975200  1
  C  C1  1  0.91926000  0.91712900  0.50063500  1
  C  C2  1  0.91873600  0.99973200  0.41942600  1
  C  C3  1  0.08257000  0.08220700  0.50129600  1
  C  C4  1  0.08310000  0.99961600  0.58252200  1
  C  C5  1  0.70272300  0.98448300  0.25580100  1
  C  C6  1  0.73013200  0.94541900  0.24427500  1
  C  C7  1  0.87376200  0.99921700  0.37413300  1
  C  C8  1  0.62736000  0.99930400  0.12652200  1
  C  C9  1  0.76375600  0.03785300  0.30261200  1
  C  C10  1  0.79032300  0.99879500  0.29024200  1
  C  C11  1  0.77057500  0.05220200  0.25591200  1
  C  C12  1  0.71038200  0.99883300  0.20994100  1
  C  C13  1  0.79797900  0.01314400  0.24438000  1
  C  C14  1  0.73694300  0.95977100  0.19756100  1
  C  C15  1  0.83602200  0.99893800  0.33617000  1
  C  C16  1  0.66483300  0.99901200  0.16418300  1
  C  C17  1  0.79889600  0.81110400  0.56292100  1
  C  C18  1  0.79589600  0.73363500  0.48260400  1
  C  C19  1  0.75138400  0.68795500  0.48708700  1
  C  C20  1  0.62835800  0.62663100  0.50148300  1
  C  C21  1  0.79086000  0.78910700  0.50126200  1
  C  C22  1  0.74877800  0.76544400  0.56182700  1
  C  C23  1  0.71186700  0.71017200  0.50139100  1
  C  C24  1  0.68294800  0.72459400  0.45518400  1
  C  C25  1  0.73027600  0.77511200  0.45834200  1
  C  C26  1  0.66607400  0.66438800  0.50145000  1
  C  C27  1  0.83665400  0.83484000  0.50115100  1
  C  C28  1  0.87437200  0.87244600  0.50097100  1
  C  C29  1  0.25051700  0.06437600  0.76538200  1
  C  C30  1  0.24961000  0.98404600  0.68931800  1
  C  C31  1  0.29484100  0.98100100  0.73583100  1
  C  C32  1  0.37376500  0.00055900  0.87426600  1
  C  C33  1  0.21224200  0.00220000  0.71253800  1
  C  C34  1  0.29934800  0.06653800  0.81422900  1
  C  C35  1  0.29150400  0.00319400  0.79219000  1
  C  C36  1  0.23079800  0.95807100  0.77653000  1
  C  C37  1  0.18338800  0.95952600  0.73056100  1
  C  C38  1  0.33657600  0.00167000  0.83715900  1
  C  C39  1  0.16616700  0.00110200  0.66608300  1
  C  C40  1  0.12821600  0.00034400  0.62787100  1
  C  C41  1  0.20817300  0.26630300  0.52145800  1
  C  C42  1  0.19943800  0.18814500  0.43672500  1
  C  C43  1  0.24860600  0.23352300  0.43624200  1
  C  C44  1  0.37274300  0.37226200  0.49902900  1
  C  C45  1  0.21047700  0.20945800  0.49942100  1
  C  C46  1  0.25231500  0.31164000  0.51631600  1
  C  C47  1  0.28933200  0.28774500  0.49830800  1
  C  C48  1  0.31831100  0.27184300  0.54320300  1
  C  C49  1  0.27092900  0.22062000  0.53916000  1
  C  C50  1  0.33507600  0.33413600  0.49874100  1
  C  C51  1  0.16490900  0.16420900  0.50022800  1
  C  C52  1  0.12733800  0.12682800  0.50077800  1
  C  C53  1  0.50148800  0.08252500  0.08210700  1
  C  C54  1  0.58286000  0.99980800  0.08177000  1
  C  C55  1  0.49956500  0.91689500  0.91829600  1
  C  C56  1  0.41819200  0.99964100  0.91863700  1
  C  C57  1  0.50113000  0.58119700  0.58309100  1
  C  C58  1  0.58347400  0.58164400  0.50152000  1
  C  C59  1  0.49994300  0.41793100  0.41764400  1
  C  C60  1  0.41760000  0.41748300  0.49921200  1
  C  C61  1  0.43925200  0.18854400  0.20267000  1
  C  C62  1  0.51918900  0.26619700  0.20527600  1
  C  C63  1  0.51456200  0.31176500  0.24970100  1
  C  C64  1  0.50021500  0.37307500  0.37282000  1
  C  C65  1  0.50094500  0.21076800  0.21046500  1
  C  C66  1  0.44025300  0.23412700  0.25269700  1
  C  C67  1  0.50060600  0.28967900  0.28941500  1
  C  C68  1  0.54720700  0.27557300  0.31825300  1
  C  C69  1  0.54418800  0.22513200  0.27104000  1
  C  C70  1  0.50040500  0.33541600  0.33516600  1
  C  C71  1  0.50114400  0.16503600  0.16470700  1
  C  C72  1  0.50130600  0.12738200  0.12702000  1
  C  C73  1  0.48625200  0.73480600  0.79809900  1
  C  C74  1  0.56060200  0.81234700  0.79504400  1
  C  C75  1  0.56201700  0.76348000  0.75070800  1
  C  C76  1  0.50086600  0.62607400  0.62790000  1
  C  C77  1  0.50010100  0.78855800  0.79003100  1
  C  C78  1  0.48203100  0.68591700  0.74814300  1
  C  C79  1  0.50045400  0.70955100  0.71119900  1
  C  C80  1  0.45710000  0.72688100  0.68226500  1
  C  C81  1  0.45366100  0.77089500  0.72942800  1
  C  C82  1  0.50066800  0.66376400  0.66551300  1
  C  C83  1  0.49990200  0.83434400  0.83573300  1
  C  C84  1  0.49974500  0.87202800  0.87339400  1
  C  C85  1  0.36080800  0.11349400  0.83089400  1
  C  C86  1  0.29305200  0.08674200  0.86971800  1
  C  C87  1  0.28100000  0.20561000  0.41274600  1
  O  O1  1  0.93759200  0.97286300  0.53533100  1
  O  O2  1  0.93975100  0.90006200  0.46562500  1
  O  O3  1  0.93884100  0.03726100  0.47470900  1
  O  O4  1  0.93762200  0.96274800  0.40330400  1
  O  O5  1  0.06208300  0.09928100  0.53631400  1
  O  O6  1  0.06423700  0.02647400  0.46660700  1
  O  O7  1  0.06421500  0.03659600  0.59863400  1
  O  O8  1  0.06300300  0.96208400  0.52723700  1
  O  O9  1  0.46421000  0.02679500  0.06143100  1
  O  O10  1  0.53889300  0.09939000  0.06387600  1
  O  O11  1  0.52709300  0.96291500  0.06123300  1
  O  O12  1  0.60013700  0.03724700  0.06372100  1
  O  O13  1  0.46216600  0.90003400  0.93653200  1
  O  O14  1  0.53684400  0.97262400  0.93897300  1
  O  O15  1  0.40090000  0.96221100  0.93669300  1
  O  O16  1  0.47395100  0.03654800  0.93918900  1
  O  O17  1  0.53838200  0.56272300  0.59993200  1
  O  O18  1  0.46416100  0.56087700  0.52741900  1
  O  O19  1  0.60030400  0.56307900  0.53862000  1
  O  O20  1  0.52777800  0.56126000  0.46443100  1
  O  O21  1  0.53691900  0.43825500  0.47331800  1
  O  O22  1  0.46269900  0.43641200  0.40080600  1
  O  O23  1  0.47329300  0.43785800  0.53629200  1
  O  O24  1  0.40076600  0.43604100  0.46210600  1
  O  O25  1  0.36704300  0.10719600  0.78152300  1
  O  O26  1  0.30036900  0.14356300  0.88938700  1
  O  O27  1  0.24256800  0.16284500  0.35314300  1
