# Generated by REPEAT Assigner based on pymatgen
data_DB0-m29_o97_o110_f0_pts.sym.46
_audit_creation_date              2022-05-24
_audit_creation_method            REPEAT_Assigner
_cell_length_a                    17.483372
_cell_length_b                    14.180603
_cell_length_c                    11.005550
_cell_angle_alpha                 96.045555
_cell_angle_beta                  82.656293
_cell_angle_gamma                 97.043962
_cell_volume                      2674.580076
_symmetry_space_group_name_H-M    P1
_symmetry_Int_Tables_number       1
loop_
    _symmetry_equiv_pos_site_id
    _symmetry_equiv_pos_as_xyz
    1  x,y,z
loop_
    _atom_site_type_symbol
    _atom_site_label
    _atom_site_fract_x
    _atom_site_fract_y
    _atom_site_fract_z
    _atom_type_partial_charge
    C   C1   0.242896  0.985626  0.180549  -0.190635
    C   C2   0.109621  0.968693  0.252392  -0.180778
    C   C3   0.303116  0.005190  0.090735  -0.086007
    C   C4   0.288034  0.021451  0.974367  -0.046620
    C   C5   0.167548  0.986332  0.158962  0.169613
    C   C6   0.150227  0.003214  0.045302  0.021482
    C   C7   0.210442  0.018247  0.951528  0.103825
    C   C8   0.191322  0.025391  0.835419  -0.140478
    C   C9   0.033737  0.969846  0.234926  -0.140322
    C   C10  0.013875  0.989718  0.122481  0.031956
    C   C11  0.072762  0.003056  0.025813  0.012208
    C   C12  0.054654  0.015293  0.909844  0.067958
    C   C13  0.115371  0.023913  0.814944  -0.167489
    C   C14  0.876713  0.990928  0.201024  -0.159040
    C   C15  0.936471  0.993574  0.104319  0.064567
    C   C16  0.918062  0.003706  0.988019  0.010666
    C   C17  0.976773  0.015615  0.890598  0.026672
    C   C18  0.955895  0.029485  0.776259  -0.131824
    C   C19  0.800591  0.989288  0.181460  -0.143871
    C   C20  0.780678  0.990672  0.064467  0.100901
    C   C21  0.840399  0.002581  0.969114  0.034931
    C   C22  0.822353  0.015048  0.854356  0.163084
    C   C23  0.702820  0.985566  0.042163  -0.055774
    C   C24  0.687019  0.997386  0.924599  -0.035428
    C   C25  0.879745  0.028918  0.759124  -0.184582
    C   C26  0.746781  0.014338  0.833169  -0.216746
    H   H1   0.254980  0.973729  0.271230  0.177630
    H   H2   0.123264  0.953220  0.340780  0.130929
    H   H3   0.234149  0.029937  0.756188  0.146698
    H   H4   0.992302  0.951462  0.311878  0.127868
    H   H5   0.107545  0.028481  0.720765  0.134766
    H   H6   0.886064  0.993166  0.295898  0.131979
    H   H7   0.996284  0.042443  0.696307  0.126918
    H   H8   0.758360  0.989690  0.261732  0.150282
    H   H9   0.865455  0.039721  0.669263  0.130507
    H   H10  0.734086  0.022847  0.741670  0.209922
    O   O1   0.578176  0.023303  0.144324  -0.566042
    C   C27  0.637159  0.973133  0.140389  0.584125
    O   O2   0.477128  0.805414  0.219937  -0.456586
    O   O3   0.635361  0.909327  0.219062  -0.526818
    O   O4   0.493671  0.901618  0.393891  -0.553536
    C   C28  0.482558  0.815185  0.338506  0.575486
    Fe  Fe1  0.493782  0.000500  0.279517  1.471395
    O   O5   0.396752  0.954099  0.201654  -0.597375
    O   O6   0.430064  0.089824  0.105332  -0.561881
    C   C29  0.381510  0.013526  0.126615  0.811961
    O   O7   0.501719  0.127234  0.379686  -0.659078
    O   O8   0.371115  0.088509  0.410438  -0.621895
    C   C30  0.432616  0.148648  0.429017  0.687397
    O   O9   0.487503  0.873313  0.636985  -0.659840
    O   O10  0.617286  0.915499  0.601310  -0.646220
    C   C31  0.556502  0.853372  0.585692  0.743864
    O   O11  0.592812  0.046969  0.814078  -0.531294
    O   O12  0.560385  0.911351  0.911013  -0.544527
    C   C32  0.608456  0.987968  0.889279  0.722205
    O   O13  0.358892  0.101770  0.802791  -0.528255
    O   O14  0.497715  0.098648  0.618869  -0.558181
    C   C33  0.515194  0.185841  0.668487  0.626437
    O   O15  0.410810  0.979991  0.870007  -0.573646
    C   C34  0.354205  0.034261  0.877126  0.589604
    O   O16  0.521173  0.199784  0.786850  -0.464909
    Fe  Fe2  0.495986  0.000885  0.735338  1.448675
    C   C35  0.360427  0.285902  0.458470  -0.168532
    C   C36  0.423373  0.245826  0.484153  0.053968
    C   C37  0.484195  0.304215  0.531769  0.109798
    C   C38  0.537439  0.267591  0.593198  -0.105047
    C   C39  0.606211  0.323069  0.611846  -0.058353
    C   C40  0.363059  0.382892  0.459876  -0.092531
    C   C41  0.431239  0.441440  0.478475  0.002807
    C   C42  0.490807  0.402036  0.520110  0.056768
    C   C43  0.557137  0.459714  0.548873  -0.033866
    C   C44  0.388393  0.576001  0.395981  -0.143548
    C   C45  0.440585  0.537964  0.456958  0.092803
    C   C46  0.504694  0.597222  0.492603  -0.006622
    C   C47  0.401366  0.668597  0.367553  -0.146864
    C   C48  0.462460  0.729359  0.406597  0.029048
    C   C49  0.617130  0.416568  0.584189  -0.050556
    C   C50  0.562505  0.558522  0.540747  0.093401
    C   C51  0.624102  0.620167  0.581499  -0.132313
    C   C52  0.511003  0.695371  0.480063  0.074716
    C   C53  0.567416  0.755292  0.537459  0.027405
    C   C54  0.625310  0.716734  0.581697  -0.145279
    H   H11  0.311020  0.408779  0.440448  0.116658
    H   H12  0.340459  0.534154  0.356968  0.141709
    H   H13  0.363603  0.692909  0.309763  0.139956
    H   H14  0.673565  0.454010  0.593064  0.107194
    H   H15  0.669331  0.598076  0.625829  0.150949
    H   H16  0.310725  0.241774  0.426634  0.149375
    H   H17  0.668949  0.762250  0.627994  0.134044
    C   C55  0.668935  0.282748  0.659783  0.484172
    H   H18  0.666741  0.206595  0.665251  -0.018557
    O   O17  0.725358  0.334364  0.691386  -0.469536
