# generated using pymatgen
data_ZnH19C33(NO2)3
_symmetry_space_group_name_H-M   'P 1'
_cell_length_a   27.61593200
_cell_length_b   10.79587500
_cell_length_c   9.71194700
_cell_angle_alpha   90.00809200
_cell_angle_beta   89.99061400
_cell_angle_gamma   89.98442400
_symmetry_Int_Tables_number   1
_chemical_formula_structural   ZnH19C33(NO2)3
_chemical_formula_sum   'Zn2 H38 C66 N6 O12'
_cell_volume   2895.50173558
_cell_formula_units_Z   2
loop_
 _symmetry_equiv_pos_site_id
 _symmetry_equiv_pos_as_xyz
  1  'x, y, z'
loop_
 _atom_site_type_symbol
 _atom_site_label
 _atom_site_symmetry_multiplicity
 _atom_site_fract_x
 _atom_site_fract_y
 _atom_site_fract_z
 _atom_site_occupancy
  Zn  Zn1  1  0.49899400  0.50060300  0.65486800  1
  Zn  Zn2  1  0.49937100  0.50054300  0.34137300  1
  H  H1  1  0.34522700  0.44432000  0.28542900  1
  H  H2  1  0.65348800  0.55695800  0.28723600  1
  H  H3  1  0.25689100  0.44323900  0.28620600  1
  H  H4  1  0.74178400  0.55797200  0.28895100  1
  H  H5  1  0.11924400  0.19442100  0.45672900  1
  H  H6  1  0.87907800  0.80678600  0.45871000  1
  H  H7  1  0.65324000  0.44714800  0.71077200  1
  H  H8  1  0.34480700  0.55406200  0.70902600  1
  H  H9  1  0.74156800  0.44599400  0.70973300  1
  H  H10  1  0.25651800  0.55515500  0.70704200  1
  H  H11  1  0.87870600  0.19578100  0.53877500  1
  H  H12  1  0.11975900  0.80547400  0.53653600  1
  H  H13  1  0.96384900  0.19123000  0.53493800  1
  H  H14  1  0.03461700  0.81001400  0.53417700  1
  H  H15  1  0.03409100  0.19082300  0.46042600  1
  H  H16  1  0.96422900  0.81037700  0.46092400  1
  H  H17  1  0.54748200  0.07877100  0.69105300  1
  H  H18  1  0.44963900  0.92669800  0.30699600  1
  H  H19  1  0.46434000  0.92198200  0.71325300  1
  H  H20  1  0.53530100  0.07466600  0.28419500  1
  H  H21  1  0.56611800  0.39119800  0.90471000  1
  H  H22  1  0.43225000  0.60993400  0.09153900  1
  H  H23  1  0.49586100  0.29669300  0.08898100  1
  H  H24  1  0.50249300  0.70444800  0.90727500  1
  H  H25  1  0.42834100  0.40687700  0.90708400  1
  H  H26  1  0.57001300  0.59433800  0.08916000  1
  H  H27  1  0.60619900  0.94113000  0.37998700  1
  H  H28  1  0.67596300  0.02146200  0.47650600  1
  H  H29  1  0.72915400  0.03966400  0.67695700  1
  H  H30  1  0.70483500  0.95055900  0.89942100  1
  H  H31  1  0.62711400  0.84112600  0.92043300  1
  H  H32  1  0.57369700  0.82122600  0.72059000  1
  H  H33  1  0.38709500  0.06380000  0.43421800  1
  H  H34  1  0.32348300  0.97804400  0.55493300  1
  H  H35  1  0.28119900  0.95196500  0.77437800  1
  H  H36  1  0.31673100  0.03343400  0.98808800  1
  H  H37  1  0.39474000  0.14298500  0.98134800  1
  H  H38  1  0.43731700  0.17065800  0.76236800  1
  C  C1  1  0.49959300  0.25849300  0.49842600  1
  C  C2  1  0.49874900  0.74265300  0.49789800  1
  C  C3  1  0.40440200  0.49945100  0.49770200  1
  C  C4  1  0.59396700  0.50170200  0.49854100  1
  C  C5  1  0.17528300  0.39219900  0.48137900  1
  C  C6  1  0.82308900  0.60902300  0.48421200  1
  C  C7  1  0.17545400  0.60706700  0.51131100  1
  C  C8  1  0.82295600  0.39417300  0.51423100  1
  C  C9  1  0.27606200  0.53079000  0.61445600  1
  C  C10  1  0.72215200  0.47039400  0.61696500  1
  C  C11  1  0.32598600  0.52939300  0.61541700  1
  C  C12  1  0.67221400  0.47182400  0.61740600  1
  C  C13  1  0.32621100  0.46890100  0.37877600  1
  C  C14  1  0.67234700  0.53235600  0.38080300  1
  C  C15  1  0.27627300  0.46751900  0.37906800  1
  C  C16  1  0.72227600  0.53370100  0.38161400  1
  C  C17  1  0.25110000  0.49921000  0.49659300  1
  C  C18  1  0.74728400  0.50198400  0.49935800  1
  C  C19  1  0.09980200  0.50005500  0.49676200  1
  C  C20  1  0.89859000  0.50117600  0.49860200  1
  C  C21  1  0.12517400  0.39095500  0.48320000  1
  C  C22  1  0.87319700  0.61027000  0.48539400  1
  C  C23  1  0.10036700  0.28122900  0.47038900  1
  C  C24  1  0.89797800  0.71998500  0.47211800  1
  C  C25  1  0.12535200  0.60887400  0.50997800  1
  C  C26  1  0.87306100  0.39236900  0.51226300  1
  C  C27  1  0.35132900  0.49918500  0.49726400  1
  C  C28  1  0.64704700  0.50206200  0.49898700  1
  C  C29  1  0.97384300  0.38927800  0.50301900  1
  C  C30  1  0.02456000  0.61194700  0.50249700  1
  C  C31  1  0.97399700  0.61222300  0.49271200  1
  C  C32  1  0.02438600  0.38899400  0.49228500  1
  C  C33  1  0.94894700  0.50089100  0.49811600  1
  C  C34  1  0.04944500  0.50033300  0.49716800  1
  C  C35  1  0.94739200  0.28046500  0.51994400  1
  C  C36  1  0.05104200  0.72077400  0.51890000  1
  C  C37  1  0.89770700  0.28237200  0.52505000  1
  C  C38  1  0.10073300  0.71887600  0.52313700  1
  C  C39  1  0.05067900  0.27988100  0.47541600  1
  C  C40  1  0.94767300  0.72133100  0.47627400  1
  C  C41  1  0.52568900  0.04078300  0.60494300  1
  C  C42  1  0.47270000  0.96062800  0.39253600  1
  C  C43  1  0.54231200  0.95979900  0.48717600  1
  C  C44  1  0.45600200  0.04136800  0.51046500  1
  C  C45  1  0.49812300  0.88040400  0.49849300  1
  C  C46  1  0.50018500  0.12074100  0.49835200  1
  C  C47  1  0.48005400  0.96007900  0.61708900  1
  C  C48  1  0.51820000  0.04080700  0.38042700  1
  C  C49  1  0.49739900  0.39170200  0.04584900  1
  C  C50  1  0.50096800  0.60943600  0.95039500  1
  C  C51  1  0.53495600  0.44217400  0.94921500  1
  C  C52  1  0.46341300  0.55896500  0.04702800  1
  C  C53  1  0.46133600  0.45049600  0.95044400  1
  C  C54  1  0.53703200  0.55064600  0.04579900  1
  C  C55  1  0.62057800  0.92269100  0.58568400  1
  C  C56  1  0.66473200  0.98201900  0.57369400  1
  C  C57  1  0.69480700  0.99243300  0.68645600  1
  C  C58  1  0.68119700  0.94249200  0.81115900  1
  C  C59  1  0.63760000  0.88136800  0.82296000  1
  C  C60  1  0.60743900  0.87091500  0.71041900  1
  C  C61  1  0.38396400  0.07344800  0.64419600  1
  C  C62  1  0.33964600  0.01402000  0.64810600  1
  C  C63  1  0.31569500  0.99921500  0.77160500  1
  C  C64  1  0.33558900  0.04489200  0.89139200  1
  C  C65  1  0.37935100  0.10608700  0.88760400  1
  C  C66  1  0.40340100  0.12093100  0.76426500  1
  N  N1  1  0.19951400  0.49949800  0.49626900  1
  N  N2  1  0.79887400  0.50173400  0.49940300  1
  N  N3  1  0.49890200  0.50094800  0.86082000  1
  N  N4  1  0.49946500  0.50019100  0.13542300  1
  N  N5  1  0.59030500  0.90982300  0.46922600  1
  N  N6  1  0.40768800  0.09164500  0.51686900  1
  O  O1  1  0.49911300  0.31600200  0.61737800  1
  O  O2  1  0.49897600  0.68518800  0.37884100  1
  O  O3  1  0.49996900  0.31604700  0.37951000  1
  O  O4  1  0.49865600  0.68506600  0.61673400  1
  O  O5  1  0.42686900  0.50010300  0.61678400  1
  O  O6  1  0.57149400  0.50191300  0.37946300  1
  O  O7  1  0.42720800  0.49930400  0.37907700  1
  O  O8  1  0.57115700  0.50097600  0.61715800  1
  O  O9  1  0.20013000  0.28584900  0.46794500  1
  O  O10  1  0.79822600  0.71535800  0.47091400  1
  O  O11  1  0.79795900  0.28810100  0.52776600  1
  O  O12  1  0.20047100  0.71313200  0.52463500  1
