# generated using pymatgen
data_ZnH11C21NO4F
_symmetry_space_group_name_H-M   'P 1'
_cell_length_a   11.47424000
_cell_length_b   13.42843600
_cell_length_c   8.51422900
_cell_angle_alpha   90.00000000
_cell_angle_beta   107.52863400
_cell_angle_gamma   90.00000000
_symmetry_Int_Tables_number   1
_chemical_formula_structural   ZnH11C21NO4F
_chemical_formula_sum   'Zn2 H22 C42 N2 O8 F2'
_cell_volume   1250.96655518
_cell_formula_units_Z   2
loop_
 _symmetry_equiv_pos_site_id
 _symmetry_equiv_pos_as_xyz
  1  'x, y, z'
loop_
 _atom_site_type_symbol
 _atom_site_label
 _atom_site_symmetry_multiplicity
 _atom_site_fract_x
 _atom_site_fract_y
 _atom_site_fract_z
 _atom_site_occupancy
  Zn  Zn1  1  0.49262500  0.89236200  0.98975400  1
  Zn  Zn2  1  0.50161800  0.11232700  0.98412900  1
  H  H1  1  0.02063400  0.03532100  0.69422000  1
  H  H2  1  0.88824100  0.00672500  0.04807400  1
  H  H3  1  0.11187300  0.97558600  0.92775000  1
  H  H4  1  0.98512900  0.92517200  0.27557100  1
  H  H5  1  0.58091800  0.97296300  0.53297900  1
  H  H6  1  0.90101000  0.04172200  0.40509600  1
  H  H7  1  0.40422500  0.05401200  0.43961500  1
  H  H8  1  0.10623000  0.92889600  0.56639800  1
  H  H9  1  0.69454300  0.25046700  0.04103800  1
  H  H10  1  0.68233700  0.75988000  0.05392700  1
  H  H11  1  0.19765800  0.58507200  0.89578900  1
  H  H12  1  0.20142000  0.41095800  0.88659000  1
  H  H13  1  0.70292600  0.42900800  0.04781900  1
  H  H14  1  0.69890400  0.58240600  0.05277300  1
  H  H15  1  0.28069200  0.75310500  0.18849100  1
  H  H16  1  0.06414500  0.79396300  0.13926300  1
  H  H17  1  0.00844000  0.78702300  0.62233900  1
  H  H18  1  0.22604000  0.74817200  0.67151400  1
  H  H19  1  0.25550500  0.24280000  0.65029600  1
  H  H20  1  0.03598800  0.20661300  0.57638900  1
  H  H21  1  0.05395400  0.21742800  0.08299800  1
  H  H22  1  0.27269600  0.25674700  0.15603600  1
  C  C1  1  0.67807900  0.98564100  0.56869800  1
  C  C2  1  0.74220300  0.99165200  0.73282900  1
  C  C3  1  0.86818600  0.00256900  0.78236300  1
  C  C4  1  0.92470600  0.01936400  0.66174100  1
  C  C5  1  0.85695700  0.02351200  0.49692200  1
  C  C6  1  0.73365500  0.00310800  0.45013800  1
  C  C7  1  0.93829700  0.99810400  0.95963700  1
  C  C8  1  0.05980500  0.98328100  0.01358100  1
  C  C9  1  0.25048000  0.01259500  0.24001800  1
  C  C10  1  0.31075800  0.02874800  0.40381900  1
  C  C11  1  0.25950500  0.99994100  0.52267300  1
  C  C12  1  0.14393900  0.95881000  0.47498900  1
  C  C13  1  0.07601100  0.95639600  0.31006900  1
  C  C14  1  0.12893300  0.98420400  0.19053000  1
  C  C15  1  0.65741400  0.00406300  0.27841400  1
  C  C16  1  0.32539000  0.00910600  0.12944800  1
  C  C17  1  0.33664600  0.00028900  0.69467800  1
  C  C18  1  0.66908700  0.99557300  0.84534200  1
  C  C19  1  0.39780600  0.29502000  0.94666100  1
  C  C20  1  0.38780100  0.70701000  0.96193100  1
  C  C21  1  0.61014700  0.29206700  0.01395400  1
  C  C22  1  0.59980900  0.71587900  0.02709700  1
  C  C23  1  0.61409700  0.39516900  0.01817000  1
  C  C24  1  0.60867000  0.61329300  0.02605000  1
  C  C25  1  0.50692000  0.45033200  0.98654500  1
  C  C26  1  0.50422800  0.55499100  0.99042700  1
  C  C27  1  0.39828000  0.39806900  0.95009400  1
  C  C28  1  0.39315400  0.60392000  0.95829600  1
  C  C29  1  0.28608000  0.55001700  0.92198300  1
  C  C30  1  0.28851900  0.44848200  0.91710500  1
  C  C31  1  0.26881600  0.75438100  0.93340900  1
  C  C32  1  0.22241300  0.76557400  0.06421700  1
  C  C33  1  0.10054300  0.78747200  0.03658000  1
  C  C34  1  0.02390900  0.79602300  0.87781400  1
  C  C35  1  0.06956700  0.78384100  0.74676200  1
  C  C36  1  0.19185300  0.76296100  0.77445300  1
  C  C37  1  0.27995100  0.24500000  0.90898000  1
  C  C38  1  0.21278500  0.23203500  0.74617800  1
  C  C39  1  0.08899000  0.21380200  0.70445500  1
  C  C40  1  0.03195500  0.20818200  0.82547900  1
  C  C41  1  0.09898300  0.21983700  0.98832800  1
  C  C42  1  0.22219900  0.24018800  0.02957500  1
  N  N1  1  0.50299800  0.24302900  0.97851100  1
  N  N2  1  0.49072000  0.76172200  0.99508500  1
  O  O1  1  0.62405400  0.09047200  0.20624400  1
  O  O2  1  0.61302000  0.91859100  0.21175200  1
  O  O3  1  0.36162400  0.92104100  0.09602800  1
  O  O4  1  0.37218200  0.09253300  0.09640300  1
  O  O5  1  0.36960000  0.91410700  0.76763100  1
  O  O6  1  0.38047800  0.08600200  0.76199500  1
  O  O7  1  0.63202600  0.08371600  0.87726600  1
  O  O8  1  0.62178200  0.91204300  0.87743400  1
  F  F1  1  0.90299900  0.81278000  0.85054000  1
  F  F2  1  0.90941100  0.19477500  0.78406900  1
