# generated using pymatgen
data_CuH10C15NO8
_symmetry_space_group_name_H-M   'P 1'
_cell_length_a   11.25457500
_cell_length_b   15.11722300
_cell_length_c   13.68631100
_cell_angle_alpha   89.99679700
_cell_angle_beta   102.31488700
_cell_angle_gamma   89.99341200
_symmetry_Int_Tables_number   1
_chemical_formula_structural   CuH10C15NO8
_chemical_formula_sum   'Cu2 H20 C30 N2 O16'
_cell_volume   2274.98073039
_cell_formula_units_Z   2
loop_
 _symmetry_equiv_pos_site_id
 _symmetry_equiv_pos_as_xyz
  1  'x, y, z'
loop_
 _atom_site_type_symbol
 _atom_site_label
 _atom_site_symmetry_multiplicity
 _atom_site_fract_x
 _atom_site_fract_y
 _atom_site_fract_z
 _atom_site_occupancy
  Cu  Cu1  1  0.50117000  0.50117100  0.59801300  1
  Cu  Cu2  1  0.49459400  0.49994900  0.40150800  1
  H  H1  1  0.91157400  0.49484000  0.63586800  1
  H  H2  1  0.08434000  0.50502700  0.36442700  1
  H  H3  1  0.42501100  0.05735900  0.62780100  1
  H  H4  1  0.41222100  0.94263200  0.34578400  1
  H  H5  1  0.57397200  0.22450300  0.37045900  1
  H  H6  1  0.58842500  0.77761900  0.65158500  1
  H  H7  1  0.66202000  0.56136500  0.27571400  1
  H  H8  1  0.42142300  0.37725500  0.73989500  1
  H  H9  1  0.31367200  0.44640300  0.21143600  1
  H  H10  1  0.57910400  0.63073700  0.76928500  1
  H  H11  1  0.31023100  0.45345100  0.03333500  1
  H  H12  1  0.56514700  0.63586100  0.94350800  1
  H  H13  1  0.87549700  0.57126100  0.37264600  1
  H  H14  1  0.12598500  0.42793100  0.62723700  1
  H  H15  1  0.47465800  0.21865900  0.70809800  1
  H  H16  1  0.45759000  0.77587000  0.28230800  1
  H  H17  1  0.68226100  0.05343900  0.38459600  1
  H  H18  1  0.69685700  0.94820500  0.66697400  1
  H  H19  1  0.74585800  0.50961800  0.10207700  1
  H  H20  1  0.48818500  0.31892600  0.94232500  1
  C  C1  1  0.49712400  0.33031300  0.50106900  1
  C  C2  1  0.49732900  0.67077700  0.49789700  1
  C  C3  1  0.26407600  0.50046700  0.46359400  1
  C  C4  1  0.73183000  0.50015400  0.53627100  1
  C  C5  1  0.13035400  0.50119000  0.44231900  1
  C  C6  1  0.86572900  0.49871500  0.55792900  1
  C  C7  1  0.06526800  0.49812900  0.51396000  1
  C  C8  1  0.93126900  0.50115600  0.48661300  1
  C  C9  1  0.46065400  0.09369100  0.57235000  1
  C  C10  1  0.45366100  0.90671100  0.41267400  1
  C  C11  1  0.45836600  0.18479600  0.57410100  1
  C  C12  1  0.45101600  0.81554700  0.41110500  1
  C  C13  1  0.49861400  0.23302300  0.50132700  1
  C  C14  1  0.49869500  0.76799500  0.49724100  1
  C  C15  1  0.54081400  0.18837800  0.42736200  1
  C  C16  1  0.54909600  0.81319700  0.58393000  1
  C  C17  1  0.54531900  0.09713800  0.42691200  1
  C  C18  1  0.55368500  0.90437800  0.58479600  1
  C  C19  1  0.50519000  0.04910600  0.49974900  1
  C  C20  1  0.50564200  0.95184200  0.49893400  1
  C  C21  1  0.58988000  0.53518600  0.12306600  1
  C  C22  1  0.45421500  0.43167400  0.88556900  1
  C  C23  1  0.58584000  0.53452800  0.22290300  1
  C  C24  1  0.45733800  0.43312000  0.78543900  1
  C  C25  1  0.39221000  0.47178100  0.18704400  1
  C  C26  1  0.54363500  0.57397000  0.80144900  1
  C  C27  1  0.39102100  0.47465000  0.08586500  1
  C  C28  1  0.53712800  0.57639500  0.90103900  1
  C  C29  1  0.49169300  0.50461500  0.05260600  1
  C  C30  1  0.49417400  0.50418200  0.94510700  1
  N  N1  1  0.49054900  0.49943100  0.25452700  1
  N  N2  1  0.50518800  0.50227300  0.74498600  1
  O  O1  1  0.50461800  0.37250400  0.58585500  1
  O  O2  1  0.49069000  0.62854200  0.41351700  1
  O  O3  1  0.49084600  0.37147000  0.41576700  1
  O  O4  1  0.50502200  0.62963500  0.58333200  1
  O  O5  1  0.32421300  0.49812800  0.55649300  1
  O  O6  1  0.67158700  0.50296600  0.44335600  1
  O  O7  1  0.31823000  0.50317800  0.38770100  1
  O  O8  1  0.67754200  0.49776100  0.61202600  1
  O  O9  1  0.87520300  0.50718100  0.38771200  1
  O  O10  1  0.12176900  0.49221400  0.61287900  1
  O  O11  1  0.41137700  0.22600700  0.64616100  1
  O  O12  1  0.39648300  0.77362700  0.32468500  1
  O  O13  1  0.59372900  0.05513800  0.35598800  1
  O  O14  1  0.60985800  0.94691400  0.67032200  1
  O  O15  1  0.69378200  0.56298500  0.09590400  1
  O  O16  1  0.41497900  0.35685900  0.92503100  1
