# generated using pymatgen
data_CuH10C18NO4
_symmetry_space_group_name_H-M   'P 1'
_cell_length_a   8.49100500
_cell_length_b   13.01462600
_cell_length_c   13.35029600
_cell_angle_alpha   90.61204300
_cell_angle_beta   93.27952300
_cell_angle_gamma   86.47689800
_symmetry_Int_Tables_number   1
_chemical_formula_structural   CuH10C18NO4
_chemical_formula_sum   'Cu2 H20 C36 N2 O8'
_cell_volume   1470.06686020
_cell_formula_units_Z   2
loop_
 _symmetry_equiv_pos_site_id
 _symmetry_equiv_pos_as_xyz
  1  'x, y, z'
loop_
 _atom_site_type_symbol
 _atom_site_label
 _atom_site_symmetry_multiplicity
 _atom_site_fract_x
 _atom_site_fract_y
 _atom_site_fract_z
 _atom_site_occupancy
  Cu  Cu1  1  0.00796200  0.99289900  0.09886300  1
  Cu  Cu2  1  0.99203900  0.00710100  0.90113800  1
  H  H1  1  0.99045400  0.83161900  0.25138000  1
  H  H2  1  0.00954700  0.16838100  0.74862000  1
  H  H3  1  0.99409300  0.74213400  0.40965700  1
  H  H4  1  0.00590800  0.25786600  0.59034300  1
  H  H5  1  0.14927000  0.79350100  0.55576200  1
  H  H6  1  0.85073100  0.20649900  0.44423800  1
  H  H7  1  0.17989400  0.18595400  0.55000600  1
  H  H8  1  0.82010700  0.81404600  0.44999500  1
  H  H9  1  0.96666500  0.75012600  0.59810000  1
  H  H10  1  0.03333700  0.24987400  0.40190000  1
  H  H11  1  0.01568000  0.15264600  0.24772900  1
  H  H12  1  0.98432100  0.84735400  0.75227200  1
  H  H13  1  0.51456600  0.07107600  0.03995700  1
  H  H14  1  0.48543500  0.92892400  0.96004300  1
  H  H15  1  0.20436000  0.33101600  0.99212900  1
  H  H16  1  0.79564100  0.66898400  0.00787100  1
  H  H17  1  0.18166400  0.48396200  0.02542000  1
  H  H18  1  0.81833700  0.51603800  0.97458000  1
  H  H19  1  0.15049800  0.66425100  0.01181700  1
  H  H20  1  0.84950300  0.33574900  0.98818400  1
  C  C1  1  0.78541400  0.86728600  0.98889400  1
  C  C2  1  0.21458700  0.13271400  0.01110700  1
  C  C3  1  0.77800800  0.14814600  0.00809100  1
  C  C4  1  0.22199300  0.85185400  0.99190900  1
  C  C5  1  0.01661800  0.08228500  0.29005500  1
  C  C6  1  0.98338300  0.91771500  0.70994500  1
  C  C7  1  0.00233500  0.90321800  0.29208700  1
  C  C8  1  0.99766600  0.09678200  0.70791300  1
  C  C9  1  0.99472500  0.90559700  0.39526700  1
  C  C10  1  0.00527700  0.09440300  0.60473300  1
  C  C11  1  0.00394000  0.99792900  0.44587900  1
  C  C12  1  0.99606100  0.00207100  0.55412100  1
  C  C13  1  0.00920600  0.08730900  0.39288400  1
  C  C14  1  0.99079500  0.91269100  0.60711600  1
  C  C15  1  0.95073500  0.81281300  0.44914200  1
  C  C16  1  0.04926600  0.18718700  0.55085800  1
  C  C17  1  0.01990100  0.81124900  0.55638400  1
  C  C18  1  0.98010000  0.18875100  0.44361700  1
  C  C19  1  0.62589200  0.20800800  0.01296100  1
  C  C20  1  0.37410900  0.79199200  0.98703900  1
  C  C21  1  0.49752800  0.15241100  0.02717500  1
  C  C22  1  0.50247300  0.84758900  0.97282500  1
  C  C23  1  0.34799200  0.19763900  0.01639300  1
  C  C24  1  0.65200900  0.80236100  0.98360700  1
  C  C25  1  0.32502300  0.30190300  0.00367300  1
  C  C26  1  0.67497800  0.69809700  0.99632700  1
  C  C27  1  0.45381400  0.36308600  0.00441900  1
  C  C28  1  0.54618700  0.63691400  0.99558100  1
  C  C29  1  0.60458400  0.31439100  0.00318100  1
  C  C30  1  0.39541700  0.68560900  0.99681900  1
  C  C31  1  0.43444900  0.47102700  0.00361700  1
  C  C32  1  0.56555200  0.52897300  0.99638400  1
  C  C33  1  0.71310200  0.47762000  0.98729900  1
  C  C34  1  0.28689900  0.52238000  0.01270100  1
  C  C35  1  0.73231300  0.37220700  0.99269600  1
  C  C36  1  0.26768900  0.62779300  0.00730400  1
  N  N1  1  0.01633000  0.99091100  0.24148100  1
  N  N2  1  0.98367100  0.00908900  0.75851900  1
  O  O1  1  0.84809200  0.89265100  0.07711600  1
  O  O2  1  0.15190900  0.10734900  0.92288400  1
  O  O3  1  0.82970000  0.90813300  0.90656900  1
  O  O4  1  0.17030100  0.09186700  0.09343100  1
  O  O5  1  0.83822600  0.10259000  0.09012800  1
  O  O6  1  0.16177500  0.89741000  0.90987200  1
  O  O7  1  0.82668800  0.11767000  0.92008200  1
  O  O8  1  0.17331300  0.88233000  0.07991800  1
