# Generated by REPEAT Assigner based on pymatgen
data_DB0-m29_o83_o43_f0_pts.sym.24
_audit_creation_date              2022-05-24
_audit_creation_method            REPEAT_Assigner
_cell_length_a                    15.740285
_cell_length_b                    9.500915
_cell_length_c                    20.002771
_cell_angle_alpha                 85.734471
_cell_angle_beta                  85.049434
_cell_angle_gamma                 104.571246
_cell_volume                      2869.983032
_symmetry_space_group_name_H-M    P1
_symmetry_Int_Tables_number       1
loop_
    _symmetry_equiv_pos_site_id
    _symmetry_equiv_pos_as_xyz
    1  x,y,z
loop_
    _atom_site_type_symbol
    _atom_site_label
    _atom_site_fract_x
    _atom_site_fract_y
    _atom_site_fract_z
    _atom_type_partial_charge
    C   C1   0.277265  0.982380  0.039868  0.000301
    C   C2   0.270704  0.007996  0.971557  -0.015067
    C   C3   0.189944  0.012085  0.950154  -0.121906
    C   C4   0.201970  0.952618  0.084551  -0.220261
    C   C5   0.121505  0.955543  0.062694  0.248341
    C   C6   0.113678  0.985788  0.995254  -0.025714
    C   C7   0.030550  0.990227  0.975053  0.148732
    C   C8   0.017588  0.007760  0.907366  -0.250145
    C   C9   0.936915  0.012372  0.887612  -0.064910
    C   C10  0.049132  0.930129  0.109500  -0.222543
    C   C11  0.968797  0.938717  0.090626  -0.146748
    C   C12  0.958150  0.972689  0.023409  0.027870
    C   C13  0.876424  0.985850  0.003398  0.106827
    C   C14  0.866830  0.006404  0.935385  0.127432
    C   C15  0.787201  0.021428  0.915270  -0.269529
    C   C16  0.803854  0.981154  0.049765  -0.204608
    C   C17  0.722747  0.986716  0.029460  0.026727
    C   C18  0.714525  0.005397  0.961217  0.076440
    H   H1   0.189774  0.038198  0.897235  0.126517
    H   H2   0.206837  0.934139  0.137893  0.153916
    H   H3   0.067387  0.008733  0.867154  0.212461
    H   H4   0.054950  0.904145  0.162166  0.149188
    H   H5   0.915957  0.913463  0.130848  0.155529
    H   H6   0.778723  0.040427  0.862803  0.173019
    H   H7   0.808355  0.976717  0.102966  0.144121
    O   O1   0.578063  0.018204  0.067325  -0.505425
    C   C19  0.648814  0.977706  0.081731  0.567553
    O   O2   0.480003  0.712708  0.136326  -0.396698
    O   O3   0.655158  0.934675  0.144538  -0.529907
    O   O4   0.488916  0.844722  0.225452  -0.473489
    C   C20  0.485224  0.719217  0.201152  0.477231
    Fe  Fe1  0.492434  0.990832  0.148684  1.419046
    O   O5   0.371591  0.917778  0.119547  -0.614523
    O   O6   0.427702  0.116743  0.044041  -0.385812
    C   C21  0.362715  0.002448  0.067013  0.710853
    O   O7   0.527160  0.188532  0.182530  -0.566547
    O   O8   0.423378  0.074589  0.269001  -0.525288
    C   C22  0.478362  0.193948  0.238414  0.537087
    O   O9   0.468073  0.808814  0.818811  -0.583222
    O   O10  0.564374  0.922754  0.727978  -0.485555
    C   C23  0.512473  0.803085  0.760825  0.547311
    O   O11  0.621880  0.080029  0.883134  -0.561524
    O   O12  0.563448  0.878107  0.956541  -0.434438
    C   C24  0.629187  0.992417  0.935123  0.591943
    O   O13  0.340879  0.071582  0.857507  -0.484946
    O   O14  0.505932  0.153412  0.776089  -0.501556
    C   C25  0.506061  0.280293  0.798586  0.552690
    O   O15  0.415091  0.978125  0.933763  -0.490545
    C   C26  0.346200  0.024564  0.919952  0.538304
    O   O16  0.506056  0.292171  0.863536  -0.448924
    Fe  Fe2  0.501690  0.006722  0.852870  1.414375
    H   H8   0.504456  0.549518  0.831035  0.162496
    C   C27  0.505055  0.407928  0.752352  0.068846
    C   C28  0.504362  0.397878  0.683701  -0.168347
    H   H9   0.501029  0.293952  0.664119  0.148366
    C   C29  0.505096  0.519318  0.640408  0.077870
    C   C30  0.509200  0.651838  0.666001  -0.203432
    H   H10  0.513230  0.748694  0.632675  0.139317
    C   C31  0.507407  0.661788  0.734400  0.137553
    C   C32  0.504236  0.539622  0.777589  -0.187208
    C   C33  0.451148  0.583888  0.532659  -0.130727
    H   H11  0.413294  0.648071  0.558355  0.119151
    C   C34  0.446804  0.574555  0.464522  -0.159312
    H   H12  0.405862  0.631637  0.438701  0.130516
    C   C35  0.491659  0.489173  0.430489  0.096056
    C   C36  0.541119  0.413682  0.465592  -0.129758
    H   H13  0.578788  0.349321  0.439848  0.115640
    C   C37  0.545568  0.423161  0.533713  -0.162049
    H   H14  0.586500  0.366063  0.559501  0.132066
    C   C38  0.500644  0.508431  0.567783  0.121238
    C   C39  0.481163  0.344947  0.332663  -0.218107
    H   H15  0.477355  0.248205  0.365993  0.155291
    C   C40  0.481746  0.334589  0.264422  0.180139
    C   C41  0.485270  0.456127  0.220646  -0.278535
    C   C42  0.486771  0.589219  0.245780  0.122185
    C   C43  0.488565  0.599200  0.314464  -0.158723
    H   H16  0.492987  0.703232  0.334194  0.145077
    C   C44  0.486791  0.477786  0.357965  0.104371
    N   N1   0.483052  0.440944  0.150429  0.740776
    O   O17  0.414805  0.354027  0.129627  -0.402018
    O   O18  0.554824  0.491883  0.109324  -0.306223
    N   N2   0.927069  0.018886  0.817194  0.665719
    O   O19  0.866382  0.918793  0.795013  -0.368526
    O   O20  0.991533  0.097912  0.774611  -0.393693
