# generated using pymatgen
data_FeH9C23ClO8
_symmetry_space_group_name_H-M   'P 1'
_cell_length_a   16.24405800
_cell_length_b   9.38651800
_cell_length_c   17.27529200
_cell_angle_alpha   89.24903600
_cell_angle_beta   85.34737300
_cell_angle_gamma   105.25509300
_symmetry_Int_Tables_number   1
_chemical_formula_structural   FeH9C23ClO8
_chemical_formula_sum   'Fe2 H18 C46 Cl2 O16'
_cell_volume   2531.23914945
_cell_formula_units_Z   2
loop_
 _symmetry_equiv_pos_site_id
 _symmetry_equiv_pos_as_xyz
  1  'x, y, z'
loop_
 _atom_site_type_symbol
 _atom_site_label
 _atom_site_symmetry_multiplicity
 _atom_site_fract_x
 _atom_site_fract_y
 _atom_site_fract_z
 _atom_site_occupancy
  Fe  Fe1  1  0.50630400  0.00743500  0.14205700  1
  Fe  Fe2  1  0.49247600  0.99796600  0.86009600  1
  H  H1  1  0.17992900  0.97094800  0.89578800  1
  H  H2  1  0.06022600  0.92162000  0.85949800  1
  H  H3  1  0.92706400  0.91654000  0.81518800  1
  H  H4  1  0.05777200  0.04032500  0.19489600  1
  H  H5  1  0.92790300  0.03696400  0.14931400  1
  H  H6  1  0.78686300  0.93744900  0.83369200  1
  H  H7  1  0.82415700  0.07643700  0.10271600  1
  H  H8  1  0.49916100  0.26045900  0.63983700  1
  H  H9  1  0.51212700  0.71653200  0.60271300  1
  H  H10  1  0.50222300  0.74612100  0.36228200  1
  H  H11  1  0.48910700  0.28989700  0.39874700  1
  H  H12  1  0.47401900  0.53097400  0.83213200  1
  H  H13  1  0.52591700  0.47605000  0.16946700  1
  H  H14  1  0.53576100  0.36778300  0.50981000  1
  H  H15  1  0.46559000  0.63832500  0.49194100  1
  H  H16  1  0.25926300  0.90418200  0.35690400  1
  H  H17  1  0.22998200  0.33634800  0.31715900  1
  H  H18  1  0.20304100  0.27841100  0.18161100  1
  C  C1  1  0.26940500  0.00785300  0.06395400  1
  C  C2  1  0.26070000  0.98814600  0.98526800  1
  C  C3  1  0.18230900  0.98090900  0.95721200  1
  C  C4  1  0.20105200  0.02473700  0.11213700  1
  C  C5  1  0.12237900  0.01661700  0.08358300  1
  C  C6  1  0.11155300  0.99299600  0.00561200  1
  C  C7  1  0.03123000  0.98558400  0.97762000  1
  C  C8  1  0.01531200  0.95092000  0.90112700  1
  C  C9  1  0.93740900  0.94547900  0.87465000  1
  C  C10  1  0.05404500  0.02987000  0.13310700  1
  C  C11  1  0.97712500  0.02845300  0.10567100  1
  C  C12  1  0.96447500  0.01026200  0.02746600  1
  C  C13  1  0.88556500  0.01021200  0.99876700  1
  C  C14  1  0.87317200  0.97564900  0.92249800  1
  C  C15  1  0.79577300  0.96760100  0.89321300  1
  C  C16  1  0.81788300  0.04201000  0.04414000  1
  C  C17  1  0.73881500  0.02989400  0.01587600  1
  C  C18  1  0.72845500  0.99415100  0.93877300  1
  C  C19  1  0.66666667  0.04000900  0.07166300  1
  C  C20  1  0.51682000  0.74790500  0.20586800  1
  C  C21  1  0.35263200  0.03579700  0.09600600  1
  C  C22  1  0.50481300  0.22452600  0.25031100  1
  C  C23  1  0.49500900  0.78204700  0.75093900  1
  C  C24  1  0.64643700  0.96890100  0.90491000  1
  C  C25  1  0.48356500  0.25914700  0.79632500  1
  C  C26  1  0.33383700  0.98669100  0.92869100  1
  C  C27  1  0.48616700  0.38205300  0.74197000  1
  C  C28  1  0.49628600  0.36588000  0.66261300  1
  C  C29  1  0.50183200  0.48349000  0.61158500  1
  C  C30  1  0.50195000  0.62033800  0.64076200  1
  C  C31  1  0.49050500  0.63628300  0.71986000  1
  C  C32  1  0.48075900  0.51654500  0.77022700  1
  C  C33  1  0.51136700  0.46007100  0.52749900  1
  C  C34  1  0.49005600  0.54612800  0.47425100  1
  C  C35  1  0.50494900  0.64076300  0.33932900  1
  C  C36  1  0.51462500  0.62485200  0.25994700  1
  C  C37  1  0.51965600  0.49035000  0.23140700  1
  C  C38  1  0.51003400  0.37039100  0.28158500  1
  C  C39  1  0.49916600  0.38616500  0.36076900  1
  C  C40  1  0.49952200  0.52294700  0.39015200  1
  C  C41  1  0.21547600  0.05824000  0.19320700  1
  C  C42  1  0.23184200  0.95376100  0.24233500  1
  C  C43  1  0.24699400  0.98642900  0.31834100  1
  C  C44  1  0.24630800  0.12380500  0.34522700  1
  C  C45  1  0.23036100  0.22854200  0.29612900  1
  C  C46  1  0.21507200  0.19590000  0.22015700  1
  Cl  Cl1  1  0.23088200  0.77803300  0.20896100  1
  Cl  Cl2  1  0.26565300  0.16522400  0.44171600  1
  O  O1  1  0.58928000  0.02278300  0.04996800  1
  O  O2  1  0.53027100  0.73356200  0.13079800  1
  O  O3  1  0.67765000  0.05112300  0.14600600  1
  O  O4  1  0.50194500  0.87071100  0.23143800  1
  O  O5  1  0.38908600  0.92806200  0.10599300  1
  O  O6  1  0.39140800  0.17068500  0.11397900  1
  O  O7  1  0.54110700  0.21359100  0.18063000  1
  O  O8  1  0.45726300  0.10616400  0.28883700  1
  O  O9  1  0.45822300  0.79244800  0.82046400  1
  O  O10  1  0.54278100  0.90063900  0.71275500  1
  O  O11  1  0.60893100  0.07614600  0.89807100  1
  O  O12  1  0.61131800  0.83788800  0.87942700  1
  O  O13  1  0.32594700  0.99570700  0.85389300  1
  O  O14  1  0.49851200  0.13624300  0.77100700  1
  O  O15  1  0.40803900  0.98099400  0.95128500  1
  O  O16  1  0.46936600  0.27353700  0.87130600  1
