# generated using pymatgen
data_Cu3H10C23(NO4)3
_symmetry_space_group_name_H-M   'P 1'
_cell_length_a   19.06411500
_cell_length_b   18.96674200
_cell_length_c   18.90385500
_cell_angle_alpha   109.23778300
_cell_angle_beta   110.59681200
_cell_angle_gamma   108.82027000
_symmetry_Int_Tables_number   1
_chemical_formula_structural   Cu3H10C23(NO4)3
_chemical_formula_sum   'Cu6 H20 C46 N6 O24'
_cell_volume   5245.08434519
_cell_formula_units_Z   2
loop_
 _symmetry_equiv_pos_site_id
 _symmetry_equiv_pos_as_xyz
  1  'x, y, z'
loop_
 _atom_site_type_symbol
 _atom_site_label
 _atom_site_symmetry_multiplicity
 _atom_site_fract_x
 _atom_site_fract_y
 _atom_site_fract_z
 _atom_site_occupancy
  Cu  Cu1  1  0.51698700  0.44874100  0.44841600  1
  Cu  Cu2  1  0.49459500  0.54856700  0.56116700  1
  Cu  Cu3  1  0.95168800  0.44785700  0.02241000  1
  Cu  Cu4  1  0.07091100  0.55638800  0.01054300  1
  Cu  Cu5  1  0.91736100  0.99641000  0.43490000  1
  Cu  Cu6  1  0.04817600  0.00026900  0.55364400  1
  H  H1  1  0.23633700  0.60628000  0.32506800  1
  H  H2  1  0.39161600  0.62119600  0.33236100  1
  H  H3  1  0.29807500  0.50912200  0.15092300  1
  H  H4  1  0.27481300  0.36888800  0.18013600  1
  H  H5  1  0.11940900  0.35422700  0.17320800  1
  H  H6  1  0.70651100  0.79340500  0.39917600  1
  H  H7  1  0.83743700  0.79687300  0.55368200  1
  H  H8  1  0.72443500  0.75677600  0.58252700  1
  H  H9  1  0.90041400  0.54762100  0.78089200  1
  H  H10  1  0.75971600  0.47153900  0.81947100  1
  H  H11  1  0.77314600  0.50939800  0.64332400  1
  H  H12  1  0.69645000  0.53519800  0.76101500  1
  H  H13  1  0.27411900  0.34517400  0.52988300  1
  H  H14  1  0.35472200  0.23764300  0.47525900  1
  H  H15  1  0.03593200  0.77558600  0.38748200  1
  H  H16  1  0.93818600  0.79731900  0.23608300  1
  H  H17  1  0.97265100  0.63091300  0.24861400  1
  H  H18  1  0.01721000  0.18320900  0.75004800  1
  H  H19  1  0.01720500  0.37874300  0.76617500  1
  H  H20  1  0.94766900  0.23852500  0.80919500  1
  C  C1  1  0.60972700  0.62900200  0.51317400  1
  C  C2  1  0.38347000  0.48668900  0.38122800  1
  C  C3  1  0.40174100  0.36851500  0.49641000  1
  C  C4  1  0.62933200  0.51254800  0.62877600  1
  C  C5  1  0.32916500  0.56063500  0.29559800  1
  C  C6  1  0.24595500  0.55282600  0.29243300  1
  C  C7  1  0.19697600  0.49126500  0.19533300  1
  C  C8  1  0.27925300  0.49918500  0.19755200  1
  C  C9  1  0.26556800  0.42273200  0.21257100  1
  C  C10  1  0.18183500  0.41461900  0.20895500  1
  C  C11  1  0.23247600  0.47656000  0.30610900  1
  C  C12  1  0.31458700  0.48433200  0.30968400  1
  C  C13  1  0.72889200  0.77831200  0.45041500  1
  C  C14  1  0.81339400  0.81621800  0.50658900  1
  C  C15  1  0.66383200  0.70732100  0.44667100  1
  C  C16  1  0.67190900  0.70364900  0.51857700  1
  C  C17  1  0.83751800  0.52590100  0.77481700  1
  C  C18  1  0.82404800  0.50166700  0.82997100  1
  C  C19  1  0.76700300  0.51617200  0.69972400  1
  C  C20  1  0.69944800  0.52091600  0.70213100  1
  C  C21  1  0.23070000  0.21356900  0.51287000  1
  C  C22  1  0.14838600  0.19085600  0.48938800  1
  C  C23  1  0.28451800  0.29049300  0.51399800  1
  C  C24  1  0.34581600  0.29306400  0.49472600  1
  C  C25  1  0.02703700  0.63005000  0.13746400  1
  C  C26  1  0.12898000  0.49644300  0.13069300  1
  C  C27  1  0.99315200  0.37472000  0.89322100  1
  C  C28  1  0.89323500  0.50566400  0.90038500  1
  C  C29  1  0.98776500  0.11491600  0.61659800  1
  C  C30  1  0.87523500  0.88142300  0.50145000  1
  C  C31  1  0.97766800  0.88126000  0.37226200  1
  C  C32  1  0.09004300  0.11651500  0.48779100  1
  C  C33  1  0.00902100  0.76625900  0.32208100  1
  C  C34  1  0.97373800  0.81287500  0.30319600  1
  C  C35  1  0.00058900  0.69312800  0.25344000  1
  C  C36  1  0.03410400  0.70356800  0.20395100  1
  C  C37  1  0.98050600  0.24572200  0.68324600  1
  C  C38  1  0.99287800  0.18161800  0.68810100  1
  C  C39  1  0.99568000  0.31571600  0.76031600  1
  C  C40  1  0.97829000  0.30265900  0.81887600  1
  C  C41  1  0.26652100  0.16163000  0.53287300  1
  C  C42  1  0.11174500  0.23787800  0.45893600  1
  C  C43  1  0.08208200  0.78802600  0.21819400  1
  C  C44  1  0.96595400  0.25559800  0.60787700  1
  C  C45  1  0.20761100  0.46333400  0.36756100  1
  C  C46  1  0.58633300  0.64572400  0.36294600  1
  N  N1  1  0.29544800  0.12003700  0.54891600  1
  N  N2  1  0.08212700  0.27556100  0.43442000  1
  N  N3  1  0.12067700  0.85588100  0.22959400  1
  N  N4  1  0.95435100  0.26376500  0.54744300  1
  N  N5  1  0.18800700  0.45286300  0.41619100  1
  N  N6  1  0.52421800  0.59637700  0.29555200  1
  O  O1  1  0.57594200  0.55252700  0.44600900  1
  O  O2  1  0.59376900  0.64076900  0.57765800  1
  O  O3  1  0.40688300  0.42747900  0.36266600  1
  O  O4  1  0.41929500  0.55033100  0.46092300  1
  O  O5  1  0.45454500  0.36046800  0.46840900  1
  O  O6  1  0.39897600  0.44066700  0.52701800  1
  O  O7  1  0.62368900  0.48587600  0.55177200  1
  O  O8  1  0.57352100  0.53148800  0.64396900  1
  O  O9  1  0.97520100  0.55197800  0.11642800  1
  O  O10  1  0.07222900  0.64584000  0.10052400  1
  O  O11  1  0.04834700  0.44815100  0.10550800  1
  O  O12  1  0.15158000  0.54284600  0.09597000  1
  O  O13  1  0.94924500  0.35830400  0.93138000  1
  O  O14  1  0.04813600  0.45263900  0.91685300  1
  O  O15  1  0.87042300  0.45680000  0.93272600  1
  O  O16  1  0.97344100  0.54989900  0.92152500  1
  O  O17  1  0.93127100  0.08659600  0.53535000  1
  O  O18  1  0.04507000  0.09041800  0.63807800  1
  O  O19  1  0.84510600  0.90992100  0.45022700  1
  O  O20  1  0.95807600  0.91378400  0.55352600  1
  O  O21  1  0.92547400  0.91136100  0.35032100  1
  O  O22  1  0.03776000  0.91405500  0.45295400  1
  O  O23  1  0.00741300  0.08825400  0.44064200  1
  O  O24  1  0.12066600  0.09106500  0.54265900  1
