# generated using pymatgen
data_Zn3H60C58(N2O5)4
_symmetry_space_group_name_H-M   'P 1'
_cell_length_a   27.56664500
_cell_length_b   27.64522100
_cell_length_c   27.62699000
_cell_angle_alpha   109.54226900
_cell_angle_beta   109.42710100
_cell_angle_gamma   109.41286900
_symmetry_Int_Tables_number   1
_chemical_formula_structural   Zn3H60C58(N2O5)4
_chemical_formula_sum   'Zn6 H120 C116 N16 O40'
_cell_volume   16213.74972720
_cell_formula_units_Z   2
loop_
 _symmetry_equiv_pos_site_id
 _symmetry_equiv_pos_as_xyz
  1  'x, y, z'
loop_
 _atom_site_type_symbol
 _atom_site_label
 _atom_site_symmetry_multiplicity
 _atom_site_fract_x
 _atom_site_fract_y
 _atom_site_fract_z
 _atom_site_occupancy
  Zn  Zn1  1  0.49756300  0.45400400  0.45493000  1
  Zn  Zn2  1  0.50141400  0.55122100  0.55171000  1
  Zn  Zn3  1  0.95322400  0.45346800  0.00120100  1
  Zn  Zn4  1  0.04792200  0.54876300  0.00120500  1
  Zn  Zn5  1  0.95069400  0.00023800  0.45141200  1
  Zn  Zn6  1  0.04490400  0.00032200  0.54735200  1
  H  H1  1  0.72772200  0.40803400  0.74453800  1
  H  H2  1  0.27412400  0.59462900  0.25305000  1
  H  H3  1  0.66498300  0.40351200  0.66527100  1
  H  H4  1  0.34124400  0.59893600  0.32817600  1
  H  H5  1  0.65910400  0.46043700  0.74346400  1
  H  H6  1  0.34105000  0.52339400  0.25257300  1
  H  H7  1  0.72942600  0.47911400  0.82493100  1
  H  H8  1  0.27076700  0.51662200  0.17766400  1
  H  H9  1  0.77220500  0.55649400  0.85309400  1
  H  H10  1  0.22245800  0.44012800  0.15162000  1
  H  H11  1  0.77929700  0.53771400  0.69279700  1
  H  H12  1  0.22334800  0.47834300  0.31909300  1
  H  H13  1  0.77260700  0.59130300  0.74326600  1
  H  H14  1  0.22414600  0.41766900  0.26900800  1
  H  H15  1  0.85163000  0.54623100  0.76895900  1
  H  H16  1  0.14938700  0.46556200  0.23994600  1
  H  H17  1  0.72236500  0.43696800  0.65071400  1
  H  H18  1  0.29065700  0.57943400  0.35502200  1
  H  H19  1  0.84063800  0.59407100  0.82116500  1
  H  H20  1  0.15804800  0.41254500  0.18983600  1
  H  H21  1  0.16110900  0.17514800  0.41021400  1
  H  H22  1  0.84165300  0.81581100  0.58699100  1
  H  H23  1  0.22445100  0.25170100  0.41382600  1
  H  H24  1  0.77611800  0.74502300  0.58465500  1
  H  H25  1  0.22491100  0.32046800  0.48341900  1
  H  H26  1  0.77118100  0.67748700  0.51052500  1
  H  H27  1  0.15735700  0.25297200  0.48194500  1
  H  H28  1  0.83409500  0.74087200  0.50065100  1
  H  H29  1  0.19508100  0.27871700  0.55856300  1
  H  H30  1  0.78071100  0.71775500  0.42721300  1
  H  H31  1  0.34030000  0.25336300  0.53062500  1
  H  H32  1  0.65468200  0.74834900  0.47383100  1
  H  H33  1  0.27529400  0.19167400  0.54309100  1
  H  H34  1  0.72308500  0.81752900  0.47247800  1
  H  H35  1  0.21432300  0.15317900  0.43595100  1
  H  H36  1  0.80123600  0.85327900  0.57866900  1
  H  H37  1  0.27508500  0.25057400  0.59623900  1
  H  H38  1  0.71934500  0.76384300  0.41123800  1
  H  H39  1  0.00962600  0.17713800  0.76868100  1
  H  H40  1  0.99063300  0.82802200  0.23453200  1
  H  H41  1  0.98757900  0.23393500  0.82951000  1
  H  H42  1  0.99493900  0.75844700  0.16476300  1
  H  H43  1  0.09278600  0.35319000  0.81764900  1
  H  H44  1  0.94228300  0.65816000  0.22984000  1
  H  H45  1  0.09034500  0.24308900  0.76770900  1
  H  H46  1  0.91092800  0.75018500  0.22064700  1
  H  H47  1  0.92954800  0.28783400  0.72825000  1
  H  H48  1  0.09221400  0.74755100  0.28080500  1
  H  H49  1  0.99991200  0.32969700  0.73531500  1
  H  H50  1  0.03956700  0.68678600  0.27831300  1
  H  H51  1  0.91298000  0.19906000  0.66317800  1
  H  H52  1  0.08786400  0.81137300  0.34963100  1
  H  H53  1  0.92271700  0.21838700  0.76825200  1
  H  H54  1  0.06798000  0.78356600  0.21800400  1
  H  H55  1  0.93424400  0.14599700  0.71238000  1
  H  H56  1  0.06590800  0.85296400  0.28626100  1
  H  H57  1  0.81703400  0.44850000  0.70479800  1
  H  H58  1  0.86560000  0.39650000  0.69510500  1
  H  H59  1  0.82247500  0.32107200  0.67680400  1
  H  H60  1  0.88159100  0.37619300  0.75189800  1
  H  H61  1  0.19364400  0.56539900  0.30472600  1
  H  H62  1  0.14518400  0.61773300  0.31230100  1
  H  H63  1  0.12197600  0.62863900  0.24932900  1
  H  H64  1  0.18443900  0.68943600  0.32045400  1
  H  H65  1  0.27770200  0.40636200  0.56179800  1
  H  H66  1  0.29419900  0.47150400  0.64726800  1
  H  H67  1  0.33746300  0.46605100  0.70853500  1
  H  H68  1  0.25817400  0.43411300  0.67823000  1
  H  H69  1  0.70660200  0.62994700  0.38309300  1
  H  H70  1  0.66678400  0.53182000  0.32696400  1
  H  H71  1  0.63313600  0.48885300  0.35528800  1
  H  H72  1  0.70808400  0.50831900  0.37048700  1
  H  H73  1  0.37731000  0.36829800  0.61610800  1
  H  H74  1  0.45923700  0.41018200  0.70468900  1
  H  H75  1  0.49777300  0.36914800  0.69554000  1
  H  H76  1  0.45893600  0.36274000  0.73646800  1
  H  H77  1  0.64626900  0.67495600  0.36374100  1
  H  H78  1  0.55349100  0.60992800  0.28695800  1
  H  H79  1  0.50489700  0.63668900  0.29987600  1
  H  H80  1  0.50240300  0.57336500  0.30695400  1
  H  H81  1  0.29064200  0.18736900  0.42507700  1
  H  H82  1  0.28015000  0.14787200  0.32159900  1
  H  H83  1  0.35624700  0.20676700  0.37440000  1
  H  H84  1  0.31290200  0.20859500  0.31006200  1
  H  H85  1  0.72608800  0.76910400  0.62513100  1
  H  H86  1  0.69500200  0.82585300  0.66907400  1
  H  H87  1  0.64921700  0.84200500  0.62026300  1
  H  H88  1  0.72668500  0.89631500  0.67237400  1
  H  H89  1  0.13871200  0.30710700  0.86025300  1
  H  H90  1  0.19503700  0.40469200  0.92523100  1
  H  H91  1  0.19671800  0.39977600  0.98947000  1
  H  H92  1  0.16187500  0.43728800  0.96227100  1
  H  H93  1  0.87406200  0.60228700  0.13486600  1
  H  H94  1  0.81671100  0.57201400  0.03913400  1
  H  H95  1  0.84925000  0.62340600  0.01750100  1
  H  H96  1  0.78943400  0.62167400  0.03172900  1
  H  H97  1  0.63132800  0.52829400  0.76337800  1
  H  H98  1  0.63456000  0.61622500  0.79967400  1
  H  H99  1  0.69348600  0.67395900  0.80326300  1
  H  H100  1  0.70240400  0.67018000  0.86952100  1
  H  H101  1  0.25527100  0.39255200  0.20002000  1
  H  H102  1  0.30257600  0.33994300  0.14848200  1
  H  H103  1  0.32399600  0.34477300  0.22018800  1
  H  H104  1  0.38010800  0.37181100  0.20095400  1
  H  H105  1  0.08811500  0.33275000  0.73172800  1
  H  H106  1  0.15014800  0.35920100  0.69701800  1
  H  H107  1  0.15365300  0.29807700  0.65039500  1
  H  H108  1  0.21085000  0.34672300  0.72738500  1
  H  H109  1  0.90078300  0.68047400  0.27969800  1
  H  H110  1  0.83346000  0.67187800  0.30956400  1
  H  H111  1  0.77795900  0.68151000  0.26278300  1
  H  H112  1  0.82964800  0.73850700  0.33945500  1
  H  H113  1  0.99503400  0.23876100  0.62482200  1
  H  H114  1  0.96339400  0.25522000  0.54808800  1
  H  H115  1  0.92656500  0.29822100  0.55511100  1
  H  H116  1  0.88323200  0.21838000  0.50999500  1
  H  H117  1  0.00488700  0.70302700  0.33902500  1
  H  H118  1  0.06604200  0.71862000  0.44156500  1
  H  H119  1  0.00559300  0.73129700  0.44142100  1
  H  H120  1  0.08134100  0.78654600  0.49944000  1
  C  C1  1  0.41733000  0.42202900  0.50438500  1
  C  C2  1  0.58162500  0.58320600  0.50225700  1
  C  C3  1  0.58134400  0.50007400  0.58280700  1
  C  C4  1  0.41766300  0.50515600  0.42381800  1
  C  C5  1  0.70990800  0.44146100  0.68555900  1
  C  C6  1  0.29637900  0.56622700  0.31563700  1
  C  C7  1  0.69682700  0.50455400  0.76109300  1
  C  C8  1  0.29794000  0.48799200  0.24036800  1
  C  C9  1  0.74770100  0.51256100  0.81284300  1
  C  C10  1  0.24987900  0.48535300  0.19081600  1
  C  C11  1  0.87367000  0.50284900  0.87613500  1
  C  C12  1  0.12738800  0.49982900  0.12679200  1
  C  C13  1  0.71005300  0.49941900  0.71058400  1
  C  C14  1  0.28995000  0.50516700  0.29448500  1
  C  C15  1  0.75389100  0.44069000  0.73577200  1
  C  C16  1  0.25001600  0.56517900  0.26595900  1
  C  C17  1  0.78934400  0.50145100  0.79198500  1
  C  C18  1  0.21124900  0.50248500  0.21259500  1
  C  C19  1  0.81790400  0.55058800  0.78049400  1
  C  C20  1  0.18199300  0.45779400  0.22847800  1
  C  C21  1  0.77065700  0.54805900  0.73039900  1
  C  C22  1  0.22907400  0.46202800  0.28000800  1
  C  C23  1  0.83555000  0.50242300  0.83834200  1
  C  C24  1  0.16533500  0.50075100  0.16523600  1
  C  C25  1  0.66404400  0.49907900  0.66457200  1
  C  C26  1  0.33548700  0.50602200  0.34143000  1
  C  C27  1  0.62626400  0.49937200  0.62711000  1
  C  C28  1  0.37298800  0.50594300  0.37937200  1
  C  C29  1  0.25087400  0.24101100  0.44416300  1
  C  C30  1  0.75111800  0.76098900  0.55994400  1
  C  C31  1  0.24891900  0.31585000  0.52114400  1
  C  C32  1  0.74434200  0.68454100  0.47653000  1
  C  C33  1  0.20031300  0.26679300  0.51906200  1
  C  C34  1  0.78891000  0.73181400  0.47302300  1
  C  C35  1  0.12659700  0.12851400  0.50284500  1
  C  C36  1  0.86902700  0.87235200  0.49631600  1
  C  C37  1  0.28983000  0.29487400  0.50669300  1
  C  C38  1  0.70777900  0.70860600  0.49705100  1
  C  C39  1  0.20641800  0.19117800  0.44502400  1
  C  C40  1  0.79773500  0.80944800  0.55961200  1
  C  C41  1  0.21022100  0.21406300  0.50510200  1
  C  C42  1  0.78610600  0.78835400  0.49641100  1
  C  C43  1  0.27076500  0.23166700  0.55186500  1
  C  C44  1  0.72536400  0.77635800  0.45617000  1
  C  C45  1  0.31880200  0.27574900  0.54896400  1
  C  C46  1  0.67777200  0.72834600  0.45613400  1
  C  C47  1  0.16445500  0.16711800  0.50388000  1
  C  C48  1  0.83139000  0.83428100  0.49607200  1
  C  C49  1  0.33511900  0.34102500  0.50642700  1
  C  C50  1  0.66308300  0.66364600  0.49895800  1
  C  C51  1  0.37258300  0.37832600  0.50572300  1
  C  C52  1  0.62606100  0.62685700  0.50058500  1
  C  C53  1  0.99901700  0.41897700  0.91813300  1
  C  C54  1  0.00217800  0.58325400  0.08431800  1
  C  C55  1  0.91901800  0.50291000  0.92069100  1
  C  C56  1  0.08211800  0.49933500  0.08173300  1
  C  C57  1  0.99861800  0.91904400  0.41776400  1
  C  C58  1  0.99706900  0.08160300  0.58102000  1
  C  C59  1  0.08143200  0.08276400  0.50172900  1
  C  C60  1  0.91416100  0.91777200  0.49703000  1
  C  C61  1  0.97046100  0.23212600  0.78618100  1
  C  C62  1  0.02175100  0.76677200  0.20947100  1
  C  C63  1  0.06761200  0.30713800  0.80756800  1
  C  C64  1  0.94142400  0.68657600  0.20973600  1
  C  C65  1  0.06443800  0.26354600  0.75316800  1
  C  C66  1  0.93626600  0.73689300  0.24822600  1
  C  C67  1  0.99706000  0.12717400  0.62527600  1
  C  C68  1  0.99931400  0.87404300  0.37364700  1
  C  C69  1  0.00366300  0.29208600  0.79266900  1
  C  C70  1  0.00203600  0.71066000  0.21366300  1
  C  C71  1  0.97765700  0.18743300  0.74362800  1
  C  C72  1  0.02057500  0.81395100  0.25611100  1
  C  C73  1  0.00024600  0.21305600  0.70971800  1
  C  C74  1  0.99943200  0.78943300  0.29128300  1
  C  C75  1  0.95938600  0.23447400  0.68365400  1
  C  C76  1  0.04295500  0.77178000  0.32114500  1
  C  C77  1  0.97200200  0.28943100  0.73434200  1
  C  C78  1  0.04690300  0.72690200  0.27440100  1
  C  C79  1  0.99803300  0.16586400  0.66303300  1
  C  C80  1  0.99949600  0.83589100  0.33649500  1
  C  C81  1  0.00154600  0.33737800  0.83695200  1
  C  C82  1  0.00240800  0.66508600  0.16801000  1
  C  C83  1  0.99996700  0.37465000  0.87358600  1
  C  C84  1  0.00239100  0.62766100  0.12994300  1
  C  C85  1  0.80267100  0.38208700  0.72581700  1
  C  C86  1  0.84575700  0.36827000  0.71145200  1
  C  C87  1  0.20180100  0.62437000  0.27393400  1
  C  C88  1  0.16082300  0.64092700  0.29009600  1
  C  C89  1  0.28507900  0.38514700  0.62593700  1
  C  C90  1  0.29425900  0.44278500  0.66724500  1
  C  C91  1  0.69866300  0.57866800  0.42075800  1
  C  C92  1  0.67528000  0.52371100  0.36484000  1
  C  C93  1  0.40343800  0.31654700  0.64258400  1
  C  C94  1  0.45814500  0.36794500  0.69816500  1
  C  C95  1  0.57681300  0.65668500  0.37837800  1
  C  C96  1  0.53185700  0.61680700  0.31404100  1
  C  C97  1  0.29047000  0.22970500  0.37815300  1
  C  C98  1  0.31125900  0.19606500  0.34388700  1
  C  C99  1  0.70986700  0.82375300  0.59663600  1
  C  C100  1  0.69431100  0.84829400  0.64248000  1
  C  C101  1  0.11187700  0.34312100  0.91076400  1
  C  C102  1  0.17005700  0.39952700  0.94911500  1
  C  C103  1  0.87373100  0.66335500  0.10879300  1
  C  C104  1  0.82956300  0.61710400  0.04550400  1
  C  C105  1  0.71066200  0.60581200  0.80900700  1
  C  C106  1  0.68338000  0.64364500  0.82098600  1
  C  C107  1  0.34253600  0.42655800  0.22138900  1
  C  C108  1  0.33691600  0.36695700  0.19612400  1
  C  C109  1  0.12835000  0.28513000  0.71206200  1
  C  C110  1  0.16275000  0.32486000  0.69579400  1
  C  C111  1  0.86577400  0.73405800  0.28183900  1
  C  C112  1  0.82426700  0.70449800  0.29945300  1
  C  C113  1  0.92410200  0.25208700  0.60330900  1
  C  C114  1  0.92452500  0.25618700  0.55095000  1
  C  C115  1  0.05809300  0.78125200  0.41542000  1
  C  C116  1  0.05239100  0.75256700  0.45174600  1
  N  N1  1  0.79321300  0.42499900  0.71882600  1
  N  N2  1  0.21441900  0.58505300  0.28623300  1
  N  N3  1  0.28071500  0.37489900  0.57258600  1
  N  N4  1  0.70679800  0.62956800  0.42022600  1
  N  N5  1  0.36383200  0.32550500  0.60751400  1
  N  N6  1  0.63545700  0.67871300  0.39651100  1
  N  N7  1  0.28692200  0.22260600  0.42324300  1
  N  N8  1  0.72168400  0.77888200  0.59165100  1
  N  N9  1  0.09920500  0.30217900  0.85793600  1
  N  N10  1  0.89142400  0.64691100  0.14966300  1
  N  N11  1  0.67576100  0.54596200  0.77655300  1
  N  N12  1  0.29497700  0.43104300  0.22082700  1
  N  N13  1  0.08777000  0.29378200  0.72540800  1
  N  N14  1  0.90774500  0.71948200  0.27996300  1
  N  N15  1  0.96719400  0.24707800  0.63911800  1
  N  N16  1  0.02502400  0.74806000  0.35562900  1
  O  O1  1  0.43622700  0.40372200  0.46802200  1
  O  O2  1  0.56272800  0.60151600  0.53860900  1
  O  O3  1  0.43740600  0.47809800  0.53978700  1
  O  O4  1  0.56155400  0.52713400  0.46684500  1
  O  O5  1  0.55963600  0.46241800  0.52696300  1
  O  O6  1  0.43934600  0.54281700  0.47967100  1
  O  O7  1  0.56415900  0.53836000  0.60034200  1
  O  O8  1  0.43484100  0.46687600  0.40629900  1
  O  O9  1  0.96406100  0.40160100  0.93864700  1
  O  O10  1  0.03712100  0.60062500  0.06379300  1
  O  O11  1  0.03425300  0.47477100  0.93721900  1
  O  O12  1  0.96693600  0.52745500  0.06523800  1
  O  O13  1  0.90264700  0.46512200  0.93861800  1
  O  O14  1  0.09850800  0.53713200  0.06381000  1
  O  O15  1  0.97459800  0.54039100  0.94096000  1
  O  O16  1  0.02654100  0.46184200  0.06145100  1
  O  O17  1  0.96121100  0.93703700  0.40004200  1
  O  O18  1  0.03441100  0.06354200  0.59871500  1
  O  O19  1  0.03506600  0.93962200  0.47369300  1
  O  O20  1  0.96056700  0.06097900  0.52508000  1
  O  O21  1  0.02580700  0.06171700  0.46356500  1
  O  O22  1  0.96978700  0.93884500  0.53519100  1
  O  O23  1  0.09794100  0.06466100  0.53931000  1
  O  O24  1  0.89765900  0.93590000  0.45946700  1
  O  O25  1  0.77713400  0.35484900  0.74465400  1
  O  O26  1  0.22281000  0.64612100  0.24892600  1
  O  O27  1  0.28697300  0.35050200  0.64348700  1
  O  O28  1  0.70781000  0.57617800  0.46596700  1
  O  O29  1  0.39475100  0.26655300  0.62959400  1
  O  O30  1  0.55966400  0.66674400  0.41408400  1
  O  O31  1  0.27952400  0.26512200  0.36676800  1
  O  O32  1  0.70864200  0.84287600  0.56270100  1
  O  O33  1  0.07912400  0.33117200  0.93079300  1
  O  O34  1  0.89127200  0.71515100  0.12264700  1
  O  O35  1  0.76421300  0.62981800  0.82958600  1
  O  O36  1  0.39025000  0.47042800  0.24328600  1
  O  O37  1  0.13568700  0.24363800  0.71063300  1
  O  O38  1  0.86288700  0.77313700  0.27195700  1
  O  O39  1  0.88465000  0.25356900  0.61343500  1
  O  O40  1  0.09060500  0.83465100  0.44017400  1
