# generated using pymatgen
data_Cu3H23C53O14
_symmetry_space_group_name_H-M   'P 1'
_cell_length_a   27.68536100
_cell_length_b   18.35275500
_cell_length_c   16.99257300
_cell_angle_alpha   90.00000000
_cell_angle_beta   63.32418500
_cell_angle_gamma   90.00000000
_symmetry_Int_Tables_number   1
_chemical_formula_structural   Cu3H23C53O14
_chemical_formula_sum   'Cu12 H92 C212 O56'
_cell_volume   7714.97979459
_cell_formula_units_Z   4
loop_
 _symmetry_equiv_pos_site_id
 _symmetry_equiv_pos_as_xyz
  1  'x, y, z'
loop_
 _atom_site_type_symbol
 _atom_site_label
 _atom_site_symmetry_multiplicity
 _atom_site_fract_x
 _atom_site_fract_y
 _atom_site_fract_z
 _atom_site_occupancy
  Cu  Cu1  1  0.20683000  0.77639600  0.50356700  1
  Cu  Cu2  1  0.78388200  0.20240800  0.51275200  1
  Cu  Cu3  1  0.79317000  0.77639600  0.49643300  1
  Cu  Cu4  1  0.21611900  0.20240800  0.48724800  1
  Cu  Cu5  1  0.70683000  0.27639600  0.50356700  1
  Cu  Cu6  1  0.28388200  0.70240800  0.51275200  1
  Cu  Cu7  1  0.29317000  0.27639600  0.49643300  1
  Cu  Cu8  1  0.71611900  0.70240800  0.48724800  1
  Cu  Cu9  1  0.49239100  0.50872200  0.92954400  1
  Cu  Cu10  1  0.50761000  0.50872200  0.07045600  1
  Cu  Cu11  1  0.99239100  0.00872200  0.92954400  1
  Cu  Cu12  1  0.00761000  0.00872200  0.07045600  1
  H  H1  1  0.22929100  0.48986800  0.53133800  1
  H  H2  1  0.77070900  0.48986800  0.46866100  1
  H  H3  1  0.72929100  0.98986800  0.53133800  1
  H  H4  1  0.27070900  0.98986800  0.46866100  1
  H  H5  1  0.62976500  0.81356800  0.45325400  1
  H  H6  1  0.41133900  0.16178300  0.41722900  1
  H  H7  1  0.37023500  0.81356800  0.54674600  1
  H  H8  1  0.58866100  0.16178300  0.58277100  1
  H  H9  1  0.12976500  0.31356800  0.45325400  1
  H  H10  1  0.91133900  0.66178300  0.41722900  1
  H  H11  1  0.87023500  0.31356800  0.54674600  1
  H  H12  1  0.08866100  0.66178300  0.58277100  1
  H  H13  1  0.54396300  0.81080300  0.45969500  1
  H  H14  1  0.48589600  0.16419800  0.44906500  1
  H  H15  1  0.45603700  0.81080300  0.54030400  1
  H  H16  1  0.51410500  0.16419800  0.55093500  1
  H  H17  1  0.04396300  0.31080300  0.45969500  1
  H  H18  1  0.98589600  0.66419800  0.44906500  1
  H  H19  1  0.95603700  0.31080300  0.54030400  1
  H  H20  1  0.01410500  0.66419800  0.55093500  1
  H  H21  1  0.12110900  0.83862600  0.00797500  1
  H  H22  1  0.86668700  0.16265800  0.00468700  1
  H  H23  1  0.87889100  0.83862600  0.99202500  1
  H  H24  1  0.13331300  0.16265800  0.99531300  1
  H  H25  1  0.62110900  0.33862600  0.00797500  1
  H  H26  1  0.36668700  0.66265800  0.00468700  1
  H  H27  1  0.37889100  0.33862600  0.99202500  1
  H  H28  1  0.63331300  0.66265800  0.99531300  1
  H  H29  1  0.23400100  0.72228400  0.78790400  1
  H  H30  1  0.74222500  0.24437900  0.24608200  1
  H  H31  1  0.76599900  0.72228400  0.21209500  1
  H  H32  1  0.25777600  0.24437900  0.75391800  1
  H  H33  1  0.73400100  0.22228400  0.78790400  1
  H  H34  1  0.24222500  0.74437900  0.24608200  1
  H  H35  1  0.26599900  0.22228400  0.21209500  1
  H  H36  1  0.75777600  0.74437900  0.75391800  1
  H  H37  1  0.30781900  0.75921400  0.78859100  1
  H  H38  1  0.67271800  0.22059100  0.23272800  1
  H  H39  1  0.69218100  0.75921400  0.21140800  1
  H  H40  1  0.32728200  0.22059100  0.76727200  1
  H  H41  1  0.80781900  0.25921400  0.78859100  1
  H  H42  1  0.17271800  0.72059100  0.23272800  1
  H  H43  1  0.19218100  0.25921400  0.21140800  1
  H  H44  1  0.82728200  0.72059100  0.76727200  1
  H  H45  1  0.36348200  0.65018400  0.73842300  1
  H  H46  1  0.61828000  0.33082800  0.28499700  1
  H  H47  1  0.63651800  0.65018400  0.26157600  1
  H  H48  1  0.38172100  0.33082800  0.71500300  1
  H  H49  1  0.86348200  0.15018400  0.73842300  1
  H  H50  1  0.11828000  0.83082800  0.28499700  1
  H  H51  1  0.13651800  0.15018400  0.26157600  1
  H  H52  1  0.88172100  0.83082800  0.71500300  1
  H  H53  1  0.35606100  0.55493000  0.84507400  1
  H  H54  1  0.62900400  0.42937600  0.18034900  1
  H  H55  1  0.64393900  0.55493000  0.15492500  1
  H  H56  1  0.37099600  0.42937600  0.81965100  1
  H  H57  1  0.85606100  0.05493000  0.84507400  1
  H  H58  1  0.12900400  0.92937600  0.18034900  1
  H  H59  1  0.14393900  0.05493000  0.15492500  1
  H  H60  1  0.87099600  0.92937600  0.81965100  1
  H  H61  1  0.30300900  0.57784600  0.00222000  1
  H  H62  1  0.68414900  0.40905900  0.02293200  1
  H  H63  1  0.69699100  0.57784600  0.99778000  1
  H  H64  1  0.31585200  0.40905900  0.97706700  1
  H  H65  1  0.80300900  0.07784600  0.00222000  1
  H  H66  1  0.18414900  0.90905900  0.02293200  1
  H  H67  1  0.19699100  0.07784600  0.99778000  1
  H  H68  1  0.81585200  0.90905900  0.97706700  1
  H  H69  1  0.18244300  0.95154700  0.66625400  1
  H  H70  1  0.11878400  0.97588400  0.58899600  1
  H  H71  1  0.03491200  0.88830500  0.66652900  1
  H  H72  1  0.91891200  0.28103000  0.24712200  1
  H  H73  1  0.97198800  0.22715400  0.33181700  1
  H  H74  1  0.95299200  0.08571200  0.34617500  1
  H  H75  1  0.81755800  0.95154700  0.33374500  1
  H  H76  1  0.88121600  0.97588400  0.41100400  1
  H  H77  1  0.96508800  0.88830500  0.33347000  1
  H  H78  1  0.08108900  0.28103000  0.75287700  1
  H  H79  1  0.02801200  0.22715400  0.66818300  1
  H  H80  1  0.04700900  0.08571200  0.65382400  1
  H  H81  1  0.68244300  0.45154700  0.66625400  1
  H  H82  1  0.61878400  0.47588400  0.58899600  1
  H  H83  1  0.53491200  0.38830500  0.66652900  1
  H  H84  1  0.41891200  0.78103000  0.24712200  1
  H  H85  1  0.47198800  0.72715400  0.33181700  1
  H  H86  1  0.45299200  0.58571200  0.34617500  1
  H  H87  1  0.31755800  0.45154700  0.33374500  1
  H  H88  1  0.38121600  0.47588400  0.41100400  1
  H  H89  1  0.46508800  0.38830500  0.33347000  1
  H  H90  1  0.58108900  0.78103000  0.75287700  1
  H  H91  1  0.52801200  0.72715400  0.66818300  1
  H  H92  1  0.54700900  0.58571200  0.65382400  1
  C  C1  1  0.28845100  0.71860000  0.34359300  1
  C  C2  1  0.70368100  0.26524700  0.67206400  1
  C  C3  1  0.71154900  0.71860000  0.65640600  1
  C  C4  1  0.29631900  0.26524700  0.32793500  1
  C  C5  1  0.78845100  0.21860000  0.34359300  1
  C  C6  1  0.20368100  0.76524700  0.67206400  1
  C  C7  1  0.21154900  0.21860000  0.65640600  1
  C  C8  1  0.79631900  0.76524700  0.32793500  1
  C  C9  1  0.19151400  0.62292700  0.53222700  1
  C  C10  1  0.79834500  0.35588200  0.48931100  1
  C  C11  1  0.80848600  0.62292700  0.46777300  1
  C  C12  1  0.20165500  0.35588200  0.51068900  1
  C  C13  1  0.69151400  0.12292700  0.53222700  1
  C  C14  1  0.29834500  0.85588200  0.48931100  1
  C  C15  1  0.30848600  0.12292700  0.46777300  1
  C  C16  1  0.70165500  0.85588200  0.51068900  1
  C  C17  1  0.04710500  0.48725500  0.50941700  1
  C  C18  1  0.95289600  0.48725500  0.49058300  1
  C  C19  1  0.54710500  0.98725500  0.50941700  1
  C  C20  1  0.45289600  0.98725500  0.49058300  1
  C  C21  1  0.02128500  0.55170800  0.51095000  1
  C  C22  1  0.97457700  0.42296100  0.50162300  1
  C  C23  1  0.97871600  0.55170800  0.48905000  1
  C  C24  1  0.02542300  0.42296100  0.49837700  1
  C  C25  1  0.52128500  0.05170800  0.51095000  1
  C  C26  1  0.47457700  0.92296100  0.50162300  1
  C  C27  1  0.47871600  0.05170800  0.48905000  1
  C  C28  1  0.52542300  0.92296100  0.49837700  1
  C  C29  1  0.12363000  0.42318900  0.50561300  1
  C  C30  1  0.88662100  0.55172200  0.46392200  1
  C  C31  1  0.87637100  0.42318900  0.49438700  1
  C  C32  1  0.11337900  0.55172200  0.53607800  1
  C  C33  1  0.62363000  0.92318900  0.50561300  1
  C  C34  1  0.38662100  0.05172200  0.46392200  1
  C  C35  1  0.37637100  0.92318900  0.49438700  1
  C  C36  1  0.61337900  0.05172200  0.53607800  1
  C  C37  1  0.17094000  0.42315500  0.51598400  1
  C  C38  1  0.83650400  0.55349100  0.46346800  1
  C  C39  1  0.82906100  0.42315500  0.48401600  1
  C  C40  1  0.16349700  0.55349100  0.53653200  1
  C  C41  1  0.67094000  0.92315500  0.51598400  1
  C  C42  1  0.33650400  0.05349100  0.46346800  1
  C  C43  1  0.32906100  0.92315500  0.48401600  1
  C  C44  1  0.66349700  0.05349100  0.53653200  1
  C  C45  1  0.19090200  0.48881400  0.52920400  1
  C  C46  1  0.80909900  0.48881400  0.47079600  1
  C  C47  1  0.69090200  0.98881400  0.52920400  1
  C  C48  1  0.30909900  0.98881400  0.47079600  1
  C  C49  1  0.09462300  0.48721700  0.51786300  1
  C  C50  1  0.90537700  0.48721700  0.48213600  1
  C  C51  1  0.59462300  0.98721700  0.51786300  1
  C  C52  1  0.40537700  0.98721700  0.48213600  1
  C  C53  1  0.60573100  0.86174500  0.47870900  1
  C  C54  1  0.41898800  0.11319600  0.44546800  1
  C  C55  1  0.39426900  0.86174500  0.52129000  1
  C  C56  1  0.58101200  0.11319600  0.55453200  1
  C  C57  1  0.10573100  0.36174500  0.47870900  1
  C  C58  1  0.91898800  0.61319600  0.44546800  1
  C  C59  1  0.89426900  0.36174500  0.52129000  1
  C  C60  1  0.08101200  0.61319600  0.55453200  1
  C  C61  1  0.55594100  0.86042400  0.48022700  1
  C  C62  1  0.46284400  0.11437300  0.46246500  1
  C  C63  1  0.44405900  0.86042400  0.51977200  1
  C  C64  1  0.53715600  0.11437300  0.53753400  1
  C  C65  1  0.05594100  0.36042400  0.48022700  1
  C  C66  1  0.96284400  0.61437300  0.46246500  1
  C  C67  1  0.94405900  0.36042400  0.51977200  1
  C  C68  1  0.03715600  0.61437300  0.53753400  1
  C  C69  1  0.14283800  0.83100300  0.93823700  1
  C  C70  1  0.84700500  0.16852300  0.07493100  1
  C  C71  1  0.85716200  0.83100300  0.06176200  1
  C  C72  1  0.15299500  0.16852300  0.92506800  1
  C  C73  1  0.64283800  0.33100300  0.93823700  1
  C  C74  1  0.34700500  0.66852300  0.07493100  1
  C  C75  1  0.35716200  0.33100300  0.06176200  1
  C  C76  1  0.65299500  0.66852300  0.92506800  1
  C  C77  1  0.11849000  0.85877900  0.88871400  1
  C  C78  1  0.87848400  0.15137500  0.11715000  1
  C  C79  1  0.88151100  0.85877900  0.11128500  1
  C  C80  1  0.12151600  0.15137500  0.88285000  1
  C  C81  1  0.61849000  0.35877900  0.88871400  1
  C  C82  1  0.37848400  0.65137500  0.11715000  1
  C  C83  1  0.38151100  0.35877900  0.11128500  1
  C  C84  1  0.62151600  0.65137500  0.88285000  1
  C  C85  1  0.14002800  0.84076000  0.79968100  1
  C  C86  1  0.86089500  0.17128000  0.20430200  1
  C  C87  1  0.85997200  0.84076000  0.20031900  1
  C  C88  1  0.13910500  0.17128000  0.79569700  1
  C  C89  1  0.64002800  0.34076000  0.79968100  1
  C  C90  1  0.36089500  0.67128000  0.20430200  1
  C  C91  1  0.35997200  0.34076000  0.20031900  1
  C  C92  1  0.63910500  0.67128000  0.79569700  1
  C  C93  1  0.18190000  0.79046000  0.76488100  1
  C  C94  1  0.81077500  0.20350500  0.24861800  1
  C  C95  1  0.81810000  0.79046000  0.23511800  1
  C  C96  1  0.18922500  0.20350500  0.75138200  1
  C  C97  1  0.68190000  0.29046000  0.76488100  1
  C  C98  1  0.31077500  0.70350500  0.24861800  1
  C  C99  1  0.31810000  0.29046000  0.23511800  1
  C  C100  1  0.68922500  0.70350500  0.75138200  1
  C  C101  1  0.20627600  0.76637800  0.81572500  1
  C  C102  1  0.77876700  0.21648800  0.20660300  1
  C  C103  1  0.79372400  0.76637800  0.18427500  1
  C  C104  1  0.22123300  0.21648800  0.79339700  1
  C  C105  1  0.70627600  0.26637800  0.81572500  1
  C  C106  1  0.27876700  0.71648800  0.20660300  1
  C  C107  1  0.29372400  0.26637800  0.18427500  1
  C  C108  1  0.72123300  0.71648800  0.79339700  1
  C  C109  1  0.19255900  0.79408500  0.90006600  1
  C  C110  1  0.79397800  0.19531100  0.11937700  1
  C  C111  1  0.80744100  0.79408500  0.09993400  1
  C  C112  1  0.20602200  0.19531100  0.88062300  1
  C  C113  1  0.69255900  0.29408500  0.90006600  1
  C  C114  1  0.29397800  0.69531100  0.11937700  1
  C  C115  1  0.30744100  0.29408500  0.09993400  1
  C  C116  1  0.70602200  0.69531100  0.88062300  1
  C  C117  1  0.30361800  0.71746300  0.83604500  1
  C  C118  1  0.67869200  0.26445000  0.18692400  1
  C  C119  1  0.69638200  0.71746300  0.16395500  1
  C  C120  1  0.32130800  0.26445000  0.81307600  1
  C  C121  1  0.80361800  0.21746300  0.83604500  1
  C  C122  1  0.17869200  0.76445000  0.18692400  1
  C  C123  1  0.19638200  0.21746300  0.16395500  1
  C  C124  1  0.82130800  0.76445000  0.81307600  1
  C  C125  1  0.33636500  0.65708900  0.80757400  1
  C  C126  1  0.64629600  0.32504300  0.21609500  1
  C  C127  1  0.66363500  0.65708900  0.19242600  1
  C  C128  1  0.35370400  0.32504300  0.78390500  1
  C  C129  1  0.83636500  0.15708900  0.80757400  1
  C  C130  1  0.14629600  0.82504300  0.21609500  1
  C  C131  1  0.16363500  0.15708900  0.19242600  1
  C  C132  1  0.85370400  0.82504300  0.78390500  1
  C  C133  1  0.33250200  0.60417100  0.86709000  1
  C  C134  1  0.65186600  0.37962700  0.15755500  1
  C  C135  1  0.66749800  0.60417100  0.13291000  1
  C  C136  1  0.34813400  0.37962700  0.84244400  1
  C  C137  1  0.83250200  0.10417100  0.86709000  1
  C  C138  1  0.15186600  0.87962700  0.15755500  1
  C  C139  1  0.16749800  0.10417100  0.13291000  1
  C  C140  1  0.84813400  0.87962700  0.84244400  1
  C  C141  1  0.30276000  0.61771600  0.95556700  1
  C  C142  1  0.68231100  0.36717200  0.06890700  1
  C  C143  1  0.69724000  0.61771600  0.04443300  1
  C  C144  1  0.31769000  0.36717200  0.93109200  1
  C  C145  1  0.80276000  0.11771600  0.95556700  1
  C  C146  1  0.18231100  0.86717200  0.06890700  1
  C  C147  1  0.19724000  0.11771600  0.04443300  1
  C  C148  1  0.81769000  0.86717200  0.93109200  1
  C  C149  1  0.27673500  0.68410400  0.98396200  1
  C  C150  1  0.70689600  0.30001100  0.03966500  1
  C  C151  1  0.72326500  0.68410400  0.01603700  1
  C  C152  1  0.29310400  0.30001100  0.96033500  1
  C  C153  1  0.77673500  0.18410400  0.98396200  1
  C  C154  1  0.20689600  0.80001100  0.03966500  1
  C  C155  1  0.22326500  0.18410400  0.01603700  1
  C  C156  1  0.79310400  0.80001100  0.96033500  1
  C  C157  1  0.26643400  0.72454400  0.92382600  1
  C  C158  1  0.71669500  0.25880700  0.09963800  1
  C  C159  1  0.73356600  0.72454400  0.07617400  1
  C  C160  1  0.28330500  0.25880700  0.90036100  1
  C  C161  1  0.76643400  0.22454400  0.92382600  1
  C  C162  1  0.21669500  0.75880700  0.09963800  1
  C  C163  1  0.23356600  0.22454400  0.07617400  1
  C  C164  1  0.78330500  0.75880700  0.90036100  1
  C  C165  1  0.25894600  0.70789100  0.07086400  1
  C  C166  1  0.72450800  0.27618900  0.95255500  1
  C  C167  1  0.74105400  0.70789100  0.92913600  1
  C  C168  1  0.27549200  0.27618900  0.04744500  1
  C  C169  1  0.75894600  0.20789100  0.07086400  1
  C  C170  1  0.22450800  0.77618900  0.95255500  1
  C  C171  1  0.24105400  0.20789100  0.92913600  1
  C  C172  1  0.77549200  0.77618900  0.04744500  1
  C  C173  1  0.92725200  0.91124600  0.06924700  1
  C  C174  1  0.07322800  0.10499300  0.93029600  1
  C  C175  1  0.07274900  0.91124600  0.93075300  1
  C  C176  1  0.92677200  0.10499300  0.06970300  1
  C  C177  1  0.42725200  0.41124600  0.06924700  1
  C  C178  1  0.57322800  0.60499300  0.93029600  1
  C  C179  1  0.57274900  0.41124600  0.93075300  1
  C  C180  1  0.42677200  0.60499300  0.06970300  1
  C  C181  1  0.11851800  0.87256000  0.74274600  1
  C  C182  1  0.14427700  0.92561000  0.68093600  1
  C  C183  1  0.11184400  0.93792900  0.64164700  1
  C  C184  1  0.06845500  0.89192300  0.68257300  1
  C  C185  1  0.89617100  0.16592200  0.24763100  1
  C  C186  1  0.92087700  0.22475300  0.26422600  1
  C  C187  1  0.94778600  0.19730300  0.30748400  1
  C  C188  1  0.93744600  0.12373200  0.31456300  1
  C  C189  1  0.88148200  0.87256000  0.25725400  1
  C  C190  1  0.85572300  0.92561000  0.31906300  1
  C  C191  1  0.88815600  0.93792900  0.35835300  1
  C  C192  1  0.93154500  0.89192300  0.31742600  1
  C  C193  1  0.10383000  0.16592200  0.75236800  1
  C  C194  1  0.07912400  0.22475300  0.73577300  1
  C  C195  1  0.05221400  0.19730300  0.69251500  1
  C  C196  1  0.06255400  0.12373200  0.68543700  1
  C  C197  1  0.61851800  0.37256000  0.74274600  1
  C  C198  1  0.64427700  0.42561000  0.68093600  1
  C  C199  1  0.61184400  0.43792900  0.64164700  1
  C  C200  1  0.56845500  0.39192300  0.68257300  1
  C  C201  1  0.39617100  0.66592200  0.24763100  1
  C  C202  1  0.42087700  0.72475300  0.26422600  1
  C  C203  1  0.44778600  0.69730300  0.30748400  1
  C  C204  1  0.43744600  0.62373200  0.31456300  1
  C  C205  1  0.38148200  0.37256000  0.25725400  1
  C  C206  1  0.35572300  0.42561000  0.31906300  1
  C  C207  1  0.38815600  0.43792900  0.35835300  1
  C  C208  1  0.43154500  0.39192300  0.31742600  1
  C  C209  1  0.60383000  0.66592200  0.75236800  1
  C  C210  1  0.57912400  0.72475300  0.73577300  1
  C  C211  1  0.55221400  0.69730300  0.69251500  1
  C  C212  1  0.56255400  0.62373200  0.68543700  1
  O  O1  1  0.24586900  0.86135800  0.51395600  1
  O  O2  1  0.73092800  0.12378700  0.55618600  1
  O  O3  1  0.75413200  0.86135800  0.48604300  1
  O  O4  1  0.26907300  0.12378700  0.44381400  1
  O  O5  1  0.74586900  0.36135800  0.51395600  1
  O  O6  1  0.23092800  0.62378700  0.55618600  1
  O  O7  1  0.25413200  0.36135800  0.48604300  1
  O  O8  1  0.76907300  0.62378700  0.44381400  1
  O  O9  1  0.17255800  0.76839000  0.63154700  1
  O  O10  1  0.80061900  0.17352500  0.39291600  1
  O  O11  1  0.82744300  0.76839000  0.36845200  1
  O  O12  1  0.19938200  0.17352500  0.60708300  1
  O  O13  1  0.67255800  0.26839000  0.63154700  1
  O  O14  1  0.30061900  0.67352500  0.39291600  1
  O  O15  1  0.32744300  0.26839000  0.36845200  1
  O  O16  1  0.69938200  0.67352500  0.60708300  1
  O  O17  1  0.25377800  0.77307200  0.37689700  1
  O  O18  1  0.75474000  0.24359400  0.63127100  1
  O  O19  1  0.74622200  0.77307200  0.62310200  1
  O  O20  1  0.24526000  0.24359400  0.36872900  1
  O  O21  1  0.75377800  0.27307200  0.37689700  1
  O  O22  1  0.25474000  0.74359400  0.63127100  1
  O  O23  1  0.24622200  0.27307200  0.62310200  1
  O  O24  1  0.74526000  0.74359400  0.36872900  1
  O  O25  1  0.18025400  0.67962200  0.49517500  1
  O  O26  1  0.82421000  0.29282600  0.46818700  1
  O  O27  1  0.81974600  0.67962200  0.50482500  1
  O  O28  1  0.17579100  0.29282600  0.53181300  1
  O  O29  1  0.68025400  0.17962200  0.49517500  1
  O  O30  1  0.32421000  0.79282600  0.46818700  1
  O  O31  1  0.31974600  0.17962200  0.50482500  1
  O  O32  1  0.67579100  0.79282600  0.53181300  1
  O  O33  1  0.05808500  0.95012200  0.87977200  1
  O  O34  1  0.96243900  0.09592100  0.10097900  1
  O  O35  1  0.94191500  0.95012200  0.12022800  1
  O  O36  1  0.03756100  0.09592100  0.89902100  1
  O  O37  1  0.55808500  0.45012200  0.87977200  1
  O  O38  1  0.46243900  0.59592100  0.10097900  1
  O  O39  1  0.44191500  0.45012200  0.12022800  1
  O  O40  1  0.53756100  0.59592100  0.89902100  1
  O  O41  1  0.94959300  0.92123300  0.98268400  1
  O  O42  1  0.07106400  0.06744800  0.99804900  1
  O  O43  1  0.05040800  0.92123300  0.01731600  1
  O  O44  1  0.92893700  0.06744800  0.00195100  1
  O  O45  1  0.44959300  0.42123300  0.98268400  1
  O  O46  1  0.57106400  0.56744800  0.99804900  1
  O  O47  1  0.55040800  0.42123300  0.01731600  1
  O  O48  1  0.42893700  0.56744800  0.00195100  1
  O  O49  1  0.07227400  0.85172900  0.74431500  1
  O  O50  1  0.90571600  0.10419000  0.27858700  1
  O  O51  1  0.92772700  0.85172900  0.25568500  1
  O  O52  1  0.09428500  0.10419000  0.72141300  1
  O  O53  1  0.57227400  0.35172900  0.74431500  1
  O  O54  1  0.40571600  0.60419000  0.27858700  1
  O  O55  1  0.42772700  0.35172900  0.25568500  1
  O  O56  1  0.59428500  0.60419000  0.72141300  1
