# generated using pymatgen
data_ZnH17C29(NO3)2
_symmetry_space_group_name_H-M   'P 1'
_cell_length_a   13.39979600
_cell_length_b   8.55297500
_cell_length_c   23.29553100
_cell_angle_alpha   90.00000000
_cell_angle_beta   93.89097700
_cell_angle_gamma   90.00000000
_symmetry_Int_Tables_number   1
_chemical_formula_structural   ZnH17C29(NO3)2
_chemical_formula_sum   'Zn2 H34 C58 N4 O12'
_cell_volume   2663.70293654
_cell_formula_units_Z   2
loop_
 _symmetry_equiv_pos_site_id
 _symmetry_equiv_pos_as_xyz
  1  'x, y, z'
loop_
 _atom_site_type_symbol
 _atom_site_label
 _atom_site_symmetry_multiplicity
 _atom_site_fract_x
 _atom_site_fract_y
 _atom_site_fract_z
 _atom_site_occupancy
  Zn  Zn1  1  0.88899300  0.48797400  0.50170400  1
  Zn  Zn2  1  0.11100700  0.48797400  0.49829600  1
  H  H1  1  0.01773700  0.23970400  0.69331600  1
  H  H2  1  0.03736900  0.74262100  0.31285600  1
  H  H3  1  0.98226300  0.23970400  0.30668400  1
  H  H4  1  0.96263100  0.74262100  0.68714400  1
  H  H5  1  0.92696300  0.35860400  0.85753500  1
  H  H6  1  0.94310100  0.60981600  0.13949800  1
  H  H7  1  0.07303700  0.35860400  0.14246500  1
  H  H8  1  0.05689900  0.60981600  0.86050200  1
  H  H9  1  0.04806700  0.36698400  0.03906500  1
  H  H10  1  0.04354400  0.60165700  0.96290100  1
  H  H11  1  0.95193300  0.36698400  0.96093500  1
  H  H12  1  0.95645700  0.60165700  0.03709900  1
  H  H13  1  0.04622200  0.98748100  0.54085600  1
  H  H14  1  0.95377800  0.98748100  0.45914400  1
  H  H15  1  0.25647000  0.52192600  0.58644300  1
  H  H16  1  0.74353000  0.52192600  0.41355700  1
  H  H17  1  0.53907400  0.31030400  0.60627500  1
  H  H18  1  0.39080100  0.46528400  0.35717000  1
  H  H19  1  0.46092600  0.31030300  0.39372500  1
  H  H20  1  0.60920000  0.46528400  0.64283000  1
  H  H21  1  0.24238800  0.45420600  0.40801300  1
  H  H22  1  0.75761200  0.45420600  0.59198700  1
  H  H23  1  0.35134700  0.57122100  0.66729200  1
  H  H24  1  0.37340600  0.36718800  0.65028700  1
  H  H25  1  0.46313200  0.47584100  0.69566500  1
  H  H26  1  0.46986900  0.74099900  0.42763700  1
  H  H27  1  0.58146300  0.77403900  0.39047000  1
  H  H28  1  0.46544600  0.72721000  0.34995800  1
  H  H29  1  0.64865400  0.57122100  0.33270800  1
  H  H30  1  0.62659400  0.36718800  0.34971300  1
  H  H31  1  0.53686900  0.47584100  0.30433600  1
  H  H32  1  0.53013100  0.74099800  0.57236300  1
  H  H33  1  0.41853700  0.77403900  0.60953000  1
  H  H34  1  0.53455400  0.72721000  0.65004200  1
  C  C1  1  0.95554100  0.11027400  0.79163200  1
  C  C2  1  0.97574900  0.85896500  0.20643800  1
  C  C3  1  0.04446000  0.11027400  0.20836800  1
  C  C4  1  0.02425100  0.85896500  0.79356200  1
  C  C5  1  0.98745800  0.85087200  0.66906100  1
  C  C6  1  0.99061800  0.12844200  0.32807800  1
  C  C7  1  0.01254200  0.85087200  0.33093900  1
  C  C8  1  0.00938200  0.12844200  0.67192200  1
  C  C9  1  0.01410800  0.84936500  0.61288000  1
  C  C10  1  0.98163300  0.12709200  0.38667600  1
  C  C11  1  0.98589200  0.84936500  0.38712000  1
  C  C12  1  0.01836700  0.12709200  0.61332400  1
  C  C13  1  0.99484100  0.98861200  0.70111000  1
  C  C14  1  0.00515900  0.98861200  0.29889000  1
  C  C15  1  0.99280100  0.98418200  0.88157500  1
  C  C16  1  0.00720000  0.98418200  0.11842600  1
  C  C17  1  0.96653500  0.11641600  0.85110400  1
  C  C18  1  0.98370800  0.85197700  0.14767400  1
  C  C19  1  0.03346600  0.11641600  0.14889600  1
  C  C20  1  0.01629300  0.85197700  0.85232600  1
  C  C21  1  0.94909900  0.25293000  0.88042800  1
  C  C22  1  0.96331300  0.71538700  0.11759700  1
  C  C23  1  0.05090100  0.25293000  0.11957200  1
  C  C24  1  0.03668800  0.71538700  0.88240400  1
  C  C25  1  0.03096100  0.98783600  0.58562100  1
  C  C26  1  0.96903900  0.98783600  0.41437900  1
  C  C27  1  0.00929300  0.12352200  0.02973500  1
  C  C28  1  0.00547600  0.84509200  0.97057400  1
  C  C29  1  0.99070800  0.12352200  0.97026600  1
  C  C30  1  0.99452400  0.84509200  0.02942600  1
  C  C31  1  0.00384000  0.98425900  0.05913900  1
  C  C32  1  0.99616000  0.98425900  0.94086100  1
  C  C33  1  0.03418700  0.25833000  0.06046800  1
  C  C34  1  0.02669000  0.71012600  0.94087700  1
  C  C35  1  0.96581300  0.25833000  0.93953200  1
  C  C36  1  0.97331000  0.71012600  0.05912300  1
  C  C37  1  0.01059500  0.70674300  0.57833200  1
  C  C38  1  0.98806300  0.26972200  0.42133000  1
  C  C39  1  0.98940600  0.70674300  0.42166900  1
  C  C40  1  0.01193800  0.26972200  0.57867000  1
  C  C41  1  0.28696100  0.46922100  0.44805700  1
  C  C42  1  0.71303900  0.46922100  0.55194400  1
  C  C43  1  0.29584900  0.50555800  0.54808900  1
  C  C44  1  0.70415100  0.50555800  0.45191100  1
  C  C45  1  0.39951100  0.50342600  0.55035300  1
  C  C46  1  0.60048900  0.50342600  0.44964700  1
  C  C47  1  0.44587100  0.48393100  0.49986100  1
  C  C48  1  0.55413000  0.48393100  0.50013900  1
  C  C49  1  0.38993700  0.46633400  0.44874100  1
  C  C50  1  0.61006300  0.46633400  0.55125900  1
  C  C51  1  0.46271700  0.53169000  0.60516000  1
  C  C52  1  0.53728400  0.53169000  0.39484000  1
  C  C53  1  0.55851800  0.43619400  0.60471400  1
  C  C54  1  0.44148200  0.43619400  0.39528600  1
  C  C55  1  0.40873000  0.48337700  0.65771800  1
  C  C56  1  0.51163000  0.70441700  0.39041200  1
  C  C57  1  0.59127100  0.48337700  0.34228200  1
  C  C58  1  0.48837000  0.70441700  0.60958800  1
  N  N1  1  0.98992100  0.98534400  0.76286600  1
  N  N2  1  0.01008000  0.98534400  0.23713400  1
  N  N3  1  0.24179100  0.48777800  0.49750800  1
  N  N4  1  0.75821000  0.48777800  0.50249200  1
  O  O1  1  0.90797100  0.22798900  0.76315400  1
  O  O2  1  0.92933200  0.74132300  0.23197800  1
  O  O3  1  0.09202900  0.22798900  0.23684600  1
  O  O4  1  0.07066900  0.74132300  0.76802200  1
  O  O5  1  0.09338500  0.65782600  0.55681400  1
  O  O6  1  0.90612900  0.31959400  0.44273500  1
  O  O7  1  0.90661600  0.65782600  0.44318700  1
  O  O8  1  0.09387100  0.31959400  0.55726600  1
  O  O9  1  0.92212000  0.65022500  0.56268700  1
  O  O10  1  0.07739500  0.32424300  0.43773200  1
  O  O11  1  0.07788100  0.65022500  0.43731300  1
  O  O12  1  0.92260500  0.32424300  0.56226800  1
