# generated using pymatgen
data_Cu2H9C49N17O8
_symmetry_space_group_name_H-M   'P 1'
_cell_length_a   15.88047200
_cell_length_b   13.14690100
_cell_length_c   11.57581900
_cell_angle_alpha   99.80127000
_cell_angle_beta   94.18472000
_cell_angle_gamma   89.99291000
_symmetry_Int_Tables_number   1
_chemical_formula_structural   Cu2H9C49N17O8
_chemical_formula_sum   'Cu2 H9 C49 N17 O8'
_cell_volume   2374.97754698
_cell_formula_units_Z   1
loop_
 _symmetry_equiv_pos_site_id
 _symmetry_equiv_pos_as_xyz
  1  'x, y, z'
loop_
 _atom_site_type_symbol
 _atom_site_label
 _atom_site_symmetry_multiplicity
 _atom_site_fract_x
 _atom_site_fract_y
 _atom_site_fract_z
 _atom_site_occupancy
  Cu  Cu1  1  0.50518700  0.50893500  0.61550700  1
  Cu  Cu2  1  0.49306100  0.49052400  0.38118900  1
  H  H1  1  0.04906000  0.48859100  0.31112300  1
  H  H2  1  0.06756200  0.64904700  0.60594800  1
  H  H3  1  0.92717600  0.65978200  0.57462100  1
  H  H4  1  0.94954000  0.52701600  0.68457800  1
  H  H5  1  0.93147800  0.63638000  0.41869600  1
  H  H6  1  0.51807100  0.83434800  0.71595200  1
  H  H7  1  0.48074400  0.97425800  0.26192600  1
  H  H8  1  0.42134200  0.40901400  0.78471000  1
  H  H9  1  0.62671000  0.64466200  0.02676300  1
  C  C1  1  0.50207200  0.30063400  0.47963100  1
  C  C2  1  0.33746400  0.49756700  0.49866400  1
  C  C3  1  0.49666700  0.69819200  0.51710400  1
  C  C4  1  0.66075800  0.50051700  0.49834600  1
  C  C5  1  0.05154800  0.44632300  0.60156200  1
  C  C6  1  0.03993500  0.44071800  0.37924800  1
  C  C7  1  0.94553200  0.42807100  0.38544800  1
  C  C8  1  0.75113300  0.49927600  0.49813300  1
  C  C9  1  0.07902400  0.49604700  0.49874700  1
  C  C10  1  0.95749400  0.46328000  0.61018400  1
  C  C11  1  0.91927000  0.49720700  0.49773900  1
  C  C12  1  0.95209700  0.60681200  0.50014800  1
  C  C13  1  0.04799900  0.60773400  0.51647200  1
  C  C14  1  0.82704000  0.49820600  0.49794700  1
  C  C15  1  0.17121400  0.49559500  0.49861300  1
  C  C16  1  0.24713000  0.49602300  0.49854000  1
  C  C17  1  0.49641600  0.81219900  0.52887000  1
  C  C18  1  0.50438400  0.18518600  0.46886200  1
  C  C19  1  0.48699800  0.01726200  0.35028700  1
  C  C20  1  0.49412800  0.12195700  0.35915600  1
  C  C21  1  0.51851900  0.13701300  0.56806400  1
  C  C22  1  0.50854200  0.02904000  0.55882100  1
  C  C23  1  0.49143600  0.96990100  0.44823200  1
  C  C24  1  0.48197500  0.86302100  0.43357700  1
  C  C25  1  0.51088600  0.87081700  0.63902200  1
  C  C26  1  0.51460700  0.97709700  0.65577200  1
  C  C27  1  0.41790200  0.40797800  0.01647800  1
  C  C28  1  0.42463600  0.41518900  0.13725900  1
  C  C29  1  0.53451500  0.53642200  0.15305100  1
  C  C30  1  0.52795600  0.53176700  0.03187400  1
  C  C31  1  0.47003200  0.46656600  0.96254500  1
  C  C32  1  0.46509000  0.46135200  0.84113100  1
  C  C33  1  0.57170500  0.58677600  0.85866700  1
  C  C34  1  0.57934400  0.59187700  0.97840400  1
  C  C35  1  0.91474400  0.37258500  0.63812300  1
  C  C36  1  0.09602400  0.49600200  0.71223200  1
  C  C37  1  0.45289900  0.80703700  0.31967300  1
  C  C38  1  0.51896700  0.02715500  0.77672300  1
  C  C39  1  0.49890300  0.15842800  0.24970000  1
  C  C40  1  0.55587100  0.19754800  0.67502900  1
  C  C41  1  0.07105000  0.33610900  0.58848800  1
  C  C42  1  0.62590700  0.65277600  0.80922800  1
  C  C43  1  0.35434400  0.34005200  0.94960100  1
  C  C44  1  0.36711700  0.35362000  0.18709800  1
  C  C45  1  0.59690400  0.60529200  0.22149100  1
  C  C46  1  0.08012400  0.34197200  0.33793100  1
  C  C47  1  0.92274700  0.31926100  0.38063000  1
  C  C48  1  0.90235800  0.46084200  0.28192000  1
  C  C49  1  0.08332600  0.66637900  0.43398100  1
  N  N1  1  0.51428000  0.52248600  0.79097800  1
  N  N2  1  0.48399500  0.47694600  0.20540700  1
  N  N3  1  0.88070900  0.30146600  0.66082100  1
  N  N4  1  0.13116500  0.53490700  0.79969300  1
  N  N5  1  0.42911100  0.76264500  0.22800800  1
  N  N6  1  0.52204300  0.06640100  0.87436700  1
  N  N7  1  0.50395200  0.18606400  0.16074100  1
  N  N8  1  0.58654100  0.24636900  0.76046700  1
  N  N9  1  0.08700900  0.24930400  0.57913500  1
  N  N10  1  0.67006800  0.70625400  0.77053400  1
  N  N11  1  0.30302100  0.28541100  0.89606800  1
  N  N12  1  0.32040500  0.30372000  0.22647900  1
  N  N13  1  0.64743100  0.66110500  0.27522000  1
  N  N14  1  0.11206900  0.26444500  0.30446900  1
  N  N15  1  0.90423800  0.23341500  0.37598500  1
  N  N16  1  0.86812700  0.48656000  0.20016500  1
  N  N17  1  0.11114100  0.71299900  0.36914200  1
  O  O1  1  0.50221200  0.35814300  0.58443400  1
  O  O2  1  0.49712400  0.34252900  0.38398700  1
  O  O3  1  0.38197800  0.50250700  0.59890600  1
  O  O4  1  0.37156900  0.48798800  0.39796000  1
  O  O5  1  0.50026400  0.65704800  0.61288400  1
  O  O6  1  0.49647400  0.64134500  0.41260000  1
  O  O7  1  0.62670100  0.50598700  0.59866600  1
  O  O8  1  0.61625900  0.48917700  0.39750800  1
