data_DB0-m3_o96_o159_f0_fsc.sym.1_repeat
_audit_creation_date              2024-02-23
_audit_creation_method            'Materials Studio'
_symmetry_space_group_name_H-M    'P1'
_symmetry_Int_Tables_number       1
_symmetry_cell_setting            triclinic
loop_
_symmetry_equiv_pos_as_xyz
  x,y,z
_cell_length_a                    13.3308
_cell_length_b                    13.3177
_cell_length_c                    16.2297
_cell_angle_alpha                 94.7311
_cell_angle_beta                  90.0463
_cell_angle_gamma                 90.6151
loop_
_atom_site_label
_atom_site_type_symbol
_atom_site_fract_x
_atom_site_fract_y
_atom_site_fract_z
_atom_site_U_iso_or_equiv
_atom_site_adp_type
_atom_site_occupancy
C1     C     0.82075   0.03076   0.21563   0.00000  Uiso   1.00
C2     C     0.75910   0.07106   0.16063   0.00000  Uiso   1.00
C3     C     0.80957   0.07094   0.08688   0.00000  Uiso   1.00
N1     N     0.90318   0.03528   0.09598   0.00000  Uiso   1.00
C4     C     0.91065   0.01208   0.17562   0.00000  Uiso   1.00
C5     C     0.76733   0.09455   0.01616   0.00000  Uiso   1.00
C6     C     0.80937   0.07171   0.93311   0.00000  Uiso   1.00
C7     C     0.75319   0.05687   0.86160   0.00000  Uiso   1.00
C8     C     0.81729   0.03347   0.79779   0.00000  Uiso   1.00
C9     C     0.91312   0.03555   0.83221   0.00000  Uiso   1.00
N2     N     0.90708   0.06028   0.91463   0.00000  Uiso   1.00
C10    C     0.00807   0.01952   0.78724   0.00000  Uiso   1.00
C11    C     0.09169   0.98847   0.82286   0.00000  Uiso   1.00
C12    C     0.18158   0.96976   0.78285   0.00000  Uiso   1.00
C13    C     0.24320   0.92939   0.83784   0.00000  Uiso   1.00
C14    C     0.19271   0.92950   0.91157   0.00000  Uiso   1.00
N3     N     0.09912   0.96522   0.90248   0.00000  Uiso   1.00
C15    C     0.23494   0.90586   0.98229   0.00000  Uiso   1.00
C16    C     0.19293   0.92879   0.06533   0.00000  Uiso   1.00
C17    C     0.24914   0.94373   0.13681   0.00000  Uiso   1.00
C18    C     0.18507   0.96720   0.20063   0.00000  Uiso   1.00
C19    C     0.08922   0.96506   0.16624   0.00000  Uiso   1.00
N4     N     0.09522   0.94024   0.08383   0.00000  Uiso   1.00
C20    C     0.99429   0.98109   0.21124   0.00000  Uiso   1.00
H1     H     0.69089   0.12024   0.01822   0.00000  Uiso   1.00
H2     H     0.00806   0.02846   0.72155   0.00000  Uiso   1.00
H3     H     0.31137   0.88012   0.98022   0.00000  Uiso   1.00
H4     H     0.99433   0.97220   0.27693   0.00000  Uiso   1.00
H5     H     0.96619   0.07557   0.95578   0.00000  Uiso   1.00
H6     H     0.03610   0.92489   0.04271   0.00000  Uiso   1.00
C21    C     0.35055   0.93651   0.14869   0.00000  Uiso   1.00
C22    C     0.38676   0.95259   0.22829   0.00000  Uiso   1.00
C23    C     0.32390   0.97980   0.29447   0.00000  Uiso   1.00
C24    C     0.22058   0.98725   0.28113   0.00000  Uiso   1.00
C25    C     0.78749   0.00981   0.29291   0.00000  Uiso   1.00
C26    C     0.68982   0.03592   0.31302   0.00000  Uiso   1.00
C27    C     0.63053   0.08462   0.25869   0.00000  Uiso   1.00
C28    C     0.66354   0.10035   0.18083   0.00000  Uiso   1.00
C29    C     0.65179   0.06408   0.84970   0.00000  Uiso   1.00
C30    C     0.61562   0.04807   0.77008   0.00000  Uiso   1.00
C31    C     0.67850   0.02096   0.70390   0.00000  Uiso   1.00
C32    C     0.78182   0.01351   0.71727   0.00000  Uiso   1.00
C33    C     0.21487   0.99077   0.70560   0.00000  Uiso   1.00
C34    C     0.31254   0.96465   0.68549   0.00000  Uiso   1.00
C35    C     0.37180   0.91589   0.73979   0.00000  Uiso   1.00
C36    C     0.33876   0.90009   0.81764   0.00000  Uiso   1.00
H7     H     0.40138   0.91658   0.09838   0.00000  Uiso   1.00
H8     H     0.17006   0.00539   0.33212   0.00000  Uiso   1.00
H9     H     0.83416   0.97357   0.33585   0.00000  Uiso   1.00
H10    H     0.55512   0.10657   0.27591   0.00000  Uiso   1.00
H11    H     0.61427   0.13439   0.13855   0.00000  Uiso   1.00
H12    H     0.60093   0.08394   0.90000   0.00000  Uiso   1.00
H13    H     0.83236   0.99542   0.66629   0.00000  Uiso   1.00
H14    H     0.16823   0.02708   0.66268   0.00000  Uiso   1.00
H15    H     0.44721   0.89394   0.72256   0.00000  Uiso   1.00
H16    H     0.38800   0.86600   0.85990   0.00000  Uiso   1.00
H17    H     0.46589   0.94342   0.23927   0.00000  Uiso   1.00
H18    H     0.53648   0.05720   0.75908   0.00000  Uiso   1.00
O1     O     0.39136   0.07957   0.41340   0.00000  Uiso   1.00
O2     O     0.41452   0.90841   0.39995   0.00000  Uiso   1.00
C37    C     0.37177   0.98954   0.37674   0.00000  Uiso   1.00
O3     O     0.62151   0.92481   0.40710   0.00000  Uiso   1.00
O4     O     0.59896   0.09658   0.42714   0.00000  Uiso   1.00
C38    C     0.64329   0.01793   0.39112   0.00000  Uiso   1.00
O5     O     0.61094   0.92095   0.58511   0.00000  Uiso   1.00
O6     O     0.58811   0.09261   0.59836   0.00000  Uiso   1.00
C39    C     0.63064   0.01120   0.62162   0.00000  Uiso   1.00
O7     O     0.38102   0.07570   0.59150   0.00000  Uiso   1.00
O8     O     0.40329   0.90427   0.57125   0.00000  Uiso   1.00
C40    C     0.35906   0.98273   0.60742   0.00000  Uiso   1.00
Zn1    Zn    0.51607   0.88921   0.48919   0.00000  Uiso   1.00
Zn2    Zn    0.48625   0.11145   0.50929   0.00000  Uiso   1.00
C41    C     0.56635   0.29346   0.52998   0.00000  Uiso   1.00
N5     N     0.47830   0.24328   0.51948   0.00000  Uiso   1.00
C42    C     0.39467   0.29322   0.50283   0.00000  Uiso   1.00
C43    C     0.39834   0.39581   0.49543   0.00000  Uiso   1.00
C44    C     0.48916   0.44885   0.50371   0.00000  Uiso   1.00
C45    C     0.57310   0.39570   0.52278   0.00000  Uiso   1.00
C46    C     0.41986   0.61050   0.47240   0.00000  Uiso   1.00
C47    C     0.49952   0.55199   0.49313   0.00000  Uiso   1.00
C48    C     0.59242   0.59933   0.50423   0.00000  Uiso   1.00
C49    C     0.67478   0.54473   0.52421   0.00000  Uiso   1.00
C50    C     0.66527   0.44328   0.53273   0.00000  Uiso   1.00
C51    C     0.43308   0.71189   0.46661   0.00000  Uiso   1.00
N6     N     0.52335   0.75727   0.47896   0.00000  Uiso   1.00
C52    C     0.60312   0.70221   0.49745   0.00000  Uiso   1.00
H19    H     0.32452   0.25270   0.49249   0.00000  Uiso   1.00
H20    H     0.67479   0.73899   0.51008   0.00000  Uiso   1.00
H21    H     0.74732   0.58110   0.53299   0.00000  Uiso   1.00
H22    H     0.73080   0.40117   0.54763   0.00000  Uiso   1.00
H23    H     0.32842   0.43015   0.48148   0.00000  Uiso   1.00
H24    H     0.34486   0.58177   0.46224   0.00000  Uiso   1.00
H25    H     0.63419   0.25282   0.54028   0.00000  Uiso   1.00
H26    H     0.36719   0.75520   0.45604   0.00000  Uiso   1.00
