data_DB0-m3_o12_o29_f0_pcu.sym.53_repeat
_audit_creation_date              2024-02-23
_audit_creation_method            'Materials Studio'
_symmetry_space_group_name_H-M    'P1'
_symmetry_Int_Tables_number       1
_symmetry_cell_setting            triclinic
loop_
_symmetry_equiv_pos_as_xyz
  x,y,z
_cell_length_a                    10.0016
_cell_length_b                    11.2506
_cell_length_c                    27.6266
_cell_angle_alpha                 89.9793
_cell_angle_beta                  80.7760
_cell_angle_gamma                 92.4452
loop_
_atom_site_label
_atom_site_type_symbol
_atom_site_fract_x
_atom_site_fract_y
_atom_site_fract_z
_atom_site_U_iso_or_equiv
_atom_site_adp_type
_atom_site_occupancy
O1     O     0.44749   0.69505   0.50362   0.00000  Uiso   1.00
O2     O     0.59713   0.31371   0.49384   0.00000  Uiso   1.00
O3     O     0.67706   0.66394   0.48931   0.00000  Uiso   1.00
O4     O     0.36754   0.34483   0.50782   0.00000  Uiso   1.00
C1     C     0.57453   0.73435   0.49578   0.00000  Uiso   1.00
C2     C     0.47008   0.27442   0.50151   0.00000  Uiso   1.00
O5     O     0.40996   0.51895   0.57769   0.00000  Uiso   1.00
O6     O     0.63454   0.48933   0.41960   0.00000  Uiso   1.00
O7     O     0.63950   0.48826   0.56358   0.00000  Uiso   1.00
O8     O     0.40522   0.52096   0.43371   0.00000  Uiso   1.00
C3     C     0.52524   0.50336   0.59327   0.00000  Uiso   1.00
C4     C     0.51932   0.50537   0.40402   0.00000  Uiso   1.00
Zn1    Zn    0.37101   0.52504   0.50798   0.00000  Uiso   1.00
Zn2    Zn    0.67361   0.48373   0.48931   0.00000  Uiso   1.00
C5     C     0.54835   0.60076   0.82081   0.00000  Uiso   1.00
C6     C     0.52248   0.40565   0.17482   0.00000  Uiso   1.00
O9     O     0.57239   0.70206   0.79449   0.00000  Uiso   1.00
O10    O     0.52826   0.30339   0.19940   0.00000  Uiso   1.00
N1     N     0.52574   0.49860   0.79802   0.00000  Uiso   1.00
N2     N     0.51518   0.50865   0.19928   0.00000  Uiso   1.00
C7     C     0.50065   0.39513   0.82282   0.00000  Uiso   1.00
C8     C     0.50766   0.61278   0.17609   0.00000  Uiso   1.00
C9     C     0.64695   0.50103   0.71444   0.00000  Uiso   1.00
C10    C     0.63093   0.47696   0.26888   0.00000  Uiso   1.00
C11    C     0.64703   0.50148   0.66449   0.00000  Uiso   1.00
C12    C     0.63232   0.47671   0.31871   0.00000  Uiso   1.00
C13    C     0.40498   0.50206   0.67868   0.00000  Uiso   1.00
C14    C     0.40294   0.53621   0.33280   0.00000  Uiso   1.00
C15    C     0.40529   0.50015   0.72854   0.00000  Uiso   1.00
C16    C     0.40241   0.53769   0.28292   0.00000  Uiso   1.00
C17    C     0.52611   0.49989   0.74649   0.00000  Uiso   1.00
C18    C     0.51624   0.50787   0.25083   0.00000  Uiso   1.00
C19    C     0.52024   0.49745   0.89777   0.00000  Uiso   1.00
C20    C     0.51420   0.50945   0.09978   0.00000  Uiso   1.00
C21    C     0.54517   0.60177   0.87082   0.00000  Uiso   1.00
C22    C     0.52186   0.40461   0.12501   0.00000  Uiso   1.00
C23    C     0.56847   0.70731   0.89377   0.00000  Uiso   1.00
C24    C     0.53056   0.29835   0.10037   0.00000  Uiso   1.00
C25    C     0.49718   0.39135   0.87385   0.00000  Uiso   1.00
C26    C     0.50571   0.61620   0.12535   0.00000  Uiso   1.00
C27    C     0.52591   0.50233   0.64633   0.00000  Uiso   1.00
C28    C     0.51814   0.50606   0.35099   0.00000  Uiso   1.00
H1     H     0.30890   0.50225   0.66553   0.00000  Uiso   1.00
H2     H     0.31244   0.55976   0.35715   0.00000  Uiso   1.00
H3     H     0.31043   0.49946   0.75362   0.00000  Uiso   1.00
H4     H     0.31190   0.56132   0.26904   0.00000  Uiso   1.00
H5     H     0.59202   0.78935   0.87325   0.00000  Uiso   1.00
H6     H     0.54064   0.21568   0.11909   0.00000  Uiso   1.00
C29    C     0.51764   0.61094   0.02314   0.00000  Uiso   1.00
C30    C     0.50345   0.39607   0.97512   0.00000  Uiso   1.00
C31    C     0.51448   0.39835   0.02500   0.00000  Uiso   1.00
C32    C     0.53208   0.60817   0.97191   0.00000  Uiso   1.00
C33    C     0.51538   0.50628   0.04929   0.00000  Uiso   1.00
C34    C     0.51864   0.50050   0.94828   0.00000  Uiso   1.00
C35    C     0.50186   0.71655   0.04883   0.00000  Uiso   1.00
C36    C     0.47448   0.29125   0.95177   0.00000  Uiso   1.00
C37    C     0.49473   0.72131   0.09913   0.00000  Uiso   1.00
C38    C     0.47027   0.28676   0.90209   0.00000  Uiso   1.00
O11    O     0.50660   0.71210   0.20294   0.00000  Uiso   1.00
O12    O     0.48128   0.29714   0.79678   0.00000  Uiso   1.00
C39    C     0.56176   0.71090   0.94363   0.00000  Uiso   1.00
C40    C     0.52667   0.29484   0.05109   0.00000  Uiso   1.00
H7     H     0.72355   0.45251   0.33191   0.00000  Uiso   1.00
H8     H     0.74291   0.50213   0.64004   0.00000  Uiso   1.00
H9     H     0.72068   0.45395   0.24395   0.00000  Uiso   1.00
H10    H     0.74186   0.50080   0.72844   0.00000  Uiso   1.00
H11    H     0.48554   0.79765   0.03052   0.00000  Uiso   1.00
H12    H     0.44548   0.21074   0.97241   0.00000  Uiso   1.00
H13    H     0.58652   0.79590   0.95855   0.00000  Uiso   1.00
H14    H     0.53970   0.20901   0.03421   0.00000  Uiso   1.00
H15    H     0.64457   0.09937   0.49135   0.00000  Uiso   1.00
H16    H     0.40004   0.90939   0.50603   0.00000  Uiso   1.00
C41    C     0.60443   0.86311   0.49397   0.00000  Uiso   1.00
C42    C     0.44018   0.14565   0.50333   0.00000  Uiso   1.00
C43    C     0.50554   0.94023   0.49975   0.00000  Uiso   1.00
C44    C     0.53907   0.06854   0.49759   0.00000  Uiso   1.00
H17    H     0.33524   0.11306   0.50958   0.00000  Uiso   1.00
H18    H     0.70937   0.89570   0.48766   0.00000  Uiso   1.00
H19    H     0.13941   0.43305   0.46746   0.00000  Uiso   1.00
H20    H     0.90521   0.57576   0.52982   0.00000  Uiso   1.00
N3     N     0.87236   0.45600   0.47681   0.00000  Uiso   1.00
N4     N     0.17225   0.55277   0.52048   0.00000  Uiso   1.00
C45    C     0.94908   0.51352   0.50245   0.00000  Uiso   1.00
C46    C     0.09554   0.49527   0.49483   0.00000  Uiso   1.00
H21    H     0.12471   0.61063   0.54577   0.00000  Uiso   1.00
H22    H     0.91990   0.39812   0.45152   0.00000  Uiso   1.00
C47    C     0.47138   0.84205   0.12169   0.00000  Uiso   1.00
C48    C     0.32487   0.85005   0.14661   0.00000  Uiso   1.00
C49    C     0.30646   0.96789   0.17305   0.00000  Uiso   1.00
C50    C     0.15981   0.97745   0.19677   0.00000  Uiso   1.00
H23    H     0.48936   0.91156   0.09270   0.00000  Uiso   1.00
H24    H     0.54511   0.86638   0.14626   0.00000  Uiso   1.00
H25    H     0.29523   0.77613   0.17313   0.00000  Uiso   1.00
H26    H     0.25813   0.84420   0.11821   0.00000  Uiso   1.00
H27    H     0.33462   0.04218   0.14649   0.00000  Uiso   1.00
H28    H     0.37202   0.97383   0.20183   0.00000  Uiso   1.00
H29    H     0.09326   0.97248   0.16829   0.00000  Uiso   1.00
H30    H     0.14759   0.06382   0.21596   0.00000  Uiso   1.00
H31    H     0.13073   0.90403   0.22369   0.00000  Uiso   1.00
C51    C     0.43377   0.16663   0.88273   0.00000  Uiso   1.00
C52    C     0.28638   0.16004   0.87497   0.00000  Uiso   1.00
C53    C     0.25574   0.04383   0.85024   0.00000  Uiso   1.00
C54    C     0.10774   0.03514   0.84410   0.00000  Uiso   1.00
H32    H     0.44449   0.09664   0.90989   0.00000  Uiso   1.00
H33    H     0.50473   0.14223   0.84965   0.00000  Uiso   1.00
H34    H     0.26429   0.23558   0.85224   0.00000  Uiso   1.00
H35    H     0.22047   0.16418   0.91120   0.00000  Uiso   1.00
H36    H     0.27735   0.96799   0.87303   0.00000  Uiso   1.00
H37    H     0.31983   0.04003   0.81364   0.00000  Uiso   1.00
H38    H     0.04255   0.03774   0.88052   0.00000  Uiso   1.00
H39    H     0.08662   0.95008   0.82591   0.00000  Uiso   1.00
H40    H     0.08512   0.11027   0.82114   0.00000  Uiso   1.00
