# Generated by REPEAT Assigner based on pymatgen
data_DB0-m3_o10_o17_f0_pcu.sym.24
_audit_creation_date              2022-05-24
_audit_creation_method            REPEAT_Assigner
_cell_length_a                    7.764581
_cell_length_b                    8.899971
_cell_length_c                    15.066603
_cell_angle_alpha                 90.005334
_cell_angle_beta                  83.970282
_cell_angle_gamma                 91.448619
_cell_volume                      1035.076125
_symmetry_space_group_name_H-M    P1
_symmetry_Int_Tables_number       1
loop_
    _symmetry_equiv_pos_site_id
    _symmetry_equiv_pos_as_xyz
    1  x,y,z
loop_
    _atom_site_type_symbol
    _atom_site_label
    _atom_site_fract_x
    _atom_site_fract_y
    _atom_site_fract_z
    _atom_type_partial_charge
    O   O1   0.383209  0.735898  0.502430  -0.741735
    O   O2   0.616792  0.264104  0.497570  -0.741739
    O   O3   0.680165  0.709715  0.487552  -0.715107
    O   O4   0.319836  0.290286  0.512447  -0.715107
    C   C1   0.542050  0.792228  0.493879  0.876159
    C   C2   0.457951  0.207773  0.506121  0.876158
    O   O5   0.349627  0.518841  0.640242  -0.690351
    O   O6   0.650374  0.481161  0.359757  -0.690332
    O   O7   0.646532  0.493387  0.624343  -0.623249
    O   O8   0.353469  0.506615  0.375657  -0.623217
    C   C3   0.498681  0.510660  0.673625  0.802282
    C   C4   0.501319  0.489342  0.326374  0.802232
    Zn  Zn1  0.304307  0.517050  0.510208  1.032862
    Zn  Zn2  0.695694  0.482952  0.489792  1.032872
    C   C5   0.363327  0.420406  0.189321  0.275631
    C   C6   0.636674  0.579595  0.810679  0.275670
    C   C7   0.501366  0.483331  0.229207  -0.258604
    C   C8   0.498635  0.516671  0.770793  -0.258633
    C   C9   0.641415  0.544833  0.176610  -0.231049
    C   C10  0.358586  0.455168  0.823390  -0.231050
    C   C11  0.641221  0.550619  0.085238  0.187823
    C   C12  0.358780  0.449383  0.914762  0.187859
    C   C13  0.500280  0.495857  0.045780  0.017643
    C   C14  0.499721  0.504144  0.954220  0.017612
    C   C15  0.360663  0.431621  0.097789  -0.052230
    C   C16  0.639338  0.568381  0.902210  -0.052234
    C   C17  0.781591  0.613054  0.033436  -0.267079
    C   C18  0.218410  0.386947  0.966563  -0.267111
    C   C19  0.781084  0.621772  0.942178  -0.071296
    C   C20  0.218917  0.378230  0.057822  -0.071289
    H   H1   0.750297  0.591656  0.207425  0.164160
    H   H2   0.249704  0.408346  0.792575  0.164155
    H   H3   0.892650  0.655108  0.064345  0.134670
    H   H4   0.107351  0.344893  0.935656  0.134684
    H   H5   0.894296  0.667904  0.902795  0.097741
    H   H6   0.105706  0.332098  0.097206  0.097740
    C   C21  0.567605  0.955535  0.493799  -0.273918
    C   C22  0.432396  0.044467  0.506201  -0.273921
    H   H7   0.697790  0.003933  0.484836  0.165452
    H   H8   0.302211  0.996069  0.515164  0.165452
    N   N1   0.952846  0.461322  0.477466  0.130459
    N   N2   0.047155  0.538679  0.522534  0.130421
    N   N3   0.231282  0.333408  0.240369  -0.559185
    H   H9   0.277912  0.302392  0.299852  0.260085
    H   H10  0.218497  0.231710  0.206892  0.224517
    N   N4   0.768719  0.666594  0.759631  -0.559230
    H   H11  0.722089  0.697610  0.700148  0.260088
    H   H12  0.781503  0.768291  0.793108  0.224527
    N   N5   0.042478  0.385563  0.407586  -0.365909
    H   H13  0.003674  0.428395  0.348532  0.231218
    H   H14  0.002108  0.272828  0.412782  0.249029
    N   N6   0.957523  0.614439  0.592414  -0.365892
    H   H15  0.996326  0.571607  0.651468  0.231243
    H   H16  0.997894  0.727174  0.587217  0.249023
