# generated using pymatgen
data_Cu2H38C57(NO4)2
_symmetry_space_group_name_H-M   'P 1'
_cell_length_a   14.48218000
_cell_length_b   15.13528200
_cell_length_c   15.86145500
_cell_angle_alpha   76.43051500
_cell_angle_beta   103.87908400
_cell_angle_gamma   114.91890100
_symmetry_Int_Tables_number   1
_chemical_formula_structural   Cu2H38C57(NO4)2
_chemical_formula_sum   'Cu2 H38 C57 N2 O8'
_cell_volume   3025.55887607
_cell_formula_units_Z   1
loop_
 _symmetry_equiv_pos_site_id
 _symmetry_equiv_pos_as_xyz
  1  'x, y, z'
loop_
 _atom_site_type_symbol
 _atom_site_label
 _atom_site_symmetry_multiplicity
 _atom_site_fract_x
 _atom_site_fract_y
 _atom_site_fract_z
 _atom_site_occupancy
  Cu  Cu1  1  0.07920800  0.47580100  0.52323200  1
  Cu  Cu2  1  0.91499000  0.52525800  0.47772200  1
  H  H1  1  0.99897300  0.35604800  0.10968100  1
  H  H2  1  0.98345900  0.34867200  0.96665600  1
  H  H3  1  0.86288600  0.53438300  0.89318600  1
  H  H4  1  0.83679800  0.40422800  0.91120800  1
  H  H5  1  0.84029300  0.39370500  0.05630300  1
  H  H6  1  0.85113400  0.51989000  0.03586500  1
  H  H7  1  0.14802900  0.61561600  0.94053900  1
  H  H8  1  0.04337800  0.65748900  0.89882400  1
  H  H9  1  0.13884900  0.63042000  0.07671900  1
  H  H10  1  0.11462000  0.43828800  0.96841100  1
  H  H11  1  0.12424400  0.45555100  0.10807700  1
  H  H12  1  0.02300600  0.65503900  0.03634500  1
  H  H13  1  0.65492500  0.86280200  0.55041800  1
  H  H14  1  0.31947200  0.75977500  0.51089800  1
  H  H15  1  0.06116900  0.83966300  0.44781700  1
  H  H16  1  0.33855900  0.13823200  0.44667400  1
  H  H17  1  0.82002800  0.98924800  0.55945600  1
  H  H18  1  0.93331100  0.16291300  0.55038300  1
  H  H19  1  0.67504500  0.24186600  0.49065700  1
  H  H20  1  0.47519900  0.80570100  0.52598800  1
  H  H21  1  0.51865200  0.19590400  0.46969400  1
  H  H22  1  0.17288900  0.01123700  0.43755400  1
  H  H23  1  0.54732100  0.71080100  0.33617700  1
  H  H24  1  0.27594100  0.54761900  0.46192800  1
  H  H25  1  0.13703000  0.32288700  0.65549000  1
  H  H26  1  0.44308900  0.28994400  0.66626600  1
  H  H27  1  0.85652800  0.67406500  0.34324400  1
  H  H28  1  0.72028300  0.45647600  0.54164200  1
  H  H29  1  0.40756800  0.63294100  0.40913300  1
  H  H30  1  0.58732000  0.37044000  0.59225700  1
  H  H31  1  0.28340400  0.27353100  0.69247300  1
  H  H32  1  0.84765000  0.84963900  0.34456600  1
  H  H33  1  0.85887500  0.98150400  0.21965800  1
  H  H34  1  0.79762000  0.04114700  0.07843800  1
  H  H35  1  0.65894100  0.98650400  0.04886900  1
  H  H36  1  0.73997600  0.94958200  0.00555000  1
  H  H37  1  0.59171700  0.78672200  0.07519700  1
  H  H38  1  0.58088500  0.65384500  0.20097600  1
  C  C1  1  0.87696800  0.31713500  0.51329000  1
  C  C2  1  0.99749300  0.49821900  0.66294200  1
  C  C3  1  0.11735700  0.68427600  0.48755600  1
  C  C4  1  0.99669900  0.50291100  0.33806900  1
  C  C5  1  0.03671200  0.42369100  0.98028700  1
  C  C6  1  0.88892700  0.47587000  0.93332100  1
  C  C7  1  0.88689500  0.47029900  0.02949900  1
  C  C8  1  0.99603900  0.50277100  0.24738900  1
  C  C9  1  0.99781600  0.49949100  0.92113700  1
  C  C10  1  0.04256500  0.42991200  0.07538500  1
  C  C11  1  0.99631700  0.50159400  0.07941500  1
  C  C12  1  0.06035200  0.60394200  0.03789000  1
  C  C13  1  0.06741900  0.60071300  0.94495700  1
  C  C14  1  0.99566400  0.50237200  0.17137800  1
  C  C15  1  0.99827400  0.49818800  0.82941400  1
  C  C16  1  0.99797600  0.49782800  0.75352700  1
  C  C17  1  0.80874200  0.21230400  0.51994900  1
  C  C18  1  0.18555400  0.78910500  0.48054900  1
  C  C19  1  0.78676300  0.04402400  0.54462300  1
  C  C20  1  0.85063300  0.14201900  0.53957800  1
  C  C21  1  0.70264300  0.18367400  0.50573300  1
  C  C22  1  0.63645400  0.08412100  0.51074500  1
  C  C23  1  0.68096300  0.01530500  0.53037000  1
  C  C24  1  0.52782300  0.05132700  0.49667200  1
  C  C25  1  0.46635600  0.95019700  0.50261500  1
  C  C26  1  0.51511400  0.88418900  0.52170300  1
  C  C27  1  0.62030200  0.91660600  0.53556900  1
  C  C28  1  0.47886000  0.11729100  0.47622800  1
  C  C29  1  0.37362100  0.08479800  0.46233200  1
  C  C30  1  0.31312100  0.98619600  0.46835300  1
  C  C31  1  0.35768200  0.91736900  0.48871400  1
  C  C32  1  0.20727500  0.95721500  0.45382900  1
  C  C33  1  0.14366300  0.85935700  0.45977300  1
  C  C34  1  0.29155700  0.81774400  0.49476700  1
  C  C35  1  0.70921200  0.66389000  0.35550000  1
  C  C36  1  0.79208600  0.63650300  0.37889000  1
  C  C37  1  0.71222000  0.51302600  0.48873800  1
  C  C38  1  0.62494600  0.53662800  0.46742800  1
  C  C39  1  0.62587800  0.61502900  0.40106600  1
  C  C40  1  0.53789300  0.48503200  0.51080000  1
  C  C41  1  0.45585900  0.51638700  0.48983200  1
  C  C42  1  0.46334700  0.59948300  0.42701900  1
  C  C43  1  0.54595400  0.64646200  0.38317500  1
  C  C44  1  0.53017600  0.40192200  0.57404000  1
  C  C45  1  0.44652200  0.35393100  0.61707300  1
  C  C46  1  0.36698200  0.38527100  0.59710400  1
  C  C47  1  0.36902900  0.46495700  0.53282900  1
  C  C48  1  0.28417800  0.33485700  0.64125500  1
  C  C49  1  0.20173800  0.36245100  0.62036100  1
  C  C50  1  0.28259700  0.48934200  0.51293800  1
  C  C51  1  0.71246100  0.74370800  0.28148000  1
  C  C52  1  0.79109700  0.83547600  0.28561000  1
  C  C53  1  0.79712900  0.90992300  0.21520800  1
  C  C54  1  0.72506400  0.89269100  0.13979900  1
  C  C55  1  0.73089600  0.97261200  0.06345400  1
  C  C56  1  0.64745900  0.80057700  0.13479000  1
  C  C57  1  0.64142500  0.72611300  0.20534200  1
  N  N1  1  0.79204600  0.56187000  0.44416800  1
  N  N2  1  0.20238400  0.43943400  0.55699200  1
  O  O1  1  0.97677500  0.34092300  0.52685100  1
  O  O2  1  0.83555600  0.38298900  0.49360500  1
  O  O3  1  0.07026300  0.48096400  0.64277400  1
  O  O4  1  0.92456000  0.51644300  0.60410900  1
  O  O5  1  0.15848300  0.61816600  0.50743000  1
  O  O6  1  0.01748200  0.66018100  0.47396900  1
  O  O7  1  0.06968200  0.48474400  0.39678100  1
  O  O8  1  0.92385200  0.52011200  0.35810800  1
