# generated using pymatgen
data_Fe2H9C38Br3(NO4)4
_symmetry_space_group_name_H-M   'P 1'
_cell_length_a   13.16453200
_cell_length_b   9.38763200
_cell_length_c   19.74276000
_cell_angle_alpha   85.54316300
_cell_angle_beta   98.48171200
_cell_angle_gamma   112.18950900
_symmetry_Int_Tables_number   1
_chemical_formula_structural   Fe2H9C38Br3(NO4)4
_chemical_formula_sum   'Fe2 H9 C38 Br3 N4 O16'
_cell_volume   2233.83266898
_cell_formula_units_Z   1
loop_
 _symmetry_equiv_pos_site_id
 _symmetry_equiv_pos_as_xyz
  1  'x, y, z'
loop_
 _atom_site_type_symbol
 _atom_site_label
 _atom_site_symmetry_multiplicity
 _atom_site_fract_x
 _atom_site_fract_y
 _atom_site_fract_z
 _atom_site_occupancy
  Fe  Fe1  1  0.48972000  0.99189900  0.14084600  1
  Fe  Fe2  1  0.50629600  0.00397100  0.86003400  1
  H  H1  1  0.10924600  0.96141800  0.83239300  1
  H  H2  1  0.92846200  0.95951500  0.82118400  1
  H  H3  1  0.77688700  0.97575400  0.86953000  1
  H  H4  1  0.22092200  0.02656500  0.13149100  1
  H  H5  1  0.06982800  0.04472700  0.17978200  1
  H  H6  1  0.88972300  0.04499300  0.16848400  1
  H  H7  1  0.50011500  0.54372000  0.83613000  1
  H  H8  1  0.51021700  0.29414400  0.66719700  1
  H  H9  1  0.49967700  0.45405500  0.16725700  1
  C  C1  1  0.21626000  0.98030700  0.92683400  1
  C  C2  1  0.11863200  0.97203500  0.88726600  1
  C  C3  1  0.03242000  0.97950700  0.91668700  1
  C  C4  1  0.93663200  0.97301500  0.87583600  1
  C  C5  1  0.85027400  0.98347300  0.90400400  1
  C  C6  1  0.22566100  0.99144600  0.99755600  1
  C  C7  1  0.13837000  0.00002300  0.02713600  1
  C  C8  1  0.04214400  0.99539000  0.98627200  1
  C  C9  1  0.95592500  0.00823700  0.01473300  1
  C  C10  1  0.85951500  0.00292600  0.97390500  1
  C  C11  1  0.77207700  0.01104500  0.00349600  1
  C  C12  1  0.14760600  0.01932700  0.09703800  1
  C  C13  1  0.06155000  0.03089000  0.12514800  1
  C  C14  1  0.96584100  0.02478000  0.08427900  1
  C  C15  1  0.87994600  0.03340500  0.11365700  1
  C  C16  1  0.78201900  0.02425300  0.07418300  1
  C  C17  1  0.69050700  0.02231500  0.10968300  1
  C  C18  1  0.50132100  0.72429800  0.19951400  1
  C  C19  1  0.33085000  0.01203000  0.04009900  1
  C  C20  1  0.48262500  0.19306700  0.23284700  1
  C  C21  1  0.51232800  0.80153100  0.76846600  1
  C  C22  1  0.66643800  0.98806400  0.96099200  1
  C  C23  1  0.50696300  0.27661100  0.80416800  1
  C  C24  1  0.30807300  0.98321000  0.89146600  1
  C  C25  1  0.50614400  0.40490400  0.75688500  1
  C  C26  1  0.50928400  0.39715900  0.68754400  1
  C  C27  1  0.50644600  0.51847600  0.64359800  1
  C  C28  1  0.50717900  0.65167900  0.66994100  1
  C  C29  1  0.50454500  0.65915100  0.73913600  1
  C  C30  1  0.50103900  0.53490000  0.78200800  1
  C  C31  1  0.49578000  0.48370200  0.43447200  1
  C  C32  1  0.50223700  0.50494600  0.56962100  1
  C  C33  1  0.48789100  0.34071600  0.33246600  1
  C  C34  1  0.49233100  0.33548500  0.26335700  1
  C  C35  1  0.49970400  0.46251500  0.22151700  1
  C  C36  1  0.50007600  0.59528300  0.24752300  1
  C  C37  1  0.50041800  0.60333400  0.31764900  1
  C  C38  1  0.49446900  0.47567500  0.36021500  1
  Br  Br1  1  0.47266100  0.16004900  0.38855700  1
  Br  Br2  1  0.52356200  0.79485000  0.35732900  1
  Br  Br3  1  0.51418000  0.82823500  0.61256000  1
  N  N1  1  0.44645900  0.57382800  0.52518200  1
  N  N2  1  0.44317800  0.56329600  0.45851200  1
  N  N3  1  0.54976200  0.41204900  0.47895300  1
  N  N4  1  0.55251600  0.42178800  0.54574100  1
  O  O1  1  0.59904400  0.03049000  0.07611600  1
  O  O2  1  0.52375500  0.72270100  0.13705500  1
  O  O3  1  0.69822900  0.00507800  0.17661900  1
  O  O4  1  0.47464300  0.83704000  0.21657500  1
  O  O5  1  0.33926100  0.90739900  0.08645800  1
  O  O6  1  0.41583500  0.14126300  0.03502400  1
  O  O7  1  0.54121200  0.19844900  0.18362100  1
  O  O8  1  0.40669400  0.06206900  0.24919100  1
  O  O9  1  0.45573500  0.79592000  0.81872700  1
  O  O10  1  0.58634200  0.93301200  0.75075200  1
  O  O11  1  0.65685600  0.09129200  0.91420600  1
  O  O12  1  0.58251600  0.85765500  0.96626000  1
  O  O13  1  0.30255900  0.00746200  0.82490200  1
  O  O14  1  0.52036400  0.15619600  0.78327400  1
  O  O15  1  0.39698300  0.96649300  0.92473200  1
  O  O16  1  0.49279400  0.28081000  0.86829200  1
