# Generated by REPEAT Assigner based on pymatgen
data_DB0-m3_o11_o27_f0_nbo.sym.111_sqe
_audit_creation_date              2022-05-24
_audit_creation_method            REPEAT_Assigner
_cell_length_a                    31.431779
_cell_length_b                    31.634603
_cell_length_c                    24.899148
_cell_angle_alpha                 90.000000
_cell_angle_beta                  129.122117
_cell_angle_gamma                 90.000000
_cell_volume                      19207.340251
_symmetry_space_group_name_H-M    P1
_symmetry_Int_Tables_number       1
loop_
    _symmetry_equiv_pos_site_id
    _symmetry_equiv_pos_as_xyz
    1  x,y,z
loop_
    _atom_site_type_symbol
    _atom_site_label
    _atom_site_fract_x
    _atom_site_fract_y
    _atom_site_fract_z
    _atom_type_partial_charge
    O   O1    0.820455  0.758254  0.503836  -0.688914
    O   O2    0.179545  0.758254  0.496164  -0.688915
    O   O3    0.320455  0.258254  0.503836  -0.688891
    O   O4    0.679545  0.258254  0.496164  -0.688916
    O   O5    0.771214  0.815368  0.496399  -0.697713
    O   O6    0.228786  0.815368  0.503601  -0.697713
    O   O7    0.271214  0.315368  0.496399  -0.697488
    O   O8    0.728786  0.315368  0.503601  -0.697714
    C   C1    0.811166  0.799000  0.499644  0.739059
    C   C2    0.188834  0.799000  0.500356  0.739068
    C   C3    0.311166  0.299000  0.499644  0.738941
    C   C4    0.688834  0.299000  0.500356  0.739060
    O   O9    0.719093  0.720307  0.398281  -0.715619
    O   O10   0.280907  0.720307  0.601720  -0.715614
    O   O11   0.219093  0.220307  0.398281  -0.715587
    O   O12   0.780907  0.220307  0.601720  -0.715620
    O   O13   0.669891  0.776447  0.393775  -0.698930
    O   O14   0.330109  0.776447  0.606226  -0.698918
    O   O15   0.169891  0.276447  0.393775  -0.698747
    O   O16   0.830109  0.276447  0.606226  -0.698913
    C   C5    0.679706  0.748502  0.363902  0.711663
    C   C6    0.320294  0.748502  0.636098  0.711656
    C   C7    0.179706  0.248502  0.363902  0.711578
    C   C8    0.820294  0.248502  0.636098  0.711658
    Zn  Zn1   0.775760  0.711202  0.501814  1.322013
    Zn  Zn2   0.224240  0.711202  0.498187  1.322012
    Zn  Zn3   0.275760  0.211202  0.501814  1.322026
    Zn  Zn4   0.724240  0.211202  0.498187  1.322024
    Zn  Zn5   0.713793  0.786428  0.496575  1.271641
    Zn  Zn6   0.286207  0.786428  0.503426  1.271633
    Zn  Zn7   0.213793  0.286428  0.496575  1.271264
    Zn  Zn8   0.786207  0.286428  0.503426  1.271625
    O   O17   0.718270  0.682353  0.501934  -0.703797
    O   O18   0.281730  0.682353  0.498067  -0.703796
    O   O19   0.218270  0.182353  0.501934  -0.703769
    O   O20   0.781730  0.182353  0.498067  -0.703803
    O   O21   0.668831  0.739341  0.493900  -0.569925
    O   O22   0.331169  0.739341  0.506101  -0.569923
    O   O23   0.168831  0.239341  0.493900  -0.569699
    O   O24   0.831169  0.239341  0.506101  -0.569925
    O   O25   0.819787  0.721425  0.604653  -0.684484
    O   O26   0.180213  0.721425  0.395347  -0.684494
    O   O27   0.319787  0.221425  0.604653  -0.684498
    O   O28   0.680213  0.221425  0.395347  -0.684502
    O   O29   0.770398  0.777112  0.600047  -0.683557
    O   O30   0.229602  0.777112  0.399953  -0.683538
    O   O31   0.270398  0.277112  0.600047  -0.683513
    O   O32   0.729602  0.277112  0.399953  -0.683533
    C   C9    0.677761  0.698564  0.497589  0.562040
    C   C10   0.322239  0.698564  0.502412  0.562032
    C   C11   0.177761  0.198564  0.497589  0.561922
    C   C12   0.822239  0.198564  0.502412  0.562036
    C   C13   0.810312  0.749423  0.634852  0.643483
    C   C14   0.189689  0.749423  0.365148  0.643472
    C   C15   0.310312  0.249423  0.634852  0.643562
    C   C16   0.689689  0.249423  0.365148  0.643479
    C   C17   0.635326  0.785748  0.251454  -0.045691
    C   C18   0.364674  0.785748  0.748547  -0.045659
    C   C19   0.135326  0.285748  0.251454  -0.045678
    C   C20   0.864674  0.285748  0.748547  -0.045669
    C   C21   0.598978  0.784588  0.180037  0.167615
    C   C22   0.401022  0.784588  0.819963  0.167594
    C   C23   0.098978  0.284588  0.180037  0.167624
    C   C24   0.901022  0.284588  0.819963  0.167589
    H   H1    0.591030  0.813453  0.151872  0.018182
    H   H2    0.408970  0.813453  0.848128  0.018184
    H   H3    0.091030  0.313453  0.151872  0.018163
    H   H4    0.908970  0.313453  0.848128  0.018188
    C   C25   0.574268  0.747182  0.145052  -0.587529
    C   C26   0.425732  0.747182  0.854948  -0.587518
    C   C27   0.074267  0.247182  0.145052  -0.587511
    C   C28   0.925732  0.247182  0.854948  -0.587515
    C   C29   0.586619  0.710381  0.182104  0.172210
    C   C30   0.413381  0.710381  0.817897  0.172199
    C   C31   0.086619  0.210381  0.182104  0.172195
    C   C32   0.913381  0.210381  0.817897  0.172203
    H   H5    0.568092  0.680647  0.156114  0.021903
    H   H6    0.431908  0.680647  0.843886  0.021910
    H   H7    0.068092  0.180647  0.156114  0.021901
    H   H8    0.931908  0.180647  0.843886  0.021907
    C   C33   0.621793  0.711410  0.253376  -0.258294
    C   C34   0.378207  0.711410  0.746625  -0.258283
    C   C35   0.121793  0.211410  0.253376  -0.258231
    C   C36   0.878207  0.211410  0.746625  -0.258285
    H   H9    0.629884  0.682657  0.281892  0.154651
    H   H10   0.370116  0.682657  0.718109  0.154645
    H   H11   0.129884  0.182657  0.281892  0.154639
    H   H12   0.870116  0.182657  0.718109  0.154646
    C   C37   0.645185  0.748947  0.288445  0.100937
    C   C38   0.354815  0.748947  0.711555  0.100921
    C   C39   0.145185  0.248947  0.288445  0.100846
    C   C40   0.854815  0.248947  0.711555  0.100923
    N   N1    0.517503  0.710069  0.034223  -0.352593
    N   N2    0.482497  0.710069  0.965777  -0.352604
    N   N3    0.017503  0.210069  0.034223  -0.352590
    N   N4    0.982497  0.210069  0.965777  -0.352604
    C   C41   0.464478  0.746853  0.930804  0.955558
    C   C42   0.535522  0.746853  0.069197  0.955553
    C   C43   0.964478  0.246853  0.930804  0.955560
    C   C44   0.035522  0.246853  0.069197  0.955533
    N   N5    0.482425  0.783568  0.965835  -0.355138
    N   N6    0.517575  0.783568  0.034165  -0.355149
    N   N7    0.982425  0.283568  0.965835  -0.355151
    N   N8    0.017575  0.283568  0.034165  -0.355128
    C   C45   0.869229  0.896516  0.476932  -0.177266
    C   C46   0.130772  0.896516  0.523069  -0.177266
    C   C47   0.369229  0.396516  0.476932  -0.177404
    C   C48   0.630772  0.396516  0.523069  -0.177410
    C   C49   0.922393  0.904634  0.529094  -0.041904
    C   C50   0.077607  0.904634  0.470907  -0.041937
    C   C51   0.422393  0.404634  0.529094  -0.041696
    C   C52   0.577607  0.404634  0.470907  -0.041893
    H   H13   0.847948  0.914345  0.429253  0.153495
    H   H14   0.152052  0.914345  0.570747  0.153496
    H   H15   0.347948  0.414345  0.429253  0.153555
    H   H16   0.652052  0.414345  0.570747  0.153536
    C   C53   0.835444  0.868412  0.483567  0.026779
    C   C54   0.164556  0.868412  0.516434  0.026796
    C   C55   0.335444  0.368412  0.483567  0.026776
    C   C56   0.664556  0.368412  0.516434  0.026867
    C   C57   0.846347  0.827220  0.496281  -0.233944
    C   C58   0.153654  0.827220  0.503719  -0.233946
    C   C59   0.346346  0.327220  0.496281  -0.233920
    C   C60   0.653654  0.327220  0.503719  -0.233949
    H   H17   0.798248  0.881197  0.471320  0.106179
    H   H18   0.201752  0.881197  0.528681  0.106170
    H   H19   0.298248  0.381197  0.471320  0.106158
    H   H20   0.701752  0.381197  0.528681  0.106162
    H   H21   0.880494  0.813807  0.501469  0.140763
    H   H22   0.119506  0.813807  0.498531  0.140752
    H   H23   0.380494  0.313807  0.501469  0.140755
    H   H24   0.619506  0.313807  0.498531  0.140752
    C   C61   0.830277  0.756989  0.749572  -0.074775
    C   C62   0.169723  0.756989  0.250429  -0.074770
    C   C63   0.330277  0.256989  0.749572  -0.074617
    C   C64   0.669723  0.256989  0.250429  -0.074751
    C   C65   0.868470  0.757892  0.821124  0.135418
    C   C66   0.131531  0.757892  0.178876  0.135389
    C   C67   0.368470  0.257892  0.821124  0.135356
    C   C68   0.631531  0.257892  0.178876  0.135360
    H   H25   0.854687  0.762374  0.850955  0.006735
    H   H26   0.145314  0.762373  0.149046  0.006744
    H   H27   0.354686  0.262374  0.850955  0.006749
    H   H28   0.645314  0.262373  0.149045  0.006756
    C   C69   0.923717  0.752658  0.854746  -0.549345
    C   C70   0.076283  0.752658  0.145255  -0.549341
    C   C71   0.423717  0.252658  0.854746  -0.549304
    C   C72   0.576283  0.252658  0.145255  -0.549320
    C   C73   0.940839  0.746243  0.816189  0.182666
    C   C74   0.059161  0.746244  0.183812  0.182680
    C   C75   0.440839  0.246243  0.816189  0.182633
    C   C76   0.559161  0.246244  0.183812  0.182678
    H   H29   0.983693  0.741744  0.840923  0.018368
    H   H30   0.016308  0.741744  0.159078  0.018365
    H   H31   0.483693  0.241744  0.840923  0.018371
    H   H32   0.516308  0.241744  0.159078  0.018364
    C   C77   0.903130  0.744931  0.745009  -0.308115
    C   C78   0.096870  0.744931  0.254991  -0.308104
    C   C79   0.403130  0.244931  0.745009  -0.308040
    C   C80   0.596870  0.244931  0.254991  -0.308109
    H   H33   0.917437  0.740045  0.715794  0.170575
    H   H34   0.082563  0.740045  0.284206  0.170571
    H   H35   0.417437  0.240045  0.715794  0.170562
    H   H36   0.582563  0.240045  0.284206  0.170574
    C   C81   0.847916  0.750746  0.710923  0.189653
    C   C82   0.152084  0.750746  0.289078  0.189656
    C   C83   0.347916  0.250746  0.710923  0.189485
    C   C84   0.652084  0.250745  0.289078  0.189649
    N   N9    0.017745  0.753080  0.963306  -0.367603
    N   N10   0.982256  0.753080  0.036694  -0.367616
    N   N11   0.517745  0.253080  0.963306  -0.367591
    N   N12   0.482256  0.253080  0.036694  -0.367604
    N   N13   0.053641  0.753171  0.031690  -0.331851
    N   N14   0.946359  0.753171  0.968310  -0.331850
    N   N15   0.553641  0.253171  0.031690  -0.331849
    N   N16   0.446359  0.253171  0.968310  -0.331850
    C   C85   0.036364  0.753104  0.069260  0.942857
    C   C86   0.963636  0.753104  0.930740  0.942856
    C   C87   0.536364  0.253104  0.069260  0.942836
    C   C88   0.463636  0.253104  0.930740  0.942833
    C   C89   0.626786  0.598845  0.527234  0.005567
    C   C90   0.373214  0.598845  0.472766  0.005532
    C   C91   0.126786  0.098845  0.527234  0.005508
    C   C92   0.873214  0.098845  0.472766  0.005537
    C   C93   0.576869  0.585709  0.472950  -0.226553
    C   C94   0.423132  0.585709  0.527050  -0.226507
    C   C95   0.076869  0.085709  0.472950  -0.226560
    C   C96   0.923132  0.085709  0.527050  -0.226521
    H   H37   0.648308  0.583176  0.576799  0.120890
    H   H38   0.351692  0.583176  0.423201  0.120894
    H   H39   0.148308  0.083176  0.576799  0.120891
    H   H40   0.851692  0.083176  0.423201  0.120893
    H   H41   0.557202  0.598851  0.422023  0.137996
    H   H42   0.442799  0.598851  0.577978  0.137982
    H   H43   0.057202  0.098851  0.422023  0.137987
    H   H44   0.942799  0.098851  0.577978  0.137987
    C   C97   0.657672  0.630211  0.520493  -0.250723
    C   C98   0.342328  0.630211  0.479508  -0.250723
    C   C99   0.157672  0.130212  0.520493  -0.250587
    C   C100  0.842328  0.130211  0.479508  -0.250719
    C   C101  0.640847  0.669902  0.497277  0.168072
    C   C102  0.359153  0.669902  0.502723  0.168070
    C   C103  0.140847  0.169902  0.497277  0.167973
    C   C104  0.859153  0.169902  0.502723  0.168070
    H   H45   0.699052  0.621311  0.542444  0.156637
    H   H46   0.300948  0.621311  0.457556  0.156645
    H   H47   0.199052  0.121311  0.542444  0.156602
    H   H48   0.800948  0.121311  0.457556  0.156643
    O   O33   0.428136  0.539631  0.455514  -0.711807
    O   O34   0.571864  0.539631  0.544486  -0.711831
    O   O35   0.928136  0.039631  0.455514  -0.711792
    O   O36   0.071864  0.039631  0.544486  -0.711802
    O   O37   0.498475  0.538475  0.573533  -0.708425
    O   O38   0.501525  0.538475  0.426468  -0.708427
    O   O39   0.998475  0.038475  0.573533  -0.708412
    O   O40   0.001525  0.038475  0.426468  -0.708416
    C   C105  0.451317  0.552951  0.518345  0.757739
    C   C106  0.548683  0.552951  0.481655  0.757750
    C   C107  0.951317  0.052951  0.518345  0.757720
    C   C108  0.048683  0.052951  0.481655  0.757763
    O   O41   0.928150  0.949340  0.455711  -0.714778
    O   O42   0.071850  0.949340  0.544289  -0.714782
    O   O43   0.428150  0.449340  0.455711  -0.714780
    O   O44   0.571850  0.449340  0.544289  -0.714824
    O   O45   0.998416  0.950560  0.573437  -0.646267
    O   O46   0.001585  0.950560  0.426564  -0.646270
    O   O47   0.498416  0.450560  0.573437  -0.646252
    O   O48   0.501585  0.450560  0.426564  -0.646293
    C   C109  0.951310  0.935973  0.518698  0.653206
    C   C110  0.048690  0.935973  0.481303  0.653235
    C   C111  0.451310  0.435973  0.518698  0.653060
    C   C112  0.548690  0.435973  0.481303  0.653334
    Zn  Zn9   0.452911  0.494456  0.422941  1.315689
    Zn  Zn10  0.547089  0.494456  0.577060  1.315704
    Zn  Zn11  0.952911  0.994456  0.422941  1.315668
    Zn  Zn12  0.047089  0.994456  0.577060  1.315675
    C   C113  0.664450  0.826745  0.285068  -0.173528
    C   C114  0.699708  0.837594  0.266207  0.078992
    C   C115  0.728791  0.873128  0.289690  -0.505302
    H   H49   0.691425  0.826039  0.342071  0.126288
    H   H50   0.633538  0.852031  0.266362  0.092804
    H   H51   0.702679  0.816297  0.234589  0.068127
    H   H52   0.726576  0.894365  0.322027  0.187580
    H   H53   0.754972  0.880822  0.276754  0.166956
    C   C116  0.335550  0.826745  0.714932  -0.173556
    C   C117  0.300292  0.837594  0.733793  0.079000
    C   C118  0.271209  0.873128  0.710310  -0.505305
    H   H54   0.308575  0.826039  0.657929  0.126294
    H   H55   0.366462  0.852031  0.733638  0.092808
    H   H56   0.297321  0.816297  0.765411  0.068124
    H   H57   0.273424  0.894365  0.677974  0.187585
    H   H58   0.245028  0.880822  0.723246  0.166952
    C   C119  0.164450  0.326745  0.285068  -0.173498
    C   C120  0.199708  0.337594  0.266207  0.079053
    C   C121  0.228791  0.373128  0.289690  -0.505315
    H   H59   0.191425  0.326039  0.342071  0.126248
    H   H60   0.133538  0.352031  0.266362  0.092789
    H   H61   0.202679  0.316297  0.234589  0.068107
    H   H62   0.226576  0.394365  0.322027  0.187577
    H   H63   0.254972  0.380822  0.276754  0.166950
    C   C122  0.835550  0.326745  0.714932  -0.173527
    C   C123  0.800292  0.337594  0.733793  0.078985
    C   C124  0.771209  0.373128  0.710310  -0.505298
    H   H64   0.808575  0.326039  0.657929  0.126285
    H   H65   0.866462  0.352031  0.733638  0.092802
    H   H66   0.797321  0.316297  0.765411  0.068129
    H   H67   0.773424  0.394365  0.677974  0.187580
    H   H68   0.745028  0.380822  0.723246  0.166951
    C   C125  0.587939  0.687793  0.476107  -0.025297
    C   C126  0.550501  0.696550  0.400179  -0.111202
    C   C127  0.533172  0.735603  0.376041  -0.372436
    H   H69   0.596579  0.717406  0.505192  0.070971
    H   H70   0.567020  0.666544  0.488061  0.046056
    H   H71   0.537457  0.670754  0.364162  0.104091
    H   H72   0.545794  0.761984  0.410969  0.149733
    H   H73   0.506198  0.741205  0.320700  0.144920
    C   C128  0.412061  0.687793  0.523893  -0.025268
    C   C129  0.449500  0.696550  0.599821  -0.111199
    C   C130  0.466828  0.735603  0.623959  -0.372446
    H   H74   0.403421  0.717406  0.494808  0.070967
    H   H75   0.432980  0.666544  0.511940  0.046042
    H   H76   0.462543  0.670754  0.635839  0.104090
    H   H77   0.454207  0.761984  0.589032  0.149739
    H   H78   0.493802  0.741205  0.679301  0.144919
    C   C131  0.087939  0.187793  0.476107  -0.025232
    C   C132  0.050501  0.196550  0.400179  -0.111190
    C   C133  0.033172  0.235603  0.376041  -0.372541
    H   H79   0.096579  0.217406  0.505192  0.070933
    H   H80   0.067020  0.166545  0.488061  0.046061
    H   H81   0.037457  0.170754  0.364161  0.104102
    H   H82   0.045793  0.261984  0.410969  0.149768
    H   H83   0.006198  0.241205  0.320700  0.144950
    C   C134  0.912061  0.187793  0.523893  -0.025270
    C   C135  0.949500  0.196550  0.599821  -0.111204
    C   C136  0.966828  0.235603  0.623959  -0.372441
    H   H84   0.903421  0.217406  0.494808  0.070966
    H   H85   0.932980  0.166544  0.511940  0.046046
    H   H86   0.962543  0.170754  0.635839  0.104089
    H   H87   0.954207  0.261983  0.589032  0.149742
    H   H88   0.993802  0.241205  0.679301  0.144916
    C   C137  0.951669  0.885932  0.600087  0.031881
    C   C138  0.928097  0.902735  0.632317  -0.011256
    C   C139  0.946192  0.888419  0.693676  -0.454358
    H   H89   0.995897  0.893765  0.634545  0.055831
    H   H90   0.949265  0.851051  0.597716  0.047294
    H   H91   0.896286  0.926660  0.605968  0.087265
    H   H92   0.977988  0.864493  0.720322  0.171631
    H   H93   0.929046  0.900622  0.717066  0.156506
    C   C140  0.048331  0.885932  0.399913  0.031903
    C   C141  0.071904  0.902735  0.367684  -0.011253
    C   C142  0.053808  0.888419  0.306324  -0.454372
    H   H94   0.004104  0.893765  0.365455  0.055827
    H   H95   0.050736  0.851052  0.402285  0.047289
    H   H96   0.103715  0.926660  0.394033  0.087266
    H   H97   0.022012  0.864494  0.279679  0.171641
    H   H98   0.070955  0.900623  0.282935  0.156505
    C   C143  0.451669  0.385932  0.600087  0.031944
    C   C144  0.428097  0.402735  0.632317  -0.011312
    C   C145  0.446192  0.388419  0.693676  -0.454348
    H   H99   0.495897  0.393765  0.634545  0.055815
    H   H100  0.449265  0.351051  0.597716  0.047255
    H   H101  0.396286  0.426660  0.605968  0.087276
    H   H102  0.477988  0.364493  0.720322  0.171634
    H   H103  0.429046  0.400622  0.717066  0.156506
    C   C146  0.548331  0.385932  0.399913  0.031971
    C   C147  0.571904  0.402735  0.367684  -0.011321
    C   C148  0.553808  0.388419  0.306324  -0.454333
    H   H104  0.504104  0.393765  0.365455  0.055803
    H   H105  0.550736  0.351052  0.402285  0.047266
    H   H106  0.603715  0.426660  0.394033  0.087276
    H   H107  0.522012  0.364494  0.279679  0.171632
    H   H108  0.570954  0.400623  0.282935  0.156502
    C   C149  0.770906  0.760136  0.717176  -0.205558
    C   C150  0.742868  0.718914  0.685363  0.134694
    C   C151  0.690775  0.714028  0.658203  -0.533320
    H   H109  0.750249  0.785942  0.678576  0.106440
    H   H110  0.767115  0.767665  0.757449  0.121955
    H   H111  0.765192  0.692488  0.686107  0.054418
    H   H112  0.668334  0.740164  0.657909  0.186736
    H   H113  0.670766  0.683761  0.636724  0.156405
    C   C152  0.229095  0.760135  0.282824  -0.205570
    C   C153  0.257132  0.718913  0.314637  0.134720
    C   C154  0.309225  0.714027  0.341797  -0.533349
    H   H114  0.249752  0.785942  0.321425  0.106429
    H   H115  0.232885  0.767664  0.242551  0.121965
    H   H116  0.234808  0.692488  0.313893  0.054414
    H   H117  0.331666  0.740164  0.342091  0.186740
    H   H118  0.329233  0.683760  0.363276  0.156418
    C   C155  0.270906  0.260136  0.717176  -0.205768
    C   C156  0.242868  0.218914  0.685363  0.134749
    C   C157  0.190775  0.214028  0.658203  -0.533352
    H   H119  0.250249  0.285942  0.678576  0.106507
    H   H120  0.267115  0.267665  0.757450  0.121994
    H   H121  0.265192  0.192488  0.686107  0.054420
    H   H122  0.168334  0.240164  0.657909  0.186752
    H   H123  0.170766  0.183761  0.636724  0.156412
    C   C158  0.729095  0.260135  0.282824  -0.205575
    C   C159  0.757132  0.218913  0.314637  0.134713
    C   C160  0.809225  0.214027  0.341797  -0.533343
    H   H124  0.749752  0.285942  0.321425  0.106429
    H   H125  0.732885  0.267664  0.242551  0.121964
    H   H126  0.734808  0.192488  0.313893  0.054415
    H   H127  0.831666  0.240164  0.342091  0.186744
    H   H128  0.829233  0.183760  0.363276  0.156415
