# generated using pymatgen
data_ZnH2C13(NO)4
_symmetry_space_group_name_H-M   'P 1'
_cell_length_a   9.77476500
_cell_length_b   11.00728700
_cell_length_c   14.08681900
_cell_angle_alpha   89.99488300
_cell_angle_beta   85.31830400
_cell_angle_gamma   90.00394500
_symmetry_Int_Tables_number   1
_chemical_formula_structural   ZnH2C13(NO)4
_chemical_formula_sum   'Zn2 H4 C26 N8 O8'
_cell_volume   1510.59521945
_cell_formula_units_Z   2
loop_
 _symmetry_equiv_pos_site_id
 _symmetry_equiv_pos_as_xyz
  1  'x, y, z'
loop_
 _atom_site_type_symbol
 _atom_site_label
 _atom_site_symmetry_multiplicity
 _atom_site_fract_x
 _atom_site_fract_y
 _atom_site_fract_z
 _atom_site_occupancy
  Zn  Zn1  1  0.34454100  0.49758700  0.49952600  1
  Zn  Zn2  1  0.65546000  0.50241300  0.50047400  1
  H  H1  1  0.87997700  0.37125000  0.39379300  1
  H  H2  1  0.12002400  0.62875000  0.60620700  1
  H  H3  1  0.70786500  0.88413400  0.52552000  1
  H  H4  1  0.29213600  0.11586600  0.47448000  1
  C  C1  1  0.49624500  0.73853300  0.49899800  1
  C  C2  1  0.50375600  0.26146700  0.50100200  1
  C  C3  1  0.47649900  0.50063400  0.68618100  1
  C  C4  1  0.52350200  0.49936600  0.31381900  1
  C  C5  1  0.93249200  0.42893100  0.44117200  1
  C  C6  1  0.06750900  0.57107000  0.55882800  1
  C  C7  1  0.07364400  0.42443900  0.43961300  1
  C  C8  1  0.92635700  0.57556200  0.56038700  1
  C  C9  1  0.53576100  0.49920500  0.21161100  1
  C  C10  1  0.46424000  0.50079500  0.78839000  1
  C  C11  1  0.55637500  0.49909100  0.02336400  1
  C  C12  1  0.44362600  0.50091000  0.97663600  1
  C  C13  1  0.45462100  0.50086800  0.87421600  1
  C  C14  1  0.54538000  0.49913200  0.12578400  1
  C  C15  1  0.61544800  0.93368400  0.51367900  1
  C  C16  1  0.38455300  0.06631600  0.48632100  1
  C  C17  1  0.62135800  0.05883200  0.51515900  1
  C  C18  1  0.37864300  0.94116900  0.48484200  1
  C  C19  1  0.50484000  0.12711500  0.50104500  1
  C  C20  1  0.49516100  0.87288500  0.49895500  1
  C  C21  1  0.14844300  0.34370400  0.37439400  1
  C  C22  1  0.85155800  0.65629600  0.62560600  1
  C  C23  1  0.31068000  0.50287500  0.02849100  1
  C  C24  1  0.68932100  0.49712500  0.97150900  1
  C  C25  1  0.75010900  0.11315900  0.53390800  1
  C  C26  1  0.24989200  0.88684100  0.46609200  1
  N  N1  1  0.13992800  0.49564300  0.49869100  1
  N  N2  1  0.86007300  0.50435700  0.50130900  1
  N  N3  1  0.20837200  0.27857000  0.32162400  1
  N  N4  1  0.79162900  0.72143000  0.67837600  1
  N  N5  1  0.20371400  0.50445400  0.07021400  1
  N  N6  1  0.79628700  0.49554600  0.92978600  1
  N  N7  1  0.85397100  0.15647600  0.54907600  1
  N  N8  1  0.14603000  0.84352400  0.45092400  1
  O  O1  1  0.37988600  0.67893200  0.49944300  1
  O  O2  1  0.62011500  0.32106800  0.50055700  1
  O  O3  1  0.61527800  0.68302300  0.49957000  1
  O  O4  1  0.38472300  0.31697700  0.50043000  1
  O  O5  1  0.36393700  0.49861900  0.64162200  1
  O  O6  1  0.63606400  0.50138100  0.35837800  1
  O  O7  1  0.59988500  0.50236300  0.64220600  1
  O  O8  1  0.40011600  0.49763700  0.35779400  1
