# Generated by REPEAT Assigner based on pymatgen
data_DB0-m9_o8_o21_f0_sra.sym.44
_audit_creation_date              2022-05-24
_audit_creation_method            REPEAT_Assigner
_cell_length_a                    6.709920
_cell_length_b                    19.803830
_cell_length_c                    23.195022
_cell_angle_alpha                 100.946616
_cell_angle_beta                  90.593276
_cell_angle_gamma                 90.683056
_cell_volume                      3025.656357
_symmetry_space_group_name_H-M    P1
_symmetry_Int_Tables_number       1
loop_
    _symmetry_equiv_pos_site_id
    _symmetry_equiv_pos_as_xyz
    1  x,y,z
loop_
    _atom_site_type_symbol
    _atom_site_label
    _atom_site_fract_x
    _atom_site_fract_y
    _atom_site_fract_z
    _atom_type_partial_charge
    O  O1   0.488158  0.455138  0.561579  -0.506263
    O  O2   0.141691  0.420095  0.436995  -0.539182
    O  O3   0.987120  0.546969  0.438803  -0.551563
    C  C1   0.314821  0.405647  0.413614  0.789684
    O  O4   0.146573  0.439760  0.557194  -0.551347
    O  O5   0.992411  0.567980  0.566516  -0.555897
    C  C2   0.321824  0.432985  0.579618  0.645294
    O  O6   0.483013  0.434048  0.433927  -0.540013
    O  O7   0.314694  0.543758  0.502054  -0.432349
    V  V1   0.038889  0.492309  0.499827  1.356862
    O  O8   0.651807  0.581952  0.563447  -0.544314
    C  C3   0.827485  0.596120  0.586972  0.818403
    O  O9   0.646914  0.562277  0.443231  -0.525515
    C  C4   0.820774  0.569140  0.420782  0.669019
    V  V2   0.539519  0.509768  0.500579  1.298977
    O  O10  0.811717  0.458319  0.498348  -0.446631
    C  C5   0.832029  0.610402  0.375065  -0.181136
    C  C6   0.664835  0.643224  0.360030  -0.097943
    C  C7   0.672529  0.681921  0.316484  0.022261
    C  C8   0.851662  0.689103  0.288722  0.310771
    C  C9   0.017679  0.655047  0.303212  -0.287364
    C  C10  0.008406  0.616003  0.346411  0.094138
    C  C11  0.922143  0.816503  0.177380  -0.142724
    C  C12  0.944777  0.859699  0.137582  -0.048023
    C  C13  0.746960  0.815326  0.207653  0.456810
    N  N1   0.871406  0.733339  0.248009  -0.205823
    N  N2   0.725299  0.771388  0.248396  -0.189798
    C  C14  0.786962  0.900217  0.126392  -0.145575
    H  H1   0.044280  0.784442  0.185759  0.053918
    H  H2   0.156785  0.660040  0.281232  0.104885
    H  H3   0.139544  0.590000  0.357899  0.086299
    C  C15  0.612864  0.899330  0.157447  0.038026
    C  C16  0.593188  0.857464  0.198235  -0.351868
    H  H4   0.489785  0.930991  0.149079  0.086922
    H  H5   0.455754  0.856787  0.222040  0.175999
    H  H6   0.525703  0.637723  0.381876  0.159256
    C  C17  0.842299  0.651378  0.636843  -0.299823
    C  C18  0.867888  0.752615  0.729152  -0.081010
    C  C19  0.766813  0.748795  0.777459  -0.081372
    C  C20  0.781694  0.804070  0.827510  0.064360
    C  C21  0.854007  0.697555  0.678909  0.069763
    C  C22  0.795861  0.850835  0.869052  -0.280707
    H  H7   0.673550  0.704148  0.779113  0.146088
    H  H8   0.961051  0.797324  0.727637  0.161552
    C  C23  0.300563  0.142394  0.135576  -0.393319
    C  C24  0.298375  0.249078  0.223495  -0.136772
    C  C25  0.336824  0.241222  0.278120  -0.103844
    C  C26  0.330060  0.299552  0.325610  0.103342
    C  C27  0.300510  0.190736  0.175934  0.161164
    C  C28  0.323474  0.348214  0.365574  -0.308752
    H  H9   0.371132  0.190783  0.286962  0.158298
    H  H10  0.263173  0.299518  0.214816  0.164043
    C  C29  0.337049  0.391280  0.624868  -0.099677
    C  C30  0.173514  0.355582  0.639684  -0.193795
    C  C31  0.192887  0.314285  0.681091  -0.013179
    C  C32  0.374916  0.309708  0.708221  0.297228
    C  C33  0.537097  0.346337  0.694040  -0.273703
    C  C34  0.518560  0.386625  0.652064  0.033395
    C  C35  0.454788  0.179999  0.819087  0.123706
    C  C36  0.470214  0.140255  0.861730  -0.137428
    C  C37  0.269960  0.187809  0.793799  0.231842
    N  N3   0.397642  0.266701  0.749607  -0.101143
    N  N4   0.245214  0.231476  0.752830  -0.247897
    C  C38  0.303429  0.109327  0.879923  -0.210875
    H  H11  0.613898  0.133823  0.881343  0.186019
    H  H12  0.679777  0.342530  0.715171  0.137936
    H  H13  0.646629  0.414538  0.640344  0.051989
    C  C39  0.120253  0.117184  0.854941  0.069724
    C  C40  0.104523  0.155036  0.811078  -0.214566
    H  H14  0.989614  0.092379  0.868797  0.096924
    H  H15  0.065689  0.285470  0.692157  0.020276
    H  H16  0.961020  0.159942  0.790825  0.107308
    H  H17  0.031284  0.359022  0.618193  0.194332
    O  O11  0.124687  0.051929  0.076753  -0.529352
    O  O12  0.486741  0.032112  0.925576  -0.571425
    O  O13  0.663169  0.918750  0.954268  -0.530078
    C  C41  0.321078  0.067273  0.924853  0.707751
    O  O14  0.439551  0.087322  0.046793  -0.540177
    O  O15  0.621372  0.972976  0.073261  -0.659946
    C  C42  0.298274  0.085766  0.086688  0.850776
    O  O16  0.168425  0.067717  0.960825  -0.532478
    O  O17  0.301006  0.954969  0.998515  -0.610689
    V  V3   0.577782  0.007819  0.000152  1.489356
    O  O18  0.933378  0.927031  0.039805  -0.435292
    C  C43  0.792107  0.941569  0.080372  0.651096
    O  O19  0.982784  0.943548  0.921643  -0.587573
    C  C44  0.815538  0.907251  0.917844  0.767708
    V  V4   0.076978  0.992364  0.999555  1.554798
    O  O20  0.804296  0.045632  0.002795  -0.609435
    C  C45  0.139256  0.862487  0.110087  0.669712
    O  O21  0.261826  0.818667  0.114247  -0.490374
    O  O22  0.192502  0.917616  0.084085  -0.641971
    H  H18  0.336021  0.912741  0.071174  0.468595
    C  C46  0.636689  0.212777  0.802227  0.302188
    O  O23  0.663121  0.218468  0.751446  -0.296704
    O  O24  0.786295  0.233511  0.844052  -0.518705
    H  H19  0.898328  0.257355  0.826501  0.409740
    C  C47  0.487065  0.712302  0.300133  0.332279
    O  O25  0.352524  0.722698  0.335499  -0.371705
    O  O26  0.454780  0.722687  0.243134  -0.350465
    H  H20  0.316490  0.741320  0.239281  0.346740
