# generated using pymatgen
data_Cu3H19C51(NO4)4
_symmetry_space_group_name_H-M   'P 1'
_cell_length_a   28.52165700
_cell_length_b   17.94670700
_cell_length_c   16.64838900
_cell_angle_alpha   90.00000000
_cell_angle_beta   61.83159100
_cell_angle_gamma   90.00000000
_symmetry_Int_Tables_number   1
_chemical_formula_structural   Cu3H19C51(NO4)4
_chemical_formula_sum   'Cu12 H76 C204 N16 O64'
_cell_volume   7512.51792849
_cell_formula_units_Z   4
loop_
 _symmetry_equiv_pos_site_id
 _symmetry_equiv_pos_as_xyz
  1  'x, y, z'
loop_
 _atom_site_type_symbol
 _atom_site_label
 _atom_site_symmetry_multiplicity
 _atom_site_fract_x
 _atom_site_fract_y
 _atom_site_fract_z
 _atom_site_occupancy
  Cu  Cu1  1  0.21346800  0.78653300  0.50203400  1
  Cu  Cu2  1  0.78632800  0.20423900  0.50731600  1
  Cu  Cu3  1  0.78653200  0.78653300  0.49796600  1
  Cu  Cu4  1  0.21367200  0.20423900  0.49268400  1
  Cu  Cu5  1  0.71346800  0.28653300  0.50203400  1
  Cu  Cu6  1  0.28632800  0.70423900  0.50731600  1
  Cu  Cu7  1  0.28653200  0.28653300  0.49796600  1
  Cu  Cu8  1  0.71367200  0.70423900  0.49268400  1
  Cu  Cu9  1  0.50045800  0.49633900  0.92077300  1
  Cu  Cu10  1  0.49954200  0.49633900  0.07922700  1
  Cu  Cu11  1  0.00045800  0.99633900  0.92077300  1
  Cu  Cu12  1  0.99954200  0.99633900  0.07922700  1
  H  H1  1  0.27585100  0.99480300  0.47393300  1
  H  H2  1  0.72415000  0.99480300  0.52606700  1
  H  H3  1  0.77585100  0.49480300  0.47393300  1
  H  H4  1  0.22415000  0.49480300  0.52606700  1
  H  H5  1  0.59577800  0.81452200  0.55807300  1
  H  H6  1  0.38060800  0.17876300  0.52087800  1
  H  H7  1  0.40422200  0.81452200  0.44192600  1
  H  H8  1  0.61939300  0.17876300  0.47912100  1
  H  H9  1  0.09577800  0.31452200  0.55807300  1
  H  H10  1  0.88060800  0.67876300  0.52087800  1
  H  H11  1  0.90422200  0.31452200  0.44192600  1
  H  H12  1  0.11939300  0.67876300  0.47912100  1
  H  H13  1  0.11862500  0.83367900  0.77995100  1
  H  H14  1  0.88387400  0.15626200  0.22750400  1
  H  H15  1  0.88137500  0.83367900  0.22004900  1
  H  H16  1  0.11612700  0.15626200  0.77249600  1
  H  H17  1  0.61862500  0.33367900  0.77995100  1
  H  H18  1  0.38387400  0.65626200  0.22750400  1
  H  H19  1  0.38137500  0.33367900  0.22004900  1
  H  H20  1  0.61612700  0.65626200  0.77249600  1
  H  H21  1  0.12143300  0.92949600  0.04291600  1
  H  H22  1  0.85734500  0.05430000  0.98988900  1
  H  H23  1  0.87856800  0.92949600  0.95708300  1
  H  H24  1  0.14265500  0.05430000  0.01011100  1
  H  H25  1  0.62143200  0.42949600  0.04291600  1
  H  H26  1  0.35734500  0.55430000  0.98988900  1
  H  H27  1  0.37856800  0.42949600  0.95708300  1
  H  H28  1  0.64265500  0.55430000  0.01011100  1
  H  H29  1  0.17638800  0.91264800  0.10861100  1
  H  H30  1  0.81019600  0.08960600  0.91355400  1
  H  H31  1  0.82361200  0.91264800  0.89138900  1
  H  H32  1  0.18980400  0.08960600  0.08644600  1
  H  H33  1  0.67638800  0.41264800  0.10861100  1
  H  H34  1  0.31019600  0.58960600  0.91355400  1
  H  H35  1  0.32361200  0.41264800  0.89138900  1
  H  H36  1  0.68980400  0.58960600  0.08644600  1
  H  H37  1  0.28594800  0.71827800  0.70995400  1
  H  H38  1  0.75190600  0.33634900  0.27285500  1
  H  H39  1  0.71405300  0.71827800  0.29004600  1
  H  H40  1  0.24809400  0.33634900  0.72714400  1
  H  H41  1  0.78594800  0.21827800  0.70995400  1
  H  H42  1  0.25190600  0.83634900  0.27285500  1
  H  H43  1  0.21405300  0.21827800  0.29004600  1
  H  H44  1  0.74809400  0.83634900  0.72714400  1
  H  H45  1  0.58369800  0.63564600  0.48498800  1
  H  H46  1  0.61006100  0.71459400  0.42554600  1
  H  H47  1  0.41254700  0.29342200  0.42217100  1
  H  H48  1  0.46648200  0.23873200  0.36241800  1
  H  H49  1  0.41630200  0.63564600  0.51501100  1
  H  H50  1  0.38994000  0.71459400  0.57445400  1
  H  H51  1  0.58745300  0.29342200  0.57782800  1
  H  H52  1  0.53351800  0.23873200  0.63758100  1
  H  H53  1  0.08369800  0.13564600  0.48498800  1
  H  H54  1  0.11006100  0.21459400  0.42554600  1
  H  H55  1  0.91254700  0.79342200  0.42217200  1
  H  H56  1  0.96648200  0.73873200  0.36241800  1
  H  H57  1  0.91630200  0.13564600  0.51501100  1
  H  H58  1  0.88994000  0.21459400  0.57445400  1
  H  H59  1  0.08745300  0.79342200  0.57782800  1
  H  H60  1  0.03351800  0.73873200  0.63758100  1
  H  H61  1  0.37027500  0.57154100  0.74163000  1
  H  H62  1  0.31481300  0.58962600  0.73313400  1
  H  H63  1  0.60235900  0.34931900  0.24366700  1
  H  H64  1  0.63444700  0.26586700  0.21959400  1
  H  H65  1  0.62972500  0.57154100  0.25837000  1
  H  H66  1  0.68518800  0.58962600  0.26686600  1
  H  H67  1  0.39764100  0.34931900  0.75633300  1
  H  H68  1  0.36555300  0.26586700  0.78040600  1
  H  H69  1  0.87027500  0.07154100  0.74163000  1
  H  H70  1  0.81481300  0.08962600  0.73313400  1
  H  H71  1  0.10235900  0.84931900  0.24366700  1
  H  H72  1  0.13444700  0.76586700  0.21959400  1
  H  H73  1  0.12972500  0.07154100  0.25837000  1
  H  H74  1  0.18518800  0.08962600  0.26686600  1
  H  H75  1  0.89764100  0.84931900  0.75633300  1
  H  H76  1  0.86555300  0.76586700  0.78040600  1
  C  C1  1  0.29503600  0.73203700  0.33281700  1
  C  C2  1  0.70774000  0.26476800  0.67517400  1
  C  C3  1  0.70496400  0.73203700  0.66718300  1
  C  C4  1  0.29226000  0.26476800  0.32482600  1
  C  C5  1  0.79503600  0.23203700  0.33281700  1
  C  C6  1  0.20774000  0.76476800  0.67517400  1
  C  C7  1  0.20496400  0.23203700  0.66718300  1
  C  C8  1  0.79226000  0.76476800  0.32482600  1
  C  C9  1  0.19561600  0.63041600  0.51737300  1
  C  C10  1  0.80643900  0.36001500  0.48287200  1
  C  C11  1  0.80438400  0.63041600  0.48262700  1
  C  C12  1  0.19356100  0.36001500  0.51712800  1
  C  C13  1  0.69561600  0.13041600  0.51737300  1
  C  C14  1  0.30643900  0.86001500  0.48287200  1
  C  C15  1  0.30438400  0.13041600  0.48262700  1
  C  C16  1  0.69356100  0.86001500  0.51712800  1
  C  C17  1  0.04744600  0.62952200  0.50284900  1
  C  C18  1  0.95836200  0.36430900  0.47963200  1
  C  C19  1  0.95255400  0.62952200  0.49715100  1
  C  C20  1  0.04163800  0.36430900  0.52036700  1
  C  C21  1  0.54744600  0.12952200  0.50284900  1
  C  C22  1  0.45836200  0.86430900  0.47963200  1
  C  C23  1  0.45255400  0.12952200  0.49715100  1
  C  C24  1  0.54163800  0.86430900  0.52036700  1
  C  C25  1  0.02351200  0.69681000  0.50235500  1
  C  C26  1  0.98081300  0.29760000  0.48609300  1
  C  C27  1  0.97648800  0.69681000  0.49764500  1
  C  C28  1  0.01918700  0.29760000  0.51390700  1
  C  C29  1  0.52351200  0.19681000  0.50235500  1
  C  C30  1  0.48081300  0.79760000  0.48609300  1
  C  C31  1  0.47648800  0.19681000  0.49764500  1
  C  C32  1  0.51918700  0.79760000  0.51390700  1
  C  C33  1  0.97671900  0.56315200  0.49685000  1
  C  C34  1  0.02204900  0.43059300  0.50697000  1
  C  C35  1  0.02328200  0.56315200  0.50315000  1
  C  C36  1  0.97795200  0.43059300  0.49303000  1
  C  C37  1  0.47671900  0.06315200  0.49685000  1
  C  C38  1  0.52204900  0.93059300  0.50697000  1
  C  C39  1  0.52328200  0.06315200  0.50315000  1
  C  C40  1  0.47795200  0.93059300  0.49303000  1
  C  C41  1  0.45417900  0.99685800  0.49042400  1
  C  C42  1  0.54582100  0.99685800  0.50957600  1
  C  C43  1  0.95417900  0.49685800  0.49042400  1
  C  C44  1  0.04582100  0.49685800  0.50957600  1
  C  C45  1  0.38654900  0.92964800  0.47355700  1
  C  C46  1  0.61810300  0.06333500  0.51257700  1
  C  C47  1  0.61345100  0.92964800  0.52644300  1
  C  C48  1  0.38189800  0.06333500  0.48742300  1
  C  C49  1  0.88654900  0.42964800  0.47355700  1
  C  C50  1  0.11810300  0.56333500  0.51257700  1
  C  C51  1  0.11345100  0.42964800  0.52644300  1
  C  C52  1  0.88189800  0.56333500  0.48742300  1
  C  C53  1  0.33724200  0.92867500  0.47472100  1
  C  C54  1  0.66518200  0.06293400  0.51946900  1
  C  C55  1  0.66275800  0.92867500  0.52527900  1
  C  C56  1  0.33481900  0.06293400  0.48053100  1
  C  C57  1  0.83724200  0.42867500  0.47472100  1
  C  C58  1  0.16518200  0.56293400  0.51946900  1
  C  C59  1  0.16275800  0.42867500  0.52527900  1
  C  C60  1  0.83481900  0.56293400  0.48053100  1
  C  C61  1  0.31322600  0.99545200  0.47539200  1
  C  C62  1  0.68677400  0.99545200  0.52460800  1
  C  C63  1  0.81322600  0.49545200  0.47539200  1
  C  C64  1  0.18677400  0.49545200  0.52460800  1
  C  C65  1  0.40771600  0.99670100  0.48275800  1
  C  C66  1  0.59228500  0.99670100  0.51724200  1
  C  C67  1  0.90771600  0.49670100  0.48275800  1
  C  C68  1  0.09228500  0.49670100  0.51724200  1
  C  C69  1  0.58465300  0.86497800  0.53702900  1
  C  C70  1  0.40318500  0.12843300  0.50135500  1
  C  C71  1  0.41534700  0.86497800  0.46297000  1
  C  C72  1  0.59681500  0.12843300  0.49864500  1
  C  C73  1  0.08465300  0.36497800  0.53702900  1
  C  C74  1  0.90318500  0.62843300  0.50135500  1
  C  C75  1  0.91534700  0.36497800  0.46297000  1
  C  C76  1  0.09681500  0.62843300  0.49864500  1
  C  C77  1  0.22436200  0.77367000  0.95795900  1
  C  C78  1  0.77751500  0.23411100  0.05579200  1
  C  C79  1  0.77563800  0.77367000  0.04204100  1
  C  C80  1  0.22248500  0.23411100  0.94420800  1
  C  C81  1  0.72436200  0.27367000  0.95795900  1
  C  C82  1  0.27751500  0.73411100  0.05579200  1
  C  C83  1  0.27563800  0.27367000  0.04204100  1
  C  C84  1  0.72248500  0.73411100  0.94420800  1
  C  C85  1  0.26573400  0.72315900  0.92265600  1
  C  C86  1  0.73836100  0.28886400  0.09019100  1
  C  C87  1  0.73426600  0.72315900  0.07734400  1
  C  C88  1  0.26163900  0.28886400  0.90980900  1
  C  C89  1  0.76573400  0.22315900  0.92265600  1
  C  C90  1  0.23836100  0.78886400  0.09019100  1
  C  C91  1  0.23426600  0.22315900  0.07734400  1
  C  C92  1  0.76163900  0.78886400  0.90980900  1
  C  C93  1  0.28711700  0.69730000  0.97697600  1
  C  C94  1  0.71213700  0.30928000  0.03946200  1
  C  C95  1  0.71288300  0.69730000  0.02302400  1
  C  C96  1  0.28786400  0.30928000  0.96053800  1
  C  C97  1  0.78711700  0.19730000  0.97697600  1
  C  C98  1  0.21213700  0.80928000  0.03946200  1
  C  C99  1  0.21288300  0.19730000  0.02302400  1
  C  C100  1  0.78786400  0.80928000  0.96053800  1
  C  C101  1  0.15386000  0.83956100  0.94656200  1
  C  C102  1  0.84265200  0.15539200  0.06847900  1
  C  C103  1  0.84614000  0.83956100  0.05343800  1
  C  C104  1  0.15734800  0.15539200  0.93152100  1
  C  C105  1  0.65386000  0.33956100  0.94656200  1
  C  C106  1  0.34265200  0.65539200  0.06847900  1
  C  C107  1  0.34614000  0.33956100  0.05343800  1
  C  C108  1  0.65734800  0.65539200  0.93152100  1
  C  C109  1  0.12290800  0.85147000  0.90288700  1
  C  C110  1  0.87668200  0.14184200  0.10628000  1
  C  C111  1  0.87709200  0.85147000  0.09711300  1
  C  C112  1  0.12331800  0.14184200  0.89371900  1
  C  C113  1  0.62290800  0.35147000  0.90288700  1
  C  C114  1  0.37668200  0.64184200  0.10628000  1
  C  C115  1  0.37709200  0.35147000  0.09711300  1
  C  C116  1  0.62331800  0.64184200  0.89371900  1
  C  C117  1  0.14082600  0.82257200  0.81621300  1
  C  C118  1  0.86297100  0.17315900  0.19079000  1
  C  C119  1  0.85917400  0.82257200  0.18378700  1
  C  C120  1  0.13702900  0.17315900  0.80921000  1
  C  C121  1  0.64082600  0.32257200  0.81621300  1
  C  C122  1  0.36297100  0.67315900  0.19079000  1
  C  C123  1  0.35917400  0.32257200  0.18378700  1
  C  C124  1  0.63702900  0.67315900  0.80921000  1
  C  C125  1  0.18747000  0.78176500  0.77328600  1
  C  C126  1  0.81945200  0.22030900  0.23275400  1
  C  C127  1  0.81253000  0.78176500  0.22671400  1
  C  C128  1  0.18054800  0.22030900  0.76724500  1
  C  C129  1  0.68747000  0.28176500  0.77328600  1
  C  C130  1  0.31945200  0.72030900  0.23275400  1
  C  C131  1  0.31253000  0.28176500  0.22671400  1
  C  C132  1  0.68054800  0.72030900  0.76724500  1
  C  C133  1  0.21479600  0.76385700  0.82190000  1
  C  C134  1  0.79561800  0.24741100  0.18203900  1
  C  C135  1  0.78520400  0.76385700  0.17809900  1
  C  C136  1  0.20438200  0.24741100  0.81796100  1
  C  C137  1  0.71479600  0.26385700  0.82190000  1
  C  C138  1  0.29561800  0.74741100  0.18203900  1
  C  C139  1  0.28520400  0.26385700  0.17809900  1
  C  C140  1  0.70438200  0.74741100  0.81796100  1
  C  C141  1  0.19683400  0.79101900  0.90959500  1
  C  C142  1  0.80568200  0.21289800  0.10170000  1
  C  C143  1  0.80316700  0.79101900  0.09040400  1
  C  C144  1  0.19431800  0.21289800  0.89830000  1
  C  C145  1  0.69683400  0.29101900  0.90959500  1
  C  C146  1  0.30568200  0.71289800  0.10170000  1
  C  C147  1  0.30316700  0.29101900  0.09040400  1
  C  C148  1  0.69431800  0.71289800  0.89830000  1
  C  C149  1  0.14749500  0.88215200  0.01997200  1
  C  C150  1  0.84069500  0.10918500  0.00389500  1
  C  C151  1  0.85250500  0.88215200  0.98002700  1
  C  C152  1  0.15930600  0.10918500  0.99610400  1
  C  C153  1  0.64749500  0.38215200  0.01997200  1
  C  C154  1  0.34069500  0.60918500  0.00389500  1
  C  C155  1  0.35250500  0.38215200  0.98002700  1
  C  C156  1  0.65930600  0.60918500  0.99610400  1
  C  C157  1  0.17868300  0.87052700  0.06108600  1
  C  C158  1  0.81268300  0.12941900  0.95995200  1
  C  C159  1  0.82131700  0.87052700  0.93891400  1
  C  C160  1  0.18731800  0.12941900  0.04004700  1
  C  C161  1  0.67868300  0.37052700  0.06108600  1
  C  C162  1  0.31268300  0.62941900  0.95995200  1
  C  C163  1  0.32131700  0.37052700  0.93891400  1
  C  C164  1  0.68731800  0.62941900  0.04004700  1
  C  C165  1  0.26312200  0.72694200  0.78179400  1
  C  C166  1  0.75883900  0.30459600  0.21344400  1
  C  C167  1  0.73687800  0.72694200  0.21820500  1
  C  C168  1  0.24116100  0.30459600  0.78655600  1
  C  C169  1  0.76312200  0.22694200  0.78179400  1
  C  C170  1  0.25883900  0.80459600  0.21344400  1
  C  C171  1  0.23687800  0.22694200  0.21820500  1
  C  C172  1  0.74116100  0.80459600  0.78655600  1
  C  C173  1  0.28769900  0.70458500  0.83097000  1
  C  C174  1  0.72592600  0.31851000  0.17589500  1
  C  C175  1  0.71230100  0.70458500  0.16902900  1
  C  C176  1  0.27407400  0.31851000  0.82410500  1
  C  C177  1  0.78769900  0.20458500  0.83097000  1
  C  C178  1  0.22592600  0.81851000  0.17589500  1
  C  C179  1  0.21230100  0.20458500  0.16902900  1
  C  C180  1  0.77407400  0.81851000  0.82410500  1
  C  C181  1  0.92516700  0.90012900  0.06006800  1
  C  C182  1  0.07515400  0.09258100  0.93674600  1
  C  C183  1  0.07483300  0.90012900  0.93993100  1
  C  C184  1  0.92484600  0.09258100  0.06325400  1
  C  C185  1  0.42516700  0.40012900  0.06006900  1
  C  C186  1  0.57515400  0.59258100  0.93674600  1
  C  C187  1  0.57483300  0.40012900  0.93993100  1
  C  C188  1  0.42484600  0.59258100  0.06325400  1
  C  C189  1  0.53729700  0.72592500  0.53121300  1
  C  C190  1  0.45443300  0.26834700  0.48763000  1
  C  C191  1  0.46270300  0.72592500  0.46878700  1
  C  C192  1  0.54556700  0.26834700  0.51237000  1
  C  C193  1  0.03729700  0.22592500  0.53121300  1
  C  C194  1  0.95443300  0.76834700  0.48763000  1
  C  C195  1  0.96270300  0.22592500  0.46878700  1
  C  C196  1  0.04556700  0.76834700  0.51237000  1
  C  C197  1  0.34203200  0.67540900  0.77749900  1
  C  C198  1  0.67425500  0.35142800  0.23966300  1
  C  C199  1  0.65796900  0.67540900  0.22250000  1
  C  C200  1  0.32574500  0.35142800  0.76033700  1
  C  C201  1  0.84203200  0.17540900  0.77749900  1
  C  C202  1  0.17425500  0.85142800  0.23966300  1
  C  C203  1  0.15796900  0.17540900  0.22250000  1
  C  C204  1  0.82574500  0.85142800  0.76033700  1
  N  N1  1  0.57535500  0.68286300  0.45735200  1
  N  N2  1  0.45230900  0.28487700  0.40547500  1
  N  N3  1  0.42464500  0.68286300  0.54264700  1
  N  N4  1  0.54769100  0.28487700  0.59452400  1
  N  N5  1  0.07535500  0.18286300  0.45735200  1
  N  N6  1  0.95230900  0.78487700  0.40547500  1
  N  N7  1  0.92464500  0.18286300  0.54264700  1
  N  N8  1  0.04769100  0.78487700  0.59452400  1
  N  N9  1  0.35153300  0.61138300  0.72092500  1
  N  N10  1  0.62577800  0.31379500  0.25956000  1
  N  N11  1  0.64846800  0.61138300  0.27907500  1
  N  N12  1  0.37422200  0.31379500  0.74043900  1
  N  N13  1  0.85153300  0.11138300  0.72092500  1
  N  N14  1  0.12577800  0.81379500  0.25956000  1
  N  N15  1  0.14846800  0.11138300  0.27907500  1
  N  N16  1  0.87422200  0.81379500  0.74043900  1
  O  O1  1  0.26781500  0.86399700  0.46011300  1
  O  O2  1  0.74695800  0.12201600  0.49110500  1
  O  O3  1  0.73218600  0.86399700  0.53988700  1
  O  O4  1  0.25304300  0.12201600  0.50889500  1
  O  O5  1  0.76781500  0.36399700  0.46011300  1
  O  O6  1  0.24695800  0.62201600  0.49110500  1
  O  O7  1  0.23218600  0.36399700  0.53988700  1
  O  O8  1  0.75304300  0.62201600  0.50889500  1
  O  O9  1  0.19554900  0.81223300  0.62701500  1
  O  O10  1  0.82333600  0.21737200  0.37530600  1
  O  O11  1  0.80445200  0.81223300  0.37298400  1
  O  O12  1  0.17666400  0.21737200  0.62469400  1
  O  O13  1  0.69554900  0.31223300  0.62701500  1
  O  O14  1  0.32333600  0.71737200  0.37530600  1
  O  O15  1  0.30445200  0.31223300  0.37298400  1
  O  O16  1  0.67666400  0.71737200  0.62469400  1
  O  O17  1  0.24367800  0.74812000  0.37788500  1
  O  O18  1  0.73769500  0.20502200  0.63817100  1
  O  O19  1  0.75632200  0.74812000  0.62211500  1
  O  O20  1  0.26230500  0.20502200  0.36182800  1
  O  O21  1  0.74367800  0.24812000  0.37788500  1
  O  O22  1  0.23769500  0.70502200  0.63817100  1
  O  O23  1  0.25632200  0.24812000  0.62211500  1
  O  O24  1  0.76230500  0.70502200  0.36182800  1
  O  O25  1  0.17120900  0.69549400  0.54421100  1
  O  O26  1  0.81415000  0.30001000  0.52145600  1
  O  O27  1  0.82879100  0.69549400  0.45578800  1
  O  O28  1  0.18585100  0.30001000  0.47854300  1
  O  O29  1  0.67120900  0.19549400  0.54421100  1
  O  O30  1  0.31415000  0.80001000  0.52145600  1
  O  O31  1  0.32879100  0.19549400  0.45578800  1
  O  O32  1  0.68585100  0.80001000  0.47854300  1
  O  O33  1  0.06389900  0.93455800  0.88071900  1
  O  O34  1  0.95415700  0.08409000  0.10490600  1
  O  O35  1  0.93610100  0.93455800  0.11928100  1
  O  O36  1  0.04584300  0.08409000  0.89509400  1
  O  O37  1  0.56389900  0.43455800  0.88071900  1
  O  O38  1  0.45415700  0.58409000  0.10490600  1
  O  O39  1  0.43610100  0.43455800  0.11928100  1
  O  O40  1  0.54584300  0.58409000  0.89509400  1
  O  O41  1  0.95515000  0.90845100  0.97092000  1
  O  O42  1  0.06272700  0.05866000  0.01469800  1
  O  O43  1  0.04485000  0.90845100  0.02908000  1
  O  O44  1  0.93727300  0.05866000  0.98530200  1
  O  O45  1  0.45515000  0.40845100  0.97092000  1
  O  O46  1  0.56272700  0.55866000  0.01469800  1
  O  O47  1  0.54485000  0.40845100  0.02908000  1
  O  O48  1  0.43727300  0.55866000  0.98530200  1
  O  O49  1  0.52065000  0.70383800  0.60922100  1
  O  O50  1  0.44044500  0.31539200  0.54730800  1
  O  O51  1  0.47935000  0.70383800  0.39077900  1
  O  O52  1  0.55955500  0.31539200  0.45269200  1
  O  O53  1  0.02065000  0.20383800  0.60922100  1
  O  O54  1  0.94044500  0.81539200  0.54730800  1
  O  O55  1  0.97935000  0.20383800  0.39077900  1
  O  O56  1  0.05955500  0.81539200  0.45269200  1
  O  O57  1  0.37915400  0.70575300  0.78146800  1
  O  O58  1  0.67282600  0.40695400  0.28299400  1
  O  O59  1  0.62084600  0.70575300  0.21853200  1
  O  O60  1  0.32717400  0.40695400  0.71700600  1
  O  O61  1  0.87915400  0.20575300  0.78146800  1
  O  O62  1  0.17282600  0.90695400  0.28299400  1
  O  O63  1  0.12084600  0.20575300  0.21853200  1
  O  O64  1  0.82717400  0.90695400  0.71700600  1
