# generated using pymatgen
data_ZnH8C14N2O5
_symmetry_space_group_name_H-M   'P 1'
_cell_length_a   8.55330400
_cell_length_b   11.29864200
_cell_length_c   12.79444800
_cell_angle_alpha   95.29386100
_cell_angle_beta   84.55975100
_cell_angle_gamma   90.06127900
_symmetry_Int_Tables_number   1
_chemical_formula_structural   ZnH8C14N2O5
_chemical_formula_sum   'Zn2 H16 C28 N4 O10'
_cell_volume   1225.60810603
_cell_formula_units_Z   2
loop_
 _symmetry_equiv_pos_site_id
 _symmetry_equiv_pos_as_xyz
  1  'x, y, z'
loop_
 _atom_site_type_symbol
 _atom_site_label
 _atom_site_symmetry_multiplicity
 _atom_site_fract_x
 _atom_site_fract_y
 _atom_site_fract_z
 _atom_site_occupancy
  Zn  Zn1  1  0.50156400  0.86721800  0.48425400  1
  Zn  Zn2  1  0.49806500  0.13174800  0.51502600  1
  H  H1  1  0.79546600  0.95449000  0.14776000  1
  H  H2  1  0.20650500  0.97629600  0.85032100  1
  H  H3  1  0.01152900  0.06206400  0.42384900  1
  H  H4  1  0.98777700  0.99567400  0.57138100  1
  H  H5  1  0.51887600  0.29577000  0.36682800  1
  H  H6  1  0.48082800  0.70317500  0.63238300  1
  H  H7  1  0.47313100  0.30002600  0.69729500  1
  H  H8  1  0.52656600  0.69895500  0.30191600  1
  H  H9  1  0.52966100  0.48050500  0.28419800  1
  H  H10  1  0.47009200  0.51846800  0.71500300  1
  H  H11  1  0.42741300  0.12296600  0.20389000  1
  H  H12  1  0.55186200  0.06012200  0.09256300  1
  H  H13  1  0.53690500  0.98646200  0.21233300  1
  H  H14  1  0.56936800  0.12654000  0.81953500  1
  H  H15  1  0.44480200  0.06050800  0.91861500  1
  H  H16  1  0.46611500  0.98895800  0.78604900  1
  C  C1  1  0.16888100  0.00781000  0.29067600  1
  C  C2  1  0.83080200  0.99142400  0.70787200  1
  C  C3  1  0.18288500  0.97802300  0.18264200  1
  C  C4  1  0.81749100  0.97905400  0.81526900  1
  C  C5  1  0.04884800  0.96722300  0.12872500  1
  C  C6  1  0.95212100  0.97260000  0.86811200  1
  C  C7  1  0.90175500  0.97250700  0.18532200  1
  C  C8  1  0.09932900  0.97938800  0.81265500  1
  C  C9  1  0.88930300  0.00573100  0.29216600  1
  C  C10  1  0.11053300  0.99092800  0.70599800  1
  C  C11  1  0.02234000  0.03170400  0.34175800  1
  C  C12  1  0.97726200  0.99378900  0.65500800  1
  C  C13  1  0.73933000  0.00388800  0.35721600  1
  C  C14  1  0.26098300  0.99476800  0.64232400  1
  C  C15  1  0.69720200  0.99452500  0.64378800  1
  C  C16  1  0.30130000  0.00461000  0.35616400  1
  C  C17  1  0.51875300  0.52851400  0.36166400  1
  C  C18  1  0.48099600  0.47045600  0.63753800  1
  C  C19  1  0.51694800  0.65119700  0.37163400  1
  C  C20  1  0.48277200  0.34777600  0.62757300  1
  C  C21  1  0.49151700  0.65335900  0.55573800  1
  C  C22  1  0.50821000  0.34559900  0.44346700  1
  C  C23  1  0.49303500  0.53088700  0.54831800  1
  C  C24  1  0.50671500  0.46807500  0.45088200  1
  C  C25  1  0.33818900  0.96622500  0.12401700  1
  C  C26  1  0.47181900  0.03809100  0.16102200  1
  C  C27  1  0.66307700  0.97083700  0.87373000  1
  C  C28  1  0.52746500  0.04089000  0.84712400  1
  N  N1  1  0.06439900  0.96007600  0.01692500  1
  N  N2  1  0.93632600  0.96940100  0.97927300  1
  N  N3  1  0.49630000  0.28752500  0.53126400  1
  N  N4  1  0.50339200  0.71144200  0.46794700  1
  O  O1  1  0.68296500  0.10446800  0.40543900  1
  O  O2  1  0.31688600  0.89438200  0.59384800  1
  O  O3  1  0.68047500  0.90002800  0.37682800  1
  O  O4  1  0.31913700  0.09895300  0.62252600  1
  O  O5  1  0.65448200  0.89419900  0.59459200  1
  O  O6  1  0.34469500  0.10481300  0.40500700  1
  O  O7  1  0.64572300  0.09861400  0.62289700  1
  O  O8  1  0.35398100  0.90043800  0.37626700  1
  O  O9  1  0.35685300  0.90138600  0.04220700  1
  O  O10  1  0.64618700  0.90829600  0.94656600  1
