# Generated by REPEAT Assigner based on pymatgen
data_DB0-m3_o25_o153_f0_fsc.sym.69_sqe
_audit_creation_date              2022-05-24
_audit_creation_method            REPEAT_Assigner
_cell_length_a                    8.517193
_cell_length_b                    12.979701
_cell_length_c                    14.197694
_cell_angle_alpha                 90.604112
_cell_angle_beta                  93.334185
_cell_angle_gamma                 86.450592
_cell_volume                      1563.863384
_symmetry_space_group_name_H-M    P1
_symmetry_Int_Tables_number       1
loop_
    _symmetry_equiv_pos_site_id
    _symmetry_equiv_pos_as_xyz
    1  x,y,z
loop_
    _atom_site_type_symbol
    _atom_site_label
    _atom_site_fract_x
    _atom_site_fract_y
    _atom_site_fract_z
    _atom_type_partial_charge
    C   C1   0.016556  0.864529  0.004985  0.216672
    C   C2   0.884013  0.810338  0.020979  -0.047958
    C   C3   0.738428  0.864140  0.031053  -0.046370
    C   C4   0.723087  0.968936  0.016071  -0.362340
    C   C5   0.851454  0.022956  0.000026  0.329902
    C   C6   0.999380  0.972636  0.996575  -0.067272
    C   C7   0.829172  0.129021  0.991181  -0.438354
    C   C8   0.955150  0.187762  0.979942  0.158966
    C   C9   0.103923  0.138748  0.978633  0.283633
    C   C10  0.126233  0.033006  0.987232  -0.357704
    C   C11  0.935895  0.294490  0.970292  -0.110278
    C   C12  0.065772  0.348662  0.956182  -0.206868
    C   C13  0.213851  0.300364  0.960474  -0.009851
    C   C14  0.233682  0.195705  0.972027  -0.349928
    C   C15  0.162226  0.808888  0.996661  -0.257485
    C   C16  0.178804  0.704167  0.014866  -0.022361
    C   C17  0.048115  0.653269  0.032861  -0.182326
    C   C18  0.901035  0.703158  0.028395  -0.147285
    H   H1   0.610743  0.011693  0.019355  0.201952
    H   H2   0.052345  0.431277  0.948679  0.154509
    H   H3   0.351340  0.159090  0.977078  0.125301
    H   H4   0.245755  0.001378  0.988639  0.200586
    H   H5   0.712265  0.165935  0.993802  0.162950
    H   H6   0.265819  0.843820  0.976238  0.122989
    H   H7   0.059104  0.570814  0.042039  0.139927
    O   O1   0.401103  0.383713  0.056620  -0.692537
    O   O2   0.395047  0.407080  0.895236  -0.703504
    C   C19  0.347865  0.363439  0.970515  0.858251
    O   O3   0.376258  0.619559  0.922087  -0.747633
    O   O4   0.392359  0.595975  0.083259  -0.750905
    C   C20  0.328125  0.641563  0.006799  0.868434
    O   O5   0.716120  0.615564  0.930054  -0.756365
    O   O6   0.722487  0.591700  0.090864  -0.747379
    C   C21  0.769433  0.636560  0.016307  0.956019
    O   O7   0.739987  0.379074  0.063970  -0.705997
    O   O8   0.724111  0.402933  0.902940  -0.675603
    C   C22  0.786321  0.356030  0.978960  0.812869
    Zn  Zn1  0.551920  0.516409  0.889142  1.106779
    Zn  Zn2  0.565152  0.482750  0.097203  1.064989
    C   C23  0.688065  0.442450  0.475287  -0.344257
    C   C24  0.685396  0.547496  0.524509  -0.060357
    H   H8   0.789444  0.587877  0.552472  0.083267
    H   H9   0.793856  0.392750  0.459094  0.118525
    H   H10  0.563860  0.664303  0.413409  0.120496
    N   N1   0.547064  0.533063  0.766340  -0.000940
    N   N2   0.570400  0.466252  0.220033  0.035427
    C   C25  0.556272  0.412202  0.534331  0.059055
    C   C26  0.553919  0.515552  0.582603  0.524123
    C   C27  0.431956  0.453160  0.461508  -0.359058
    C   C28  0.563714  0.485276  0.403667  0.889086
    C   C29  0.429882  0.558179  0.510759  -0.047093
    C   C30  0.561420  0.590026  0.451033  -0.281261
    C   C31  0.549357  0.527537  0.685032  -0.176125
    C   C32  0.568211  0.472355  0.301318  -0.308442
    H   H11  0.323659  0.607246  0.527347  0.073401
    H   H12  0.328289  0.412112  0.433986  0.114711
    C   C33  0.600287  0.813502  0.066295  0.348456
    O   O9   0.488206  0.887065  0.097254  -0.597482
    H   H13  0.640200  0.765964  0.128330  0.004591
    H   H14  0.544733  0.768671  0.008336  0.020838
    H   H15  0.434754  0.851398  0.146488  0.336368
    C   C34  0.552979  0.310587  0.585354  0.298280
    O   O10  0.684056  0.298457  0.648649  -0.555008
    H   H16  0.555562  0.246348  0.533237  -0.032417
    H   H17  0.443906  0.309608  0.624275  -0.004227
    H   H18  0.741140  0.234281  0.627710  0.361620
