# Generated by REPEAT Assigner based on pymatgen
data_DB0-m2_o6_o15_f0_pcu.sym.38
_audit_creation_date              2022-05-24
_audit_creation_method            REPEAT_Assigner
_cell_length_a                    15.960404
_cell_length_b                    14.535890
_cell_length_c                    10.902532
_cell_angle_alpha                 90.000000
_cell_angle_beta                  89.993693
_cell_angle_gamma                 90.000000
_cell_volume                      2529.372871
_symmetry_space_group_name_H-M    P1
_symmetry_Int_Tables_number       1
loop_
    _symmetry_equiv_pos_site_id
    _symmetry_equiv_pos_as_xyz
    1  x,y,z
loop_
    _atom_site_type_symbol
    _atom_site_label
    _atom_site_fract_x
    _atom_site_fract_y
    _atom_site_fract_z
    _atom_type_partial_charge
    O   O1   0.384870  0.574419  0.468927  -0.617531
    O   O2   0.623203  0.423755  0.468504  -0.621701
    O   O3   0.623180  0.574221  0.541600  -0.626211
    O   O4   0.384833  0.423622  0.540824  -0.612640
    C   C1   0.255839  0.499041  0.504835  -0.094055
    C   C2   0.752203  0.499006  0.505049  -0.105676
    C   C3   0.345750  0.499024  0.504853  0.653620
    C   C4   0.662293  0.498992  0.505057  0.682300
    O   O5   0.529172  0.574275  0.330916  -0.590242
    O   O6   0.529042  0.423767  0.679043  -0.606498
    O   O7   0.478932  0.573421  0.679608  -0.604413
    O   O8   0.479059  0.424557  0.330282  -0.571498
    H   H1   0.081071  0.645610  0.504588  0.148847
    H   H2   0.926972  0.352461  0.505244  0.146550
    H   H3   0.926949  0.645598  0.504677  0.173166
    H   H4   0.081092  0.352474  0.505151  0.164060
    C   C5   0.504374  0.499445  0.271533  0.765768
    C   C6   0.504258  0.498598  0.738486  0.815228
    Cu  Cu1  0.504026  0.588369  0.505323  1.157824
    Cu  Cu2  0.504017  0.409639  0.504608  1.151020
    C   C7   0.917617  0.499028  0.504973  0.344757
    C   C8   0.090425  0.499043  0.504865  0.333474
    C   C9   0.503807  0.805556  0.505220  0.487758
    C   C10  0.503531  0.192484  0.500397  0.508073
    C   C11  0.827704  0.499018  0.505021  -0.201476
    C   C12  0.180338  0.499046  0.504839  -0.205770
    H   H5   0.543042  0.188712  0.109224  0.105039
    H   H6   0.533657  0.810773  0.901445  0.113747
    H   H7   0.479448  0.186468  0.904186  0.099364
    H   H8   0.470576  0.810509  0.106871  0.111570
    C   C13  0.474661  0.664382  0.122667  -0.264489
    C   C14  0.478980  0.332649  0.888139  -0.241150
    C   C15  0.532077  0.664530  0.886572  -0.232283
    C   C16  0.536725  0.334805  0.124032  -0.283550
    C   C17  0.485557  0.746299  0.061914  -0.080429
    C   C18  0.492647  0.251238  0.948912  -0.086851
    C   C19  0.519665  0.746432  0.946754  -0.107507
    C   C20  0.527010  0.252460  0.063887  -0.039497
    C   C21  0.511515  0.581153  0.942068  0.226083
    C   C22  0.513828  0.417295  0.068224  0.238697
    C   C23  0.496544  0.581282  0.067564  0.248254
    C   C24  0.498740  0.416572  0.942778  0.230361
    C   C25  0.504785  0.498720  0.875831  -0.432940
    C   C26  0.504879  0.499402  0.134339  -0.415529
    C   C27  0.503395  0.904280  0.503595  -0.245491
    C   C28  0.502983  0.093677  0.494558  -0.221708
    C   C29  0.577323  0.951658  0.519923  0.186056
    C   C30  0.429345  0.045519  0.472348  0.100806
    C   C31  0.429859  0.950301  0.478774  0.333326
    C   C32  0.576278  0.047339  0.521031  0.265286
    H   H9   0.446591  0.668088  0.212335  0.145830
    H   H10  0.450411  0.327764  0.798939  0.127412
    H   H11  0.560497  0.668504  0.797156  0.142583
    H   H12  0.564841  0.332049  0.213751  0.154323
    N   N1   0.503983  0.272048  0.503947  -0.452245
    N   N2   0.504036  0.725958  0.505913  -0.449774
    C   C33  0.960814  0.581192  0.504784  -0.248953
    C   C34  0.047228  0.416880  0.505047  -0.228569
    C   C35  0.047216  0.581199  0.504731  -0.195696
    C   C36  0.960826  0.416873  0.505101  -0.197861
    O   O9   0.644953  0.097234  0.548851  -0.337303
    C   C37  0.688800  0.084621  0.653443  0.736466
    O   O10  0.661386  0.035489  0.734748  -0.512776
    C   C38  0.769123  0.134792  0.672186  -0.462124
    H   H13  0.757663  0.209938  0.666938  0.152884
    H   H14  0.814431  0.114466  0.599979  0.133107
    H   H15  0.795098  0.117344  0.763614  0.149948
    O   O11  0.359025  0.901121  0.463594  -0.393280
    C   C39  0.312054  0.906427  0.360914  0.800506
    O   O12  0.339180  0.944575  0.269570  -0.516794
    C   C40  0.228748  0.860424  0.356718  -0.490317
    H   H16  0.236529  0.785860  0.375000  0.154686
    H   H17  0.200505  0.870198  0.264703  0.150757
    H   H18  0.187162  0.890953  0.427322  0.135565
    O   O13  0.356106  0.090099  0.454978  -0.296946
    C   C41  0.343741  0.150406  0.362480  0.703247
    O   O14  0.395072  0.157529  0.280175  -0.436709
    C   C42  0.264826  0.204913  0.357523  -0.486159
    H   H19  0.225420  0.188069  0.438241  0.112635
    H   H20  0.230218  0.187920  0.272282  0.156847
    H   H21  0.280064  0.279345  0.358338  0.171337
    O   O15  0.648481  0.903021  0.535895  -0.283116
    C   C43  0.718086  0.917455  0.468125  0.751989
    O   O16  0.715668  0.966719  0.377657  -0.522832
    C   C44  0.797272  0.869012  0.500420  -0.502191
    H   H22  0.787077  0.826252  0.583331  0.122726
    H   H23  0.847073  0.920355  0.519009  0.157792
    H   H24  0.816643  0.824347  0.422980  0.171108
