# Generated by REPEAT Assigner based on pymatgen
data_DB0-m3_o6_o25_f0_nbo.sym.153
_audit_creation_date              2022-05-24
_audit_creation_method            REPEAT_Assigner
_cell_length_a                    27.818782
_cell_length_b                    27.830740
_cell_length_c                    27.950621
_cell_angle_alpha                 109.298402
_cell_angle_beta                  109.695264
_cell_angle_gamma                 109.205129
_cell_volume                      16702.136115
_symmetry_space_group_name_H-M    P1
_symmetry_Int_Tables_number       1
loop_
    _symmetry_equiv_pos_site_id
    _symmetry_equiv_pos_as_xyz
    1  x,y,z
loop_
    _atom_site_type_symbol
    _atom_site_label
    _atom_site_fract_x
    _atom_site_fract_y
    _atom_site_fract_z
    _atom_type_partial_charge
    O   O1    0.931333  0.976307  0.528035  -0.680735
    O   O2    0.930461  0.903918  0.456296  -0.659201
    C   C1    0.911480  0.921083  0.492197  0.748320
    O   O3    0.932559  0.038086  0.464248  -0.680680
    O   O4    0.931620  0.964029  0.394186  -0.667857
    C   C2    0.913036  0.000982  0.409657  0.654632
    Zn  Zn1   0.992496  0.049656  0.539016  1.304758
    Zn  Zn2   0.994285  0.955070  0.447487  1.291960
    O   O5    0.056343  0.100810  0.530231  -0.660344
    O   O6    0.055472  0.028427  0.458490  -0.642037
    O   O7    0.055182  0.040722  0.592331  -0.668395
    O   O8    0.054236  0.966664  0.522255  -0.680514
    C   C3    0.075330  0.083660  0.494332  0.712280
    C   C4    0.073683  0.003685  0.576847  0.715810
    C   C5    0.702944  0.985000  0.238273  -0.179227
    C   C6    0.735007  0.951169  0.226749  -0.345789
    H   H1    0.719459  0.905553  0.218466  0.097150
    H   H2    0.660197  0.966884  0.236805  0.080506
    C   C7    0.869862  0.001614  0.364384  0.143889
    C   C8    0.626079  0.008517  0.121127  0.103083
    C   C9    0.760228  0.037497  0.291744  -0.199239
    C   C10   0.791885  0.004101  0.279374  0.883626
    C   C11   0.771649  0.061814  0.253031  0.184067
    C   C12   0.714398  0.009859  0.199651  0.582526
    C   C13   0.803369  0.028311  0.241024  -0.033797
    C   C14   0.746424  0.976344  0.188487  0.283575
    C   C15   0.834239  0.002469  0.326063  -0.629179
    C   C16   0.665538  0.008914  0.156816  -0.533334
    H   H3    0.764818  0.059741  0.335319  0.061453
    C   C17   0.753015  0.710232  0.503327  -0.319393
    H   H4    0.759175  0.676273  0.510085  0.191027
    C   C18   0.701962  0.711291  0.496262  0.318836
    C   C19   0.693054  0.754589  0.488391  -0.236880
    H   H5    0.652950  0.755275  0.482825  0.161237
    C   C20   0.735349  0.797032  0.487706  -0.208427
    H   H6    0.728449  0.831052  0.481536  0.165400
    C   C21   0.786455  0.796109  0.494805  0.250529
    C   C22   0.795539  0.752657  0.502438  0.162059
    C   C23   0.657968  0.667165  0.497096  -0.211964
    C   C24   0.830108  0.840173  0.493559  -0.220983
    C   C25   0.867093  0.877119  0.492784  -0.073963
    C   C26   0.620868  0.630056  0.497612  -0.061749
    C   C27   0.292569  0.009570  0.746387  -0.323736
    H   H7    0.333142  0.015354  0.747205  0.191887
    C   C28   0.283962  0.002673  0.789954  0.329032
    C   C29   0.233060  0.996123  0.790840  -0.247041
    H   H8    0.226521  0.990760  0.825131  0.166230
    C   C30   0.190633  0.996626  0.748047  -0.207102
    H   H9    0.150615  0.991514  0.748580  0.162572
    C   C31   0.199196  0.003627  0.704500  0.271628
    C   C32   0.249973  0.009861  0.703187  0.161358
    C   C33   0.328488  0.002807  0.834732  -0.229334
    C   C34   0.154698  0.003599  0.659781  -0.255358
    C   C35   0.117623  0.003663  0.622009  -0.026623
    C   C36   0.366274  0.003167  0.872240  -0.035649
    C   C37   0.264332  0.233040  0.452722  -0.120099
    C   C38   0.290299  0.291789  0.494233  0.262198
    C   C39   0.273016  0.307621  0.534913  -0.226699
    H   H10   0.293578  0.353288  0.566925  0.159930
    C   C40   0.229849  0.265867  0.535036  -0.222735
    H   H11   0.216578  0.278525  0.567191  0.164758
    C   C41   0.203202  0.207974  0.493877  0.259927
    C   C42   0.219518  0.190833  0.452474  0.036289
    C   C43   0.334909  0.338026  0.496190  -0.205011
    C   C44   0.158142  0.164466  0.494283  -0.207561
    C   C45   0.120322  0.127643  0.494355  -0.076188
    C   C46   0.372335  0.377633  0.498684  -0.061237
    O   O9    0.461344  0.033413  0.059190  -0.673224
    O   O10   0.533036  0.105056  0.059118  -0.671158
    C   C47   0.497178  0.088505  0.078382  0.778112
    O   O11   0.525547  0.971663  0.058973  -0.667944
    O   O12   0.595551  0.044990  0.058915  -0.650185
    C   C48   0.580275  0.008625  0.078026  0.626254
    Zn  Zn3   0.450290  0.959516  0.998929  1.299926
    Zn  Zn4   0.541767  0.053095  0.995896  1.296921
    O   O13   0.459042  0.907559  0.935725  -0.670461
    O   O14   0.530768  0.979204  0.935678  -0.687541
    O   O15   0.396477  0.967595  0.935871  -0.658657
    O   O16   0.466472  0.040875  0.935792  -0.675367
    C   C49   0.494951  0.924105  0.916504  0.776478
    C   C50   0.411748  0.003961  0.916726  0.699958
    O   O17   0.460479  0.443959  0.400713  -0.673520
    O   O18   0.530795  0.442044  0.472426  -0.696973
    C   C51   0.495576  0.423634  0.417376  0.758588
    O   O19   0.521259  0.565821  0.461265  -0.655824
    O   O20   0.593243  0.567250  0.534620  -0.682573
    C   C52   0.576473  0.585801  0.497930  0.728753
    Zn  Zn5   0.449182  0.504973  0.452384  1.301458
    Zn  Zn6   0.544043  0.504666  0.546084  1.311973
    O   O21   0.462413  0.567560  0.526060  -0.679069
    O   O22   0.532728  0.565662  0.597752  -0.660323
    O   O23   0.399963  0.442284  0.463708  -0.683231
    O   O24   0.471948  0.443716  0.537090  -0.682728
    C   C53   0.497582  0.585935  0.581116  0.716724
    C   C54   0.416741  0.423781  0.500419  0.756661
    H   H12   0.500259  0.267275  0.165399  0.193264
    C   C55   0.498022  0.305254  0.244673  0.072633
    C   C56   0.496589  0.298433  0.291000  0.340619
    C   C57   0.495199  0.249720  0.294339  -0.487193
    H   H13   0.494306  0.245575  0.331159  0.248338
    C   C58   0.495216  0.207270  0.251114  0.323103
    C   C59   0.496772  0.214101  0.204968  0.138016
    C   C60   0.498242  0.262807  0.201626  -0.283590
    C   C61   0.496009  0.342095  0.335721  -0.220538
    C   C62   0.497052  0.170145  0.160266  -0.118930
    C   C63   0.497169  0.132973  0.122864  -0.149401
    C   C64   0.495721  0.379156  0.373056  -0.078050
    H   H14   0.588348  0.846785  0.825346  0.163193
    C   C65   0.548268  0.763525  0.749652  -0.232738
    H   H15   0.588967  0.770378  0.749977  0.169084
    C   C66   0.496744  0.711956  0.706939  0.287047
    C   C67   0.444516  0.702998  0.706089  0.146286
    C   C68   0.444423  0.746100  0.748693  -0.298967
    H   H16   0.404543  0.740025  0.749700  0.188584
    C   C69   0.496014  0.797639  0.791350  0.276383
    C   C70   0.547926  0.806371  0.791849  -0.215191
    C   C71   0.497320  0.667775  0.662688  -0.250701
    C   C72   0.495631  0.842189  0.835398  -0.169085
    C   C73   0.495296  0.879585  0.872380  -0.110192
    C   C74   0.497509  0.630480  0.625468  -0.034124
    N   N1    0.257646  0.017433  0.658161  -0.218841
    C   C75   0.280763  0.076505  0.668417  0.074236
    C   C76   0.344783  0.102520  0.685193  0.252297
    O   O25   0.351055  0.067435  0.641372  -0.424613
    C   C77   0.339613  0.015783  0.643857  0.285103
    C   C78   0.275721  0.981290  0.626799  -0.045915
    H   H17   0.276563  0.103720  0.704323  0.005650
    H   H18   0.255514  0.076341  0.627989  0.027923
    H   H19   0.371605  0.107707  0.728135  -0.025315
    H   H20   0.360314  0.146712  0.689587  0.001135
    H   H21   0.370047  0.025086  0.687548  -0.033839
    H   H22   0.347728  0.988207  0.612034  0.000581
    H   H23   0.269087  0.943815  0.634861  0.036965
    H   H24   0.247842  0.963500  0.579273  0.053911
    N   N2    0.187970  0.130241  0.410752  -0.130249
    C   C79   0.219739  0.100243  0.400831  -0.073093
    C   C80   0.177523  0.035297  0.370123  0.200761
    O   O26   0.131691  0.018056  0.315943  -0.384120
    C   C81   0.099570  0.045586  0.327333  0.096593
    C   C82   0.137301  0.111625  0.357758  -0.047612
    H   H25   0.256932  0.114040  0.443125  0.049835
    H   H26   0.235239  0.108165  0.371159  0.033266
    H   H27   0.160194  0.024688  0.397859  -0.000915
    H   H28   0.201491  0.011302  0.362606  0.029100
    H   H29   0.082214  0.033169  0.354333  0.033124
    H   H30   0.061687  0.030897  0.285180  0.070560
    H   H31   0.111666  0.132515  0.368017  0.060600
    H   H32   0.150793  0.123666  0.328589  0.034002
    N   N3    0.282285  0.216342  0.411001  0.248024
    C   C83   0.258829  0.224709  0.361656  -0.132480
    C   C84   0.305718  0.257294  0.350817  0.209309
    O   O27   0.343543  0.234368  0.353363  -0.421805
    C   C85   0.377342  0.252817  0.412320  0.213386
    C   C86   0.340317  0.222244  0.433501  -0.105445
    H   H33   0.234782  0.248758  0.368589  0.025754
    H   H34   0.227559  0.181173  0.321830  0.032243
    H   H35   0.329652  0.304970  0.381593  0.012696
    H   H36   0.283737  0.251051  0.306257  0.027037
    H   H37   0.400082  0.301012  0.439710  0.015700
    H   H38   0.412301  0.240826  0.417374  0.018045
    H   H39   0.364116  0.246195  0.482010  0.025342
    H   H40   0.335534  0.177960  0.419038  0.007873
    N   N4    0.500474  0.356221  0.243002  -0.175438
    C   C87   0.558043  0.407134  0.276790  0.054703
    C   C88   0.580953  0.417366  0.237149  0.236643
    O   O28   0.541724  0.423267  0.195739  -0.430298
    C   C89   0.491854  0.367753  0.157583  0.323623
    C   C90   0.460585  0.349055  0.188927  -0.070829
    H   H41   0.588677  0.400808  0.308331  0.008104
    H   H42   0.555598  0.445938  0.301238  0.032794
    H   H43   0.588388  0.381263  0.215953  -0.016847
    H   H44   0.623859  0.458561  0.264123  0.006527
    H   H45   0.503181  0.335166  0.136682  -0.047969
    H   H46   0.461048  0.369862  0.121877  -0.008284
    H   H47   0.424814  0.302793  0.159690  0.046340
    H   H48   0.440448  0.376651  0.199008  0.053967
    N   N5    0.494316  0.157037  0.253321  -0.273209
    C   C91   0.442773  0.120582  0.251758  -0.081942
    C   C92   0.444342  0.065889  0.248897  0.211816
    O   O29   0.494273  0.080828  0.298428  -0.409243
    C   C93   0.543283  0.113111  0.296109  0.215632
    C   C94   0.546623  0.170124  0.301195  -0.032912
    H   H49   0.403018  0.108249  0.212463  0.056946
    H   H50   0.441478  0.143792  0.291645  0.066171
    H   H51   0.443577  0.040754  0.208232  0.008938
    H   H52   0.404586  0.037840  0.247877  0.030413
    H   H53   0.541516  0.087427  0.254986  0.007787
    H   H54   0.583609  0.123349  0.333340  0.026656
    H   H55   0.585563  0.195251  0.299311  0.040546
    H   H56   0.550586  0.196078  0.343526  0.033869
    N   N6    0.392399  0.649425  0.662127  -0.209317
    C   C95   0.382572  0.601500  0.673785  0.057470
    C   C96   0.336232  0.590913  0.691667  0.228428
    O   O30   0.284377  0.580121  0.647916  -0.425544
    C   C97   0.295513  0.633342  0.649011  0.304885
    C   C98   0.340975  0.651866  0.630653  -0.048817
    H   H57   0.424009  0.611754  0.709602  0.013286
    H   H58   0.367755  0.561378  0.633739  0.031337
    H   H59   0.352234  0.628678  0.734289  -0.015790
    H   H60   0.327411  0.551812  0.697195  0.011002
    H   H61   0.308845  0.667726  0.692509  -0.040425
    H   H62   0.254156  0.627411  0.617231  -0.001751
    H   H63   0.353546  0.696759  0.637505  0.034299
    H   H64   0.320801  0.621663  0.583248  0.053442
    N   N7    0.743244  0.943410  0.133942  -0.219331
    C   C99   0.707959  0.945668  0.084503  -0.036843
    C   C100  0.715271  0.915585  0.033618  0.137932
    O   O31   0.696380  0.856802  0.018381  -0.394826
    C   C101  0.734810  0.856622  0.065901  0.183299
    C   C102  0.729478  0.884158  0.119139  0.035302
    H   H65   0.722605  0.991895  0.095235  0.030902
    H   H66   0.660967  0.922259  0.071498  0.059203
    H   H67   0.761721  0.938678  0.044758  0.018446
    H   H68   0.687852  0.917533  0.995673  0.047980
    H   H69   0.780856  0.880070  0.076049  0.014613
    H   H70   0.722977  0.810621  0.054328  0.028968
    H   H71   0.761059  0.883774  0.155820  -0.010565
    H   H72   0.683959  0.858403  0.109288  0.015267
    N   N8    0.859632  0.052222  0.243301  -0.558743
    C   C103  0.860939  0.076432  0.205184  0.057683
    C   C104  0.922954  0.105158  0.215940  0.215616
    O   O32   0.941314  0.063721  0.203311  -0.407712
    C   C105  0.943248  0.043899  0.243470  0.167430
    C   C106  0.882222  0.012260  0.233997  0.183262
    H   H73   0.847625  0.110108  0.213707  0.000537
    H   H74   0.831459  0.041432  0.158839  0.024976
    H   H75   0.953200  0.141493  0.261794  0.007888
    H   H76   0.923397  0.123937  0.186644  0.014263
    H   H77   0.973481  0.080722  0.289100  0.018281
    H   H78   0.959866  0.012540  0.236314  0.013291
    H   H79   0.885230  0.995332  0.264764  0.004960
    H   H80   0.853863  0.975009  0.188674  -0.010724
    N   N9    0.797586  0.123902  0.271111  -0.189514
    C   C107  0.766837  0.141965  0.234474  -0.029272
    C   C108  0.722737  0.151974  0.250552  0.262653
    O   O33   0.752027  0.196134  0.308943  -0.458188
    C   C109  0.775940  0.174142  0.343196  0.323145
    C   C110  0.822536  0.163999  0.332124  -0.148368
    H   H81   0.746171  0.110173  0.187624  0.015071
    H   H82   0.799062  0.184183  0.242590  0.056147
    H   H83   0.689050  0.111200  0.243239  -0.019240
    H   H84   0.699914  0.166283  0.222105  0.017383
    H   H85   0.740895  0.133574  0.334778  -0.040202
    H   H86   0.797169  0.207005  0.389986  -0.000417
    H   H87   0.843029  0.148054  0.360050  0.038218
    H   H88   0.857728  0.206612  0.344117  0.086799
    N   N10   0.848666  0.753153  0.510161  -0.205004
    C   C111  0.897734  0.790287  0.568913  0.062450
    C   C112  0.908824  0.754002  0.596705  0.216931
    O   O34   0.918382  0.712710  0.562550  -0.424555
    C   C113  0.864256  0.671604  0.511470  0.323249
    C   C114  0.845054  0.699197  0.475373  -0.070311
    H   H89   0.888430  0.821661  0.595444  0.010397
    H   H90   0.937430  0.815053  0.567868  0.036656
    H   H91   0.871620  0.732754  0.602712  -0.013513
    H   H92   0.948763  0.783522  0.640606  0.012247
    H   H93   0.830507  0.650989  0.521647  -0.047385
    H   H94   0.869240  0.636024  0.484736  -0.006988
    H   H95   0.799552  0.667694  0.438337  0.045236
    H   H96   0.874365  0.708796  0.457003  0.055855
