# generated using pymatgen
data_ZnH22C41N(ClO)4
_symmetry_space_group_name_H-M   'P 1'
_cell_length_a   16.12861200
_cell_length_b   14.99419000
_cell_length_c   15.96906600
_cell_angle_alpha   90.00000000
_cell_angle_beta   89.98897400
_cell_angle_gamma   90.00000000
_symmetry_Int_Tables_number   1
_chemical_formula_structural   ZnH22C41N(ClO)4
_chemical_formula_sum   'Zn2 H44 C82 N2 Cl8 O8'
_cell_volume   3861.88655421
_cell_formula_units_Z   2
loop_
 _symmetry_equiv_pos_site_id
 _symmetry_equiv_pos_as_xyz
  1  'x, y, z'
loop_
 _atom_site_type_symbol
 _atom_site_label
 _atom_site_symmetry_multiplicity
 _atom_site_fract_x
 _atom_site_fract_y
 _atom_site_fract_z
 _atom_site_occupancy
  Zn  Zn1  1  0.50818300  0.60678400  0.49942300  1
  Zn  Zn2  1  0.50818200  0.40354700  0.50308000  1
  H  H1  1  0.41383600  0.61502400  0.91287700  1
  H  H2  1  0.38740800  0.44828000  0.93079400  1
  H  H3  1  0.46428100  0.37216800  0.90796100  1
  H  H4  1  0.51405300  0.64660100  0.94118600  1
  H  H5  1  0.61675100  0.56735200  0.06966000  1
  H  H6  1  0.62199300  0.45144100  0.07913600  1
  H  H7  1  0.62873500  0.55817500  0.93417600  1
  H  H8  1  0.62149200  0.43988300  0.93576100  1
  H  H9  1  0.08428800  0.64546900  0.52224800  1
  H  H10  1  0.08470500  0.36488800  0.48002600  1
  H  H11  1  0.93172500  0.64545200  0.52097600  1
  H  H12  1  0.93212700  0.36486900  0.47877600  1
  H  H13  1  0.62256400  0.94331700  0.69358000  1
  H  H14  1  0.82986200  0.77238500  0.65457700  1
  H  H15  1  0.80305300  0.77370600  0.50301400  1
  H  H16  1  0.68655500  0.86031900  0.44643200  1
  H  H17  1  0.57902100  0.14713700  0.67898000  1
  H  H18  1  0.83098800  0.23001500  0.66255300  1
  H  H19  1  0.84657100  0.14611200  0.53117500  1
  H  H20  1  0.72842600  0.06329000  0.47313400  1
  H  H21  1  0.30151300  0.55719000  0.95015500  1
  H  H22  1  0.12685000  0.61450800  0.13822100  1
  H  H23  1  0.23828900  0.64562100  0.23858500  1
  H  H24  1  0.38157200  0.63418900  0.19766700  1
  H  H25  1  0.35226000  0.44970700  0.18747800  1
  H  H26  1  0.14586300  0.29652000  0.11545900  1
  H  H27  1  0.22240200  0.23973500  0.99380600  1
  H  H28  1  0.36192200  0.28793400  0.96621100  1
  H  H29  1  0.46456700  0.32760700  0.19393100  1
  H  H30  1  0.63887300  0.12673600  0.13678100  1
  H  H31  1  0.64744100  0.18040600  0.99198100  1
  H  H32  1  0.56994800  0.30525500  0.94638100  1
  H  H33  1  0.39475000  0.75030900  0.99639200  1
  H  H34  1  0.53962600  0.92275400  0.14650900  1
  H  H35  1  0.60649700  0.79383000  0.21255500  1
  H  H36  1  0.57169300  0.64608400  0.17351900  1
  H  H37  1  0.38630800  0.07769300  0.31908300  1
  H  H38  1  0.16884600  0.22428300  0.38040400  1
  H  H39  1  0.20612200  0.21782200  0.52965000  1
  H  H40  1  0.33138800  0.13739100  0.57413000  1
  H  H41  1  0.41594500  0.91530000  0.31125900  1
  H  H42  1  0.17699900  0.79998400  0.34450800  1
  H  H43  1  0.18757800  0.82414800  0.49652700  1
  H  H44  1  0.31039500  0.89868700  0.55536000  1
  C  C1  1  0.34621100  0.50523200  0.50314300  1
  C  C2  1  0.50594400  0.50158600  0.33766300  1
  C  C3  1  0.67016300  0.50509600  0.49927000  1
  C  C4  1  0.51019900  0.50873700  0.66487100  1
  C  C5  1  0.44915800  0.59119100  0.04731000  1
  C  C6  1  0.45559300  0.41320000  0.04313600  1
  C  C7  1  0.45130100  0.43028800  0.94803100  1
  C  C8  1  0.46645600  0.59468800  0.95251500  1
  C  C9  1  0.50965000  0.51022800  0.75467000  1
  C  C10  1  0.49368500  0.50305500  0.08054500  1
  C  C11  1  0.50417500  0.50856700  0.92151600  1
  C  C12  1  0.59051300  0.50156800  0.95668100  1
  C  C13  1  0.58485400  0.50576900  0.05090500  1
  C  C14  1  0.50799300  0.51027500  0.83007700  1
  C  C15  1  0.49755100  0.50044600  0.17240500  1
  C  C16  1  0.50196700  0.50014400  0.24791200  1
  C  C17  1  0.96534900  0.58383100  0.51192400  1
  C  C18  1  0.96557700  0.42652100  0.48825800  1
  C  C19  1  0.92274300  0.50517600  0.49971500  1
  C  C20  1  0.05106800  0.42651900  0.48900700  1
  C  C21  1  0.05083400  0.58383000  0.51268500  1
  C  C22  1  0.09366400  0.50516700  0.50130400  1
  C  C23  1  0.83380300  0.50514400  0.49923800  1
  C  C24  1  0.18259000  0.50516500  0.50223200  1
  C  C25  1  0.25727700  0.50519500  0.50285800  1
  C  C26  1  0.75910700  0.50511900  0.49907100  1
  C  C27  1  0.44186600  0.95982800  0.47072400  1
  C  C28  1  0.44004000  0.05189300  0.47633600  1
  C  C29  1  0.51006600  0.91323700  0.49897800  1
  C  C30  1  0.50712800  0.09711700  0.50908700  1
  C  C31  1  0.57696100  0.95826600  0.53293100  1
  C  C32  1  0.57545200  0.05064400  0.53803000  1
  C  C33  1  0.50899200  0.81735700  0.49747500  1
  C  C34  1  0.50779400  0.19301000  0.50756100  1
  C  C35  1  0.64714500  0.90745800  0.56638900  1
  C  C36  1  0.66241000  0.90657700  0.65147800  1
  C  C37  1  0.72801100  0.85819200  0.68307500  1
  C  C38  1  0.77851900  0.81044700  0.62977200  1
  C  C39  1  0.76347100  0.81117000  0.54481400  1
  C  C40  1  0.69795200  0.85963200  0.51313200  1
  C  C41  1  0.64615500  0.09990200  0.57236000  1
  C  C42  1  0.63765700  0.14706900  0.64618000  1
  C  C43  1  0.70394700  0.19372700  0.67853100  1
  C  C44  1  0.77900600  0.19336700  0.63723800  1
  C  C45  1  0.78774400  0.14627800  0.56361100  1
  C  C46  1  0.72145100  0.09961200  0.53117700  1
  C  C47  1  0.35688000  0.59329000  0.07015800  1
  C  C48  1  0.29213200  0.57711000  0.01397000  1
  C  C49  1  0.21051100  0.58458400  0.03870800  1
  C  C50  1  0.19094300  0.60920100  0.11908700  1
  C  C51  1  0.25336000  0.62661600  0.17508900  1
  C  C52  1  0.33515000  0.61995100  0.15088300  1
  C  C53  1  0.36758900  0.38338400  0.06778800  1
  C  C54  1  0.32555900  0.40786400  0.14061400  1
  C  C55  1  0.24647400  0.37747200  0.15692200  1
  C  C56  1  0.20787200  0.32014400  0.10252000  1
  C  C57  1  0.25069600  0.28861400  0.03451700  1
  C  C58  1  0.33013700  0.31783300  0.01864700  1
  C  C59  1  0.50993700  0.33236900  0.06655200  1
  C  C60  1  0.50478600  0.29839500  0.14765400  1
  C  C61  1  0.55118000  0.22598600  0.17268900  1
  C  C62  1  0.60267100  0.18367600  0.11712300  1
  C  C63  1  0.60736500  0.21388900  0.03620500  1
  C  C64  1  0.56166900  0.28670400  0.01070300  1
  C  C65  1  0.48057200  0.68235000  0.07829700  1
  C  C66  1  0.44245700  0.75720800  0.04346800  1
  C  C67  1  0.46394500  0.84248000  0.06717600  1
  C  C68  1  0.52305500  0.85586400  0.12759000  1
  C  C69  1  0.56043700  0.78357900  0.16435000  1
  C  C70  1  0.53968700  0.69796500  0.14069400  1
  C  C71  1  0.36661200  0.10170500  0.44950800  1
  C  C72  1  0.34661300  0.10763600  0.36570800  1
  C  C73  1  0.27517000  0.15041500  0.34107900  1
  C  C74  1  0.22478900  0.19039500  0.39982800  1
  C  C75  1  0.24562900  0.18662700  0.48346900  1
  C  C76  1  0.31609800  0.14176900  0.50835700  1
  C  C77  1  0.37086400  0.91123100  0.43694600  1
  C  C78  1  0.36606900  0.89467700  0.35213300  1
  C  C79  1  0.29588700  0.85638300  0.31877900  1
  C  C80  1  0.23200200  0.83031500  0.37067000  1
  C  C81  1  0.23783900  0.84413500  0.45586000  1
  C  C82  1  0.30681300  0.88558300  0.48890200  1
  N  N1  1  0.50818700  0.27018000  0.50582000  1
  N  N2  1  0.50827900  0.74016100  0.49685700  1
  Cl  Cl1  1  0.74686400  0.85699500  0.79104300  1
  Cl  Cl2  1  0.69269200  0.25342600  0.77211300  1
  Cl  Cl3  1  0.13115000  0.56182600  0.96706500  1
  Cl  Cl4  1  0.19571800  0.41033100  0.24885900  1
  Cl  Cl5  1  0.54452000  0.18790200  0.27607700  1
  Cl  Cl6  1  0.41510000  0.93413700  0.02049200  1
  Cl  Cl7  1  0.24771500  0.15151000  0.23519400  1
  Cl  Cl8  1  0.28653600  0.84528000  0.21014400  1
  O  O1  1  0.38465600  0.58234600  0.50147000  1
  O  O2  1  0.38466800  0.42812100  0.50413300  1
  O  O3  1  0.50654600  0.57947400  0.37518100  1
  O  O4  1  0.50655000  0.42521200  0.37784300  1
  O  O5  1  0.63169300  0.58218400  0.49840700  1
  O  O6  1  0.63170400  0.42801200  0.50105400  1
  O  O7  1  0.50962100  0.58503800  0.62469600  1
  O  O8  1  0.50964200  0.43092600  0.62735900  1
