data_DB0-m3_o12_o28_f0_pcu.sym.61_repeat
_audit_creation_date              2024-02-23
_audit_creation_method            'Materials Studio'
_symmetry_space_group_name_H-M    'P1'
_symmetry_Int_Tables_number       1
_symmetry_cell_setting            triclinic
loop_
_symmetry_equiv_pos_as_xyz
  x,y,z
_cell_length_a                    10.0016
_cell_length_b                    11.2679
_cell_length_c                    23.4289
_cell_angle_alpha                 89.9985
_cell_angle_beta                  80.7491
_cell_angle_gamma                 92.4414
loop_
_atom_site_label
_atom_site_type_symbol
_atom_site_fract_x
_atom_site_fract_y
_atom_site_fract_z
_atom_site_U_iso_or_equiv
_atom_site_adp_type
_atom_site_occupancy
O1     O     0.42024   0.68600   0.50512   0.00000  Uiso   1.00
O2     O     0.57078   0.30471   0.49172   0.00000  Uiso   1.00
O3     O     0.64972   0.65454   0.48860   0.00000  Uiso   1.00
O4     O     0.34130   0.33617   0.50823   0.00000  Uiso   1.00
C1     C     0.54732   0.72513   0.49628   0.00000  Uiso   1.00
C2     C     0.44370   0.26558   0.50055   0.00000  Uiso   1.00
O5     O     0.38301   0.50861   0.59157   0.00000  Uiso   1.00
O6     O     0.60801   0.48209   0.40528   0.00000  Uiso   1.00
O7     O     0.61223   0.47646   0.57502   0.00000  Uiso   1.00
O8     O     0.37880   0.51427   0.42180   0.00000  Uiso   1.00
C3     C     0.49791   0.49151   0.60999   0.00000  Uiso   1.00
C4     C     0.49316   0.49920   0.38684   0.00000  Uiso   1.00
Zn1    Zn    0.34425   0.51610   0.50942   0.00000  Uiso   1.00
Zn2    Zn    0.64678   0.47461   0.48742   0.00000  Uiso   1.00
C5     C     0.48006   0.39597   0.11966   0.00000  Uiso   1.00
C6     C     0.51401   0.59512   0.87702   0.00000  Uiso   1.00
N1     N     0.49284   0.50149   0.14537   0.00000  Uiso   1.00
N2     N     0.50195   0.48951   0.85123   0.00000  Uiso   1.00
C7     C     0.50755   0.60322   0.11500   0.00000  Uiso   1.00
C8     C     0.49113   0.38743   0.88132   0.00000  Uiso   1.00
C9     C     0.51070   0.60133   0.05592   0.00000  Uiso   1.00
C10    C     0.48951   0.38905   0.94031   0.00000  Uiso   1.00
C11    C     0.49854   0.49497   0.02786   0.00000  Uiso   1.00
C12    C     0.50145   0.49549   0.96839   0.00000  Uiso   1.00
C13    C     0.48364   0.38915   0.05960   0.00000  Uiso   1.00
C14    C     0.51634   0.60143   0.93668   0.00000  Uiso   1.00
C15    C     0.52841   0.70619   0.02502   0.00000  Uiso   1.00
C16    C     0.47594   0.28374   0.97099   0.00000  Uiso   1.00
C17    C     0.53232   0.70878   0.96594   0.00000  Uiso   1.00
C18    C     0.47306   0.28140   0.03006   0.00000  Uiso   1.00
O9     O     0.46218   0.29923   0.15376   0.00000  Uiso   1.00
O10    O     0.52379   0.69260   0.84353   0.00000  Uiso   1.00
O11    O     0.52080   0.70647   0.14265   0.00000  Uiso   1.00
O12    O     0.47901   0.28409   0.85359   0.00000  Uiso   1.00
H1     H     0.54201   0.78840   0.04725   0.00000  Uiso   1.00
H2     H     0.46854   0.20083   0.94841   0.00000  Uiso   1.00
C19    C     0.61205   0.45290   0.75300   0.00000  Uiso   1.00
C20    C     0.60598   0.46919   0.22779   0.00000  Uiso   1.00
H3     H     0.70133   0.42669   0.76956   0.00000  Uiso   1.00
H4     H     0.69426   0.44195   0.19867   0.00000  Uiso   1.00
C21    C     0.61187   0.45474   0.69414   0.00000  Uiso   1.00
C22    C     0.60633   0.46869   0.28658   0.00000  Uiso   1.00
H5     H     0.70134   0.42865   0.66547   0.00000  Uiso   1.00
H6     H     0.69557   0.44051   0.30249   0.00000  Uiso   1.00
C23    C     0.49838   0.48900   0.67256   0.00000  Uiso   1.00
C24    C     0.49312   0.50166   0.32425   0.00000  Uiso   1.00
C25    C     0.38525   0.52119   0.71051   0.00000  Uiso   1.00
C26    C     0.38040   0.53677   0.30233   0.00000  Uiso   1.00
H7     H     0.29542   0.54865   0.69483   0.00000  Uiso   1.00
H8     H     0.29092   0.56347   0.33081   0.00000  Uiso   1.00
C27    C     0.38649   0.52080   0.76926   0.00000  Uiso   1.00
C28    C     0.38115   0.53878   0.24338   0.00000  Uiso   1.00
H9     H     0.29828   0.54741   0.79861   0.00000  Uiso   1.00
H10    H     0.29256   0.56572   0.22652   0.00000  Uiso   1.00
C29    C     0.49977   0.48669   0.79062   0.00000  Uiso   1.00
C30    C     0.49361   0.50426   0.20607   0.00000  Uiso   1.00
H11    H     0.61789   0.09014   0.49047   0.00000  Uiso   1.00
H12    H     0.37314   0.90056   0.50636   0.00000  Uiso   1.00
C31    C     0.57737   0.85387   0.49425   0.00000  Uiso   1.00
C32    C     0.41366   0.13684   0.50258   0.00000  Uiso   1.00
C33    C     0.47867   0.93121   0.49985   0.00000  Uiso   1.00
C34    C     0.51235   0.05949   0.49698   0.00000  Uiso   1.00
H13    H     0.30866   0.10446   0.50931   0.00000  Uiso   1.00
H14    H     0.68236   0.88625   0.48752   0.00000  Uiso   1.00
H15    H     0.11288   0.42516   0.46114   0.00000  Uiso   1.00
H16    H     0.87814   0.56554   0.53570   0.00000  Uiso   1.00
N3     N     0.84564   0.44732   0.47256   0.00000  Uiso   1.00
N4     N     0.14539   0.54339   0.52427   0.00000  Uiso   1.00
C35    C     0.92222   0.50422   0.50304   0.00000  Uiso   1.00
C36    C     0.06881   0.48648   0.49380   0.00000  Uiso   1.00
H17    H     0.09759   0.60019   0.55454   0.00000  Uiso   1.00
H18    H     0.89343   0.39052   0.44229   0.00000  Uiso   1.00
C37    C     0.55756   0.82954   0.93790   0.00000  Uiso   1.00
C38    C     0.70455   0.84608   0.90870   0.00000  Uiso   1.00
C39    C     0.72453   0.96222   0.87500   0.00000  Uiso   1.00
C40    C     0.87193   0.98087   0.84765   0.00000  Uiso   1.00
H19    H     0.54031   0.89891   0.97144   0.00000  Uiso   1.00
H20    H     0.48447   0.84748   0.90852   0.00000  Uiso   1.00
H21    H     0.73417   0.77168   0.87915   0.00000  Uiso   1.00
H22    H     0.77049   0.84833   0.94252   0.00000  Uiso   1.00
H23    H     0.69544   0.03697   0.90455   0.00000  Uiso   1.00
H24    H     0.66048   0.95975   0.84048   0.00000  Uiso   1.00
H25    H     0.93698   0.98459   0.88179   0.00000  Uiso   1.00
H26    H     0.88527   0.06579   0.82305   0.00000  Uiso   1.00
H27    H     0.90197   0.90688   0.81775   0.00000  Uiso   1.00
C41    C     0.45957   0.16027   0.05789   0.00000  Uiso   1.00
C42    C     0.59526   0.12371   0.07216   0.00000  Uiso   1.00
C43    C     0.57270   0.03051   0.11990   0.00000  Uiso   1.00
C44    C     0.70715   0.98164   0.12826   0.00000  Uiso   1.00
H28    H     0.42800   0.09346   0.02746   0.00000  Uiso   1.00
H29    H     0.37772   0.15513   0.09581   0.00000  Uiso   1.00
H30    H     0.65374   0.20124   0.08594   0.00000  Uiso   1.00
H31    H     0.65477   0.08640   0.03271   0.00000  Uiso   1.00
H32    H     0.50480   0.95735   0.10830   0.00000  Uiso   1.00
H33    H     0.52505   0.07067   0.16097   0.00000  Uiso   1.00
H34    H     0.75339   0.93649   0.08830   0.00000  Uiso   1.00
H35    H     0.69015   0.91685   0.16460   0.00000  Uiso   1.00
H36    H     0.77659   0.05516   0.13845   0.00000  Uiso   1.00
