# generated using pymatgen
data_ZnH24C27NO6
_symmetry_space_group_name_H-M   'P 1'
_cell_length_a   15.20282500
_cell_length_b   14.02844300
_cell_length_c   15.06238500
_cell_angle_alpha   90.00000000
_cell_angle_beta   90.00589500
_cell_angle_gamma   90.00000000
_symmetry_Int_Tables_number   1
_chemical_formula_structural   ZnH24C27NO6
_chemical_formula_sum   'Zn2 H48 C54 N2 O12'
_cell_volume   3212.38441374
_cell_formula_units_Z   2
loop_
 _symmetry_equiv_pos_site_id
 _symmetry_equiv_pos_as_xyz
  1  'x, y, z'
loop_
 _atom_site_type_symbol
 _atom_site_label
 _atom_site_symmetry_multiplicity
 _atom_site_fract_x
 _atom_site_fract_y
 _atom_site_fract_z
 _atom_site_occupancy
  Zn  Zn1  1  0.50000000  0.60501300  0.50000000  1
  Zn  Zn2  1  0.50000000  0.38800200  0.50000000  1
  H  H1  1  0.63498000  0.50160300  0.77777500  1
  H  H2  1  0.36501900  0.50160200  0.22222600  1
  H  H3  1  0.28445700  0.50874500  0.08827600  1
  H  H4  1  0.71554300  0.50874700  0.91172400  1
  H  H5  1  0.06164200  0.64174700  0.54270000  1
  H  H6  1  0.93905700  0.35075200  0.54387400  1
  H  H7  1  0.93835800  0.64174800  0.45730000  1
  H  H8  1  0.06094300  0.35075200  0.45612500  1
  H  H9  1  0.22024400  0.64256100  0.53788000  1
  H  H10  1  0.78023600  0.35032400  0.54241600  1
  H  H11  1  0.77975600  0.64256100  0.46212100  1
  H  H12  1  0.21976400  0.35032400  0.45758400  1
  H  H13  1  0.43560700  0.06334600  0.37362700  1
  H  H14  1  0.62653000  0.92971400  0.56230500  1
  H  H15  1  0.56439200  0.06334600  0.62637400  1
  H  H16  1  0.37347000  0.92971400  0.43769500  1
  H  H17  1  0.43465300  0.23661600  0.37703500  1
  H  H18  1  0.62320000  0.75652300  0.56337200  1
  H  H19  1  0.56534700  0.23661600  0.62296500  1
  H  H20  1  0.37680000  0.75652300  0.43662800  1
  H  H21  1  0.33482500  0.35553800  0.82232100  1
  H  H22  1  0.35505000  0.36408700  0.70445800  1
  H  H23  1  0.18265500  0.40707900  0.80175100  1
  H  H24  1  0.20259400  0.43222200  0.68588400  1
  H  H25  1  0.23382700  0.26202000  0.65770600  1
  H  H26  1  0.12692100  0.27646200  0.70836500  1
  H  H27  1  0.21880200  0.23558800  0.77453300  1
  H  H28  1  0.66517600  0.35553900  0.17768000  1
  H  H29  1  0.64495100  0.36408900  0.29554300  1
  H  H30  1  0.81734500  0.40708200  0.19824900  1
  H  H31  1  0.79740700  0.43222600  0.31411500  1
  H  H32  1  0.76617500  0.26202400  0.34229400  1
  H  H33  1  0.87308000  0.27646600  0.29163500  1
  H  H34  1  0.78119900  0.23559100  0.22546800  1
  H  H35  1  0.23901100  0.63745100  0.84324600  1
  H  H36  1  0.30103200  0.65690600  0.94359200  1
  H  H37  1  0.10532300  0.60273100  0.93227600  1
  H  H38  1  0.16701600  0.62134600  0.03348000  1
  H  H39  1  0.20020400  0.78770300  0.98600900  1
  H  H40  1  0.08329700  0.76586800  0.99318400  1
  H  H41  1  0.13648600  0.76905300  0.88583700  1
  H  H42  1  0.76098800  0.63745400  0.15675400  1
  H  H43  1  0.69896600  0.65690800  0.05640800  1
  H  H44  1  0.89467600  0.60273500  0.06772400  1
  H  H45  1  0.83298300  0.62134900  0.96652000  1
  H  H46  1  0.79979400  0.78770600  0.01399100  1
  H  H47  1  0.91670100  0.76587200  0.00681600  1
  H  H48  1  0.86351200  0.76905700  0.11416300  1
  C  C1  1  0.32784300  0.49647700  0.49744500  1
  C  C2  1  0.67215700  0.49647700  0.50255500  1
  C  C3  1  0.50338900  0.49650200  0.32648700  1
  C  C4  1  0.49661100  0.49650200  0.67351300  1
  C  C5  1  0.57424100  0.50012400  0.81505200  1
  C  C6  1  0.42575900  0.50012300  0.18494900  1
  C  C7  1  0.49560800  0.49637600  0.77044700  1
  C  C8  1  0.50439200  0.49637600  0.22955300  1
  C  C9  1  0.41708000  0.49526100  0.81690100  1
  C  C10  1  0.58292000  0.49526200  0.18309900  1
  C  C11  1  0.41814000  0.50192200  0.90960900  1
  C  C12  1  0.58186000  0.50192300  0.09039100  1
  C  C13  1  0.49835600  0.50170600  0.95397800  1
  C  C14  1  0.50164400  0.50170700  0.04602200  1
  C  C15  1  0.57570200  0.50169300  0.90630400  1
  C  C16  1  0.42429800  0.50169300  0.09369600  1
  C  C17  1  0.34103100  0.50929800  0.95918800  1
  C  C18  1  0.65896900  0.50930000  0.04081200  1
  C  C19  1  0.34480600  0.50615700  0.05045700  1
  C  C20  1  0.65519400  0.50615800  0.94954300  1
  C  C21  1  0.09509700  0.57774300  0.52158900  1
  C  C22  1  0.90524000  0.41491100  0.52377300  1
  C  C23  1  0.90490300  0.57774300  0.47841200  1
  C  C24  1  0.09476000  0.41491100  0.47622600  1
  C  C25  1  0.18575200  0.57812800  0.51961000  1
  C  C26  1  0.81452700  0.41479900  0.52390400  1
  C  C27  1  0.81424800  0.57812800  0.48039000  1
  C  C28  1  0.18547200  0.41479900  0.47609600  1
  C  C29  1  0.23146100  0.49654400  0.49731900  1
  C  C30  1  0.76853900  0.49654400  0.50268100  1
  C  C31  1  0.04854500  0.49627700  0.49943800  1
  C  C32  1  0.95145500  0.49627700  0.50056200  1
  C  C33  1  0.46327800  0.09951600  0.43044200  1
  C  C34  1  0.56966800  0.89354500  0.53558200  1
  C  C35  1  0.53672200  0.09951600  0.56955800  1
  C  C36  1  0.43033200  0.89354500  0.46441800  1
  C  C37  1  0.46360200  0.19779400  0.43166800  1
  C  C38  1  0.56845100  0.79526700  0.53528500  1
  C  C39  1  0.53639800  0.19779400  0.56833200  1
  C  C40  1  0.43154900  0.79526700  0.46471500  1
  C  C41  1  0.50000000  0.04903700  0.50000000  1
  C  C42  1  0.50000000  0.94402600  0.50000000  1
  C  C43  1  0.31839200  0.39516500  0.76086000  1
  C  C44  1  0.22072500  0.38551200  0.74232400  1
  C  C45  1  0.19880600  0.28308700  0.71924600  1
  C  C46  1  0.68160900  0.39516700  0.23914000  1
  C  C47  1  0.77927600  0.38551400  0.25767600  1
  C  C48  1  0.80119500  0.28309000  0.28075400  1
  C  C49  1  0.24532400  0.61694300  0.91405200  1
  C  C50  1  0.16109200  0.64187500  0.96266600  1
  C  C51  1  0.14427900  0.74813500  0.95639900  1
  C  C52  1  0.75467400  0.61694500  0.08594800  1
  C  C53  1  0.83890600  0.64187800  0.03733400  1
  C  C54  1  0.85571900  0.74813800  0.04360100  1
  N  N1  1  0.50000000  0.24539900  0.50000000  1
  N  N2  1  0.50000000  0.74762600  0.50000000  1
  O  O1  1  0.36897100  0.57872600  0.49818700  1
  O  O2  1  0.63103900  0.41421100  0.50222300  1
  O  O3  1  0.63102800  0.57872600  0.50181300  1
  O  O4  1  0.36896100  0.41421100  0.49777700  1
  O  O5  1  0.50195500  0.57886200  0.36771400  1
  O  O6  1  0.49783800  0.41422700  0.63223000  1
  O  O7  1  0.49804500  0.57886200  0.63228600  1
  O  O8  1  0.50216200  0.41422700  0.36777000  1
  O  O9  1  0.33966400  0.49186900  0.77012300  1
  O  O10  1  0.66033600  0.49187000  0.22987700  1
  O  O11  1  0.26038600  0.51877000  0.91979600  1
  O  O12  1  0.73961400  0.51877200  0.08020400  1
