# generated using pymatgen
data_Fe2H22C55N2O21
_symmetry_space_group_name_H-M   'P 1'
_cell_length_a   15.77510800
_cell_length_b   27.21225600
_cell_length_c   11.47306100
_cell_angle_alpha   46.13879500
_cell_angle_beta   83.13614900
_cell_angle_gamma   78.59275600
_symmetry_Int_Tables_number   1
_chemical_formula_structural   Fe2H22C55N2O21
_chemical_formula_sum   'Fe2 H22 C55 N2 O21'
_cell_volume   3479.88772064
_cell_formula_units_Z   1
loop_
 _symmetry_equiv_pos_site_id
 _symmetry_equiv_pos_as_xyz
  1  'x, y, z'
loop_
 _atom_site_type_symbol
 _atom_site_label
 _atom_site_symmetry_multiplicity
 _atom_site_fract_x
 _atom_site_fract_y
 _atom_site_fract_z
 _atom_site_occupancy
  Fe  Fe1  1  0.50698400  0.00092000  0.25326000  1
  Fe  Fe2  1  0.49240300  0.00396300  0.73158500  1
  H  H1  1  0.23093400  0.02272000  0.22741900  1
  H  H2  1  0.08278000  0.02517300  0.17621800  1
  H  H3  1  0.17897400  0.98262700  0.88698200  1
  H  H4  1  0.81975800  0.02209500  0.09930100  1
  H  H5  1  0.76857500  0.98478600  0.75305400  1
  H  H6  1  0.91654900  0.98251800  0.80458900  1
  H  H7  1  0.33309500  0.63879200  0.70023400  1
  H  H8  1  0.33361700  0.53675500  0.74596500  1
  H  H9  1  0.65938500  0.36889100  0.27911900  1
  H  H10  1  0.65670900  0.47009700  0.23791100  1
  H  H11  1  0.51301900  0.22850100  0.33249500  1
  H  H12  1  0.48630100  0.36089800  0.82185700  1
  H  H13  1  0.48822700  0.77718200  0.65052800  1
  H  H14  1  0.48233200  0.74672800  0.12646900  1
  H  H15  1  0.49017200  0.64636000  0.16262800  1
  H  H16  1  0.59270700  0.19288300  0.87226500  1
  H  H17  1  0.56917700  0.21250300  0.63398300  1
  H  H18  1  0.37258400  0.33514500  0.23204700  1
  H  H19  1  0.37646800  0.39373800  0.25556100  1
  H  H20  1  0.31232100  0.32424100  0.39013900  1
  H  H21  1  0.34851400  0.36454000  0.49604700  1
  H  H22  1  0.37246500  0.34441000  0.73228500  1
  C  C1  1  0.21980000  0.01428800  0.15163600  1
  C  C2  1  0.13668100  0.01515700  0.12403300  1
  C  C3  1  0.12243000  0.00236600  0.03163300  1
  C  C4  1  0.19115500  0.99031000  0.96375200  1
  C  C5  1  0.27464000  0.98996500  0.98995100  1
  C  C6  1  0.28902300  0.00031900  0.08778300  1
  C  C7  1  0.03584400  0.00291900  0.00359500  1
  C  C8  1  0.96311600  0.00335200  0.98021800  1
  C  C9  1  0.80779300  0.01500700  0.02129000  1
  C  C10  1  0.72446000  0.01514400  0.99498700  1
  C  C11  1  0.71027600  0.00566300  0.89548800  1
  C  C12  1  0.77956900  0.99260300  0.83009600  1
  C  C13  1  0.86257400  0.99183800  0.85790400  1
  C  C14  1  0.87661700  0.00384100  0.95198000  1
  C  C15  1  0.47512600  0.89573600  0.57142500  1
  C  C16  1  0.37628600  0.99410600  0.13146100  1
  C  C17  1  0.65385500  0.01931800  0.08412200  1
  C  C18  1  0.49708300  0.12810300  0.14120300  1
  C  C19  1  0.47758700  0.87823100  0.84912600  1
  C  C20  1  0.34506400  0.98507600  0.90152800  1
  C  C21  1  0.62306700  0.01167600  0.85216500  1
  C  C22  1  0.52048600  0.11070700  0.41176400  1
  C  C23  1  0.54995900  0.58862000  0.03823500  1
  C  C24  1  0.43732200  0.64862100  0.84576200  1
  C  C25  1  0.43745300  0.59146700  0.86923400  1
  C  C26  1  0.49545200  0.53239300  0.97815500  1
  C  C27  1  0.55238400  0.53095800  0.06266100  1
  C  C28  1  0.37930500  0.59283500  0.78574000  1
  C  C29  1  0.37956200  0.53511900  0.81172500  1
  C  C30  1  0.43849600  0.47609200  0.92015900  1
  C  C31  1  0.49631800  0.47498600  0.00280100  1
  C  C32  1  0.55484800  0.41612400  0.11046700  1
  C  C33  1  0.61286300  0.41472100  0.19426600  1
  C  C34  1  0.61136600  0.47194100  0.17095500  1
  C  C35  1  0.43950300  0.41798400  0.94715100  1
  C  C36  1  0.55552200  0.35919000  0.13266500  1
  C  C37  1  0.50977200  0.23606700  0.22734100  1
  C  C38  1  0.51295300  0.17923400  0.24826600  1
  C  C39  1  0.50388600  0.18773100  0.11658700  1
  C  C40  1  0.49331000  0.25377400  0.96311200  1
  C  C41  1  0.49102500  0.31021500  0.94293100  1
  C  C42  1  0.49963500  0.30180200  0.07435000  1
  C  C43  1  0.48581000  0.77032200  0.75552700  1
  C  C44  1  0.47965500  0.82734000  0.73483400  1
  C  C45  1  0.47806500  0.81919700  0.86800600  1
  C  C46  1  0.48287000  0.75381100  0.02134900  1
  C  C47  1  0.48875300  0.69695700  0.04185800  1
  C  C48  1  0.48977500  0.70502600  0.90901100  1
  C  C49  1  0.48232400  0.26590700  0.81979400  1
  C  C50  1  0.53902900  0.23042800  0.78941100  1
  C  C51  1  0.52592400  0.24160500  0.65538100  1
  C  C52  1  0.45678900  0.28870500  0.55032900  1
  C  C53  1  0.37277200  0.33955600  0.32104500  1
  C  C54  1  0.40244000  0.32656300  0.57696200  1
  C  C55  1  0.41594700  0.31551900  0.71053700  1
  N  N1  1  0.49294100  0.64638100  0.93053300  1
  N  N2  1  0.49808500  0.36072400  0.05143500  1
  O  O1  1  0.53904000  0.90968700  0.47312800  1
  O  O2  1  0.43634300  0.94313400  0.17274100  1
  O  O3  1  0.40494900  0.94170900  0.51945800  1
  O  O4  1  0.39002500  0.03199300  0.15696200  1
  O  O5  1  0.58008400  0.00024600  0.09870300  1
  O  O6  1  0.66793400  0.03393400  0.16701600  1
  O  O7  1  0.52284200  0.06474600  0.27776100  1
  O  O8  1  0.46088500  0.13752800  0.02864200  1
  O  O9  1  0.47822700  0.94046300  0.70505500  1
  O  O10  1  0.48299300  0.86813000  0.97783000  1
  O  O11  1  0.41964600  0.00259500  0.88948100  1
  O  O12  1  0.32998400  0.97197800  0.81596100  1
  O  O13  1  0.59230800  0.06647900  0.46110900  1
  O  O14  1  0.60983700  0.97432200  0.82489800  1
  O  O15  1  0.45783700  0.09537500  0.51317300  1
  O  O16  1  0.56231200  0.06170800  0.81410400  1
  O  O17  1  0.60606700  0.58770200  0.11926800  1
  O  O18  1  0.37943700  0.70587800  0.74222500  1
  O  O19  1  0.38002700  0.41794800  0.87265400  1
  O  O20  1  0.61543700  0.30288800  0.23188200  1
  O  O21  1  0.44295300  0.29640000  0.42447500  1
