# generated using pymatgen
data_ZnH8C20N3O4
_symmetry_space_group_name_H-M   'P 1'
_cell_length_a   8.52302100
_cell_length_b   13.05723700
_cell_length_c   13.39379600
_cell_angle_alpha   90.60838400
_cell_angle_beta   93.28120000
_cell_angle_gamma   86.46927800
_symmetry_Int_Tables_number   1
_chemical_formula_structural   ZnH8C20N3O4
_chemical_formula_sum   'Zn2 H16 C40 N6 O8'
_cell_volume   1485.25105220
_cell_formula_units_Z   2
loop_
 _symmetry_equiv_pos_site_id
 _symmetry_equiv_pos_as_xyz
  1  'x, y, z'
loop_
 _atom_site_type_symbol
 _atom_site_label
 _atom_site_symmetry_multiplicity
 _atom_site_fract_x
 _atom_site_fract_y
 _atom_site_fract_z
 _atom_site_occupancy
  Zn  Zn1  1  0.55346900  0.50683700  0.88426400  1
  Zn  Zn2  1  0.57099000  0.50282400  0.10738600  1
  H  H1  1  0.63768300  0.81675900  0.99332500  1
  H  H2  1  0.60531000  0.00184900  0.98941300  1
  H  H3  1  0.04999500  0.43229300  0.96999300  1
  H  H4  1  0.35363600  0.16544200  0.00286000  1
  H  H5  1  0.24914400  0.00794800  0.00316800  1
  H  H6  1  0.71032100  0.16471300  0.99264400  1
  H  H7  1  0.27798100  0.85350000  0.97791000  1
  H  H8  1  0.06988200  0.57852000  0.02812700  1
  H  H9  1  0.59520800  0.34129000  0.24696400  1
  H  H10  1  0.59753300  0.66308600  0.74783600  1
  H  H11  1  0.42124300  0.70935700  0.46002300  1
  H  H12  1  0.56901600  0.25011000  0.39971000  1
  H  H13  1  0.37530800  0.32880000  0.50950000  1
  H  H14  1  0.60872600  0.75501600  0.59544700  1
  H  H15  1  0.59343500  0.75864600  0.40958500  1
  H  H16  1  0.50050800  0.35152500  0.74192400  1
  C  C1  1  0.02295400  0.86872800  0.99282600  1
  C  C2  1  0.89051300  0.81164300  0.99526800  1
  C  C3  1  0.74154900  0.86006200  0.99236600  1
  C  C4  1  0.72264600  0.96521100  0.99058100  1
  C  C5  1  0.85192200  0.02349600  0.99272200  1
  C  C6  1  0.00258100  0.97622700  0.99360500  1
  C  C7  1  0.82857300  0.12954100  0.99416400  1
  C  C8  1  0.95534800  0.19019200  0.99495700  1
  C  C9  1  0.10577300  0.14339900  0.99704100  1
  C  C10  1  0.12910900  0.03819600  0.99815300  1
  C  C11  1  0.93614600  0.29668800  0.99135800  1
  C  C12  1  0.06622600  0.35157600  0.98188900  1
  C  C13  1  0.21524800  0.30580000  0.98911700  1
  C  C14  1  0.23582100  0.20143400  0.99815500  1
  C  C15  1  0.17139500  0.81630300  0.98873500  1
  C  C16  1  0.18645800  0.71114300  0.99951000  1
  C  C17  1  0.05589300  0.65879300  0.01318400  1
  C  C18  1  0.90830600  0.70598600  0.00329000  1
  C  C19  1  0.34860400  0.37018100  0.99128600  1
  C  C20  1  0.33675300  0.65035400  0.99668000  1
  C  C21  1  0.77551200  0.64026200  0.00059600  1
  C  C22  1  0.78574900  0.35775100  0.99456000  1
  C  C23  1  0.57319500  0.59308400  0.28905300  1
  C  C24  1  0.58788100  0.41287800  0.28821900  1
  C  C25  1  0.58728000  0.41243300  0.39137600  1
  C  C26  1  0.57643200  0.50378000  0.44272000  1
  C  C27  1  0.57071800  0.59492200  0.39219800  1
  C  C28  1  0.60380100  0.31489100  0.44866000  1
  C  C29  1  0.50046300  0.32265700  0.53753700  1
  C  C30  1  0.53432300  0.41637100  0.59871400  1
  C  C31  1  0.56734200  0.50409100  0.55038000  1
  C  C32  1  0.58930800  0.59287400  0.60351000  1
  C  C33  1  0.63617800  0.68484600  0.55079700  1
  C  C34  1  0.54850400  0.69345200  0.44928700  1
  C  C35  1  0.52463600  0.41942500  0.70169300  1
  C  C36  1  0.57758400  0.59369500  0.70564200  1
  C  C37  1  0.76813400  0.29610700  0.48500400  1
  C  C38  1  0.52974000  0.22942700  0.59715500  1
  C  C39  1  0.80550900  0.67471000  0.53709400  1
  C  C40  1  0.56496800  0.68812000  0.23552800  1
  N  N1  1  0.57948900  0.50260700  0.23862000  1
  N  N2  1  0.54567300  0.50756300  0.75311800  1
  N  N3  1  0.89809400  0.28120900  0.51369600  1
  N  N4  1  0.55283100  0.15571500  0.64426500  1
  N  N5  1  0.93942100  0.66666667  0.52624300  1
  N  N6  1  0.55832300  0.76471500  0.19239200  1
  O  O1  1  0.40415500  0.40203300  0.07880300  1
  O  O2  1  0.39465200  0.40232600  0.90590700  1
  O  O3  1  0.38120100  0.61533500  0.90958800  1
  O  O4  1  0.39985700  0.61454700  0.08188400  1
  O  O5  1  0.72112000  0.60707200  0.91339000  1
  O  O6  1  0.72906800  0.60774000  0.08543200  1
  O  O7  1  0.74311200  0.39420800  0.08180600  1
  O  O8  1  0.72280000  0.39390900  0.90937600  1
