# generated using pymatgen
data_CoH8C21NO4
_symmetry_space_group_name_H-M   'P 1'
_cell_length_a   8.70459500
_cell_length_b   8.26059800
_cell_length_c   17.38138000
_cell_angle_alpha   90.40251700
_cell_angle_beta   92.97891300
_cell_angle_gamma   82.33517700
_symmetry_Int_Tables_number   1
_chemical_formula_structural   CoH8C21NO4
_chemical_formula_sum   'Co2 H16 C42 N2 O8'
_cell_volume   1236.97044328
_cell_formula_units_Z   2
loop_
 _symmetry_equiv_pos_site_id
 _symmetry_equiv_pos_as_xyz
  1  'x, y, z'
loop_
 _atom_site_type_symbol
 _atom_site_label
 _atom_site_symmetry_multiplicity
 _atom_site_fract_x
 _atom_site_fract_y
 _atom_site_fract_z
 _atom_site_occupancy
  Co  Co1  1  0.99051200  0.01121200  0.92319600  1
  Co  Co2  1  0.00948800  0.98878800  0.07680400  1
  H  H1  1  0.06423000  0.72835600  0.19514300  1
  H  H2  1  0.93577100  0.27164500  0.80485700  1
  H  H3  1  0.09199800  0.58661100  0.31540800  1
  H  H4  1  0.90800200  0.41339000  0.68459200  1
  H  H5  1  0.94310700  0.39540100  0.30580300  1
  H  H6  1  0.05689300  0.60459900  0.69419700  1
  H  H7  1  0.17063100  0.47689200  0.44565200  1
  H  H8  1  0.82936900  0.52310800  0.55434800  1
  H  H9  1  0.15329300  0.48090300  0.57353400  1
  H  H10  1  0.84670700  0.51909700  0.42646600  1
  H  H11  1  0.97265700  0.24080300  0.19023700  1
  H  H12  1  0.02734300  0.75919700  0.80976300  1
  H  H13  1  0.44517900  0.09426700  0.03417100  1
  H  H14  1  0.55482100  0.90573400  0.96582900  1
  H  H15  1  0.18014400  0.55070900  0.99173100  1
  H  H16  1  0.81985600  0.44929200  0.00826900  1
  C  C1  1  0.27273500  0.81621700  0.99296900  1
  C  C2  1  0.72726600  0.18378300  0.00703100  1
  C  C3  1  0.83529900  0.75702700  0.99171100  1
  C  C4  1  0.16470100  0.24297300  0.00828900  1
  C  C5  1  0.04537300  0.84303300  0.22578900  1
  C  C6  1  0.95462700  0.15696700  0.77421100  1
  C  C7  1  0.99409300  0.12888100  0.22315700  1
  C  C8  1  0.00590700  0.87111900  0.77684300  1
  C  C9  1  0.06207300  0.69960400  0.34572500  1
  C  C10  1  0.93792700  0.30039600  0.65427500  1
  C  C11  1  0.04159500  0.84493600  0.30519400  1
  C  C12  1  0.95840600  0.15506400  0.69480600  1
  C  C13  1  0.01578900  0.99238500  0.34342700  1
  C  C14  1  0.98421200  0.00761600  0.65657300  1
  C  C15  1  0.99406500  0.13589400  0.30241800  1
  C  C16  1  0.00593500  0.86410600  0.69758200  1
  C  C17  1  0.96935100  0.28569200  0.33975200  1
  C  C18  1  0.03064900  0.71430800  0.66024800  1
  C  C19  1  0.06516000  0.54770700  0.46378700  1
  C  C20  1  0.93484100  0.45229300  0.53621300  1
  C  C21  1  0.04384300  0.69842700  0.42421500  1
  C  C22  1  0.95615700  0.30157300  0.57578500  1
  C  C23  1  0.01900400  0.84880100  0.46200000  1
  C  C24  1  0.98099600  0.15119900  0.53800000  1
  C  C25  1  0.05462200  0.55081900  0.54352800  1
  C  C26  1  0.94537800  0.44918100  0.45647200  1
  C  C27  1  0.02487600  0.70504000  0.58047200  1
  C  C28  1  0.97512400  0.29496000  0.41952800  1
  C  C29  1  0.00904800  0.99638300  0.42205100  1
  C  C30  1  0.99095200  0.00361800  0.57794900  1
  C  C31  1  0.99050100  0.14770200  0.45988400  1
  C  C32  1  0.00949900  0.85229800  0.54011600  1
  C  C33  1  0.57833100  0.28657600  0.01150900  1
  C  C34  1  0.42166900  0.71342400  0.98849100  1
  C  C35  1  0.44360100  0.22169400  0.02174000  1
  C  C36  1  0.55639900  0.77830600  0.97826000  1
  C  C37  1  0.30294400  0.31885900  0.01202700  1
  C  C38  1  0.69705600  0.68114100  0.98797300  1
  C  C39  1  0.29402200  0.48138500  0.99988100  1
  C  C40  1  0.70597800  0.51861600  0.00011900  1
  C  C41  1  0.42906900  0.54893100  0.99783300  1
  C  C42  1  0.57093100  0.45107000  0.00216700  1
  N  N1  1  0.01961600  0.98423200  0.18618900  1
  N  N2  1  0.98038500  0.01576900  0.81381100  1
  O  O1  1  0.19431700  0.86472100  0.92923700  1
  O  O2  1  0.80568400  0.13527900  0.07076300  1
  O  O3  1  0.78939400  0.15712400  0.93989200  1
  O  O4  1  0.21060600  0.84287600  0.06010800  1
  O  O5  1  0.87106200  0.82335800  0.92854500  1
  O  O6  1  0.12893800  0.17664200  0.07145500  1
  O  O7  1  0.11238200  0.19817800  0.94050800  1
  O  O8  1  0.88761800  0.80182300  0.05949200  1
