# generated using pymatgen
data_Fe2H12C36O17
_symmetry_space_group_name_H-M   'P 1'
_cell_length_a   14.42071300
_cell_length_b   9.98585800
_cell_length_c   13.18934800
_cell_angle_alpha   83.17683700
_cell_angle_beta   93.03470600
_cell_angle_gamma   114.63210700
_symmetry_Int_Tables_number   1
_chemical_formula_structural   Fe2H12C36O17
_chemical_formula_sum   'Fe2 H12 C36 O17'
_cell_volume   1714.23628470
_cell_formula_units_Z   1
loop_
 _symmetry_equiv_pos_site_id
 _symmetry_equiv_pos_as_xyz
  1  'x, y, z'
loop_
 _atom_site_type_symbol
 _atom_site_label
 _atom_site_symmetry_multiplicity
 _atom_site_fract_x
 _atom_site_fract_y
 _atom_site_fract_z
 _atom_site_occupancy
  Fe  Fe1  1  0.49498000  0.00122300  0.14331800  1
  Fe  Fe2  1  0.47162100  0.96077700  0.72370000  1
  H  H1  1  0.08991000  0.80505100  0.77283100  1
  H  H2  1  0.96388000  0.83609200  0.86527700  1
  H  H3  1  0.96689700  0.06692100  0.82491500  1
  H  H4  1  0.80707800  0.05229200  0.74998400  1
  H  H5  1  0.25797700  0.06276200  0.15349500  1
  H  H6  1  0.96215600  0.07076400  0.26230100  1
  H  H7  1  0.80155600  0.03833100  0.19176300  1
  H  H8  1  0.44749500  0.81068400  0.44624500  1
  H  H9  1  0.49632200  0.48900500  0.64480000  1
  H  H10  1  0.45765300  0.46051300  0.22657100  1
  H  H11  1  0.51907400  0.15216900  0.42727500  1
  H  H12  1  0.17099000  0.20733400  0.25607100  1
  C  C1  1  0.21153700  0.90176500  0.87819500  1
  C  C2  1  0.11272500  0.85795000  0.84239100  1
  C  C3  1  0.04120900  0.88205500  0.89344600  1
  C  C4  1  0.90320600  0.03759900  0.87523600  1
  C  C5  1  0.23491500  0.95624100  0.97291300  1
  C  C6  1  0.16312500  0.98546600  0.02229800  1
  C  C7  1  0.06822300  0.96010200  0.97849300  1
  C  C8  1  0.99975300  0.00001600  0.02672900  1
  C  C9  1  0.81371500  0.03655300  0.83211000  1
  C  C10  1  0.73085000  0.00480700  0.89261200  1
  C  C11  1  0.91169000  0.00822600  0.98027400  1
  C  C12  1  0.83473300  0.00505500  0.04089200  1
  C  C13  1  0.74145700  0.99170200  0.99755800  1
  C  C14  1  0.18584100  0.03912500  0.11650500  1
  C  C15  1  0.11350300  0.05537600  0.17032700  1
  C  C16  1  0.02009300  0.03311800  0.12687600  1
  C  C17  1  0.94785400  0.04672100  0.18383400  1
  C  C18  1  0.85419700  0.02505200  0.14311900  1
  C  C19  1  0.65455400  0.96711700  0.06172400  1
  C  C20  1  0.45485800  0.72515800  0.27016800  1
  C  C21  1  0.33674600  0.99442500  0.01836600  1
  C  C22  1  0.46606200  0.19549000  0.24780300  1
  C  C23  1  0.49235200  0.75103700  0.63055500  1
  C  C24  1  0.63048000  0.97186700  0.84578100  1
  C  C25  1  0.50361500  0.23381500  0.60041100  1
  C  C26  1  0.28878000  0.89744900  0.81108300  1
  C  C27  1  0.45695400  0.63860100  0.36977500  1
  C  C28  1  0.45549600  0.70712900  0.45432500  1
  C  C29  1  0.46884800  0.65190200  0.55116500  1
  C  C30  1  0.48306000  0.52378600  0.56737400  1
  C  C31  1  0.48605300  0.45011000  0.48549400  1
  C  C32  1  0.47228700  0.50680300  0.38520700  1
  C  C33  1  0.47334700  0.42938700  0.30401200  1
  C  C34  1  0.48932100  0.30193100  0.32209500  1
  C  C35  1  0.50704100  0.25266500  0.41841100  1
  C  C36  1  0.50326700  0.32074200  0.50152200  1
  O  O1  1  0.59749200  0.03993100  0.03704500  1
  O  O2  1  0.42162100  0.66419000  0.18516800  1
  O  O3  1  0.63390300  0.87238300  0.14401100  1
  O  O4  1  0.48502800  0.86926600  0.27082600  1
  O  O5  1  0.35707300  0.89662700  0.08071200  1
  O  O6  1  0.40416700  0.13268200  0.00664200  1
  O  O7  1  0.53624600  0.20551500  0.18445800  1
  O  O8  1  0.39214400  0.06453200  0.27111300  1
  O  O9  1  0.41893000  0.75387500  0.68390100  1
  O  O10  1  0.57930000  0.86862300  0.62290800  1
  O  O11  1  0.61666700  0.06096600  0.77091600  1
  O  O12  1  0.55338600  0.84714300  0.87628600  1
  O  O13  1  0.26596200  0.87668700  0.71489400  1
  O  O14  1  0.47175400  0.09027700  0.59783500  1
  O  O15  1  0.38334300  0.93205200  0.84152500  1
  O  O16  1  0.54332600  0.29404700  0.68438700  1
  O  O17  1  0.13648700  0.09781200  0.26660400  1
