# generated using pymatgen
data_FeH11C22(NO4)2
_symmetry_space_group_name_H-M   'P 1'
_cell_length_a   14.33493200
_cell_length_b   9.39121600
_cell_length_c   19.82153000
_cell_angle_alpha   85.75477100
_cell_angle_beta   90.43265900
_cell_angle_gamma   110.17876100
_symmetry_Int_Tables_number   1
_chemical_formula_structural   FeH11C22(NO4)2
_chemical_formula_sum   'Fe2 H22 C44 N4 O16'
_cell_volume   2497.30467468
_cell_formula_units_Z   2
loop_
 _symmetry_equiv_pos_site_id
 _symmetry_equiv_pos_as_xyz
  1  'x, y, z'
loop_
 _atom_site_type_symbol
 _atom_site_label
 _atom_site_symmetry_multiplicity
 _atom_site_fract_x
 _atom_site_fract_y
 _atom_site_fract_z
 _atom_site_occupancy
  Fe  Fe1  1  0.47647900  0.97366700  0.10471300  1
  Fe  Fe2  1  0.49325100  0.00217400  0.81677300  1
  H  H1  1  0.11807800  0.85793300  0.83916200  1
  H  H2  1  0.98132900  0.86408400  0.90494800  1
  H  H3  1  0.97381600  0.10179600  0.89750000  1
  H  H4  1  0.81993900  0.09817600  0.84656500  1
  H  H5  1  0.23797700  0.01681000  0.11540700  1
  H  H6  1  0.09969000  0.02336800  0.17932500  1
  H  H7  1  0.93511500  0.01460700  0.18822400  1
  H  H8  1  0.78073900  0.00249400  0.13970800  1
  H  H9  1  0.47631900  0.53597700  0.79320700  1
  H  H10  1  0.47216000  0.27736200  0.62445700  1
  H  H11  1  0.49397700  0.74261100  0.59347800  1
  H  H12  1  0.43522400  0.40776200  0.13070200  1
  H  H13  1  0.45490600  0.67445100  0.29851800  1
  H  H14  1  0.46508600  0.09973000  0.33201900  1
  H  H15  1  0.52752600  0.23873900  0.38779400  1
  H  H16  1  0.61778700  0.19801800  0.25545100  1
  H  H17  1  0.68880500  0.43495200  0.36070400  1
  H  H18  1  0.67204900  0.46984500  0.27108500  1
  H  H19  1  0.76822400  0.39836400  0.29899800  1
  H  H20  1  0.67043400  0.16337900  0.40425000  1
  H  H21  1  0.73097800  0.12820100  0.33086900  1
  H  H22  1  0.60526200  0.00829500  0.35331700  1
  C  C1  1  0.22560900  0.93134100  0.91653500  1
  C  C2  1  0.13193400  0.89490100  0.88976900  1
  C  C3  1  0.05404000  0.90535800  0.92670600  1
  C  C4  1  0.90711100  0.05981600  0.92865500  1
  C  C5  1  0.23755400  0.96262100  0.98412900  1
  C  C6  1  0.15913100  0.97688000  0.02082300  1
  C  C7  1  0.06914500  0.96241400  0.99001700  1
  C  C8  1  0.99372800  0.99064700  0.02587100  1
  C  C9  1  0.82045400  0.06545600  0.89996900  1
  C  C10  1  0.73363900  0.01927300  0.93777200  1
  C  C11  1  0.90858000  0.00862900  0.99613500  1
  C  C12  1  0.82643100  0.99325700  0.03658000  1
  C  C13  1  0.73653100  0.98658700  0.00694400  1
  C  C14  1  0.17026900  0.00491200  0.08858000  1
  C  C15  1  0.09143600  0.00960500  0.12570000  1
  C  C16  1  0.00368900  0.00095000  0.09498000  1
  C  C17  1  0.92662700  0.00578600  0.13429800  1
  C  C18  1  0.83726400  0.99507400  0.10608300  1
  C  C19  1  0.64557500  0.95017400  0.04845500  1
  C  C20  1  0.44240400  0.68337500  0.16183700  1
  C  C21  1  0.33321200  0.98834700  0.01671900  1
  C  C22  1  0.45348300  0.16893100  0.19643800  1
  C  C23  1  0.49245300  0.79580900  0.72338100  1
  C  C24  1  0.63892300  0.99566000  0.90362500  1
  C  C25  1  0.47722600  0.26496000  0.76077500  1
  C  C26  1  0.30881000  0.93762700  0.87168100  1
  C  C27  1  0.47589800  0.39295400  0.71389900  1
  C  C28  1  0.47533300  0.38268200  0.64463800  1
  C  C29  1  0.48047300  0.50778700  0.60116000  1
  C  C30  1  0.48885600  0.64397900  0.62700700  1
  C  C31  1  0.48422000  0.65215500  0.69590300  1
  C  C32  1  0.47640300  0.52642800  0.73923000  1
  C  C33  1  0.47042500  0.47158100  0.39434600  1
  C  C34  1  0.47613800  0.49589600  0.52795200  1
  C  C35  1  0.47721000  0.32750900  0.29413300  1
  C  C36  1  0.45876100  0.30906000  0.22604200  1
  C  C37  1  0.44596900  0.42405400  0.18396800  1
  C  C38  1  0.44824800  0.55817300  0.20902500  1
  C  C39  1  0.45785600  0.57267800  0.27793200  1
  C  C40  1  0.46917400  0.45638900  0.32104700  1
  C  C41  1  0.51712900  0.21797000  0.33402200  1
  C  C42  1  0.62007900  0.23154500  0.30783900  1
  C  C43  1  0.69150500  0.39407600  0.30992800  1
  C  C44  1  0.65912100  0.12624500  0.35205800  1
  N  N1  1  0.51698300  0.62012800  0.48514000  1
  N  N2  1  0.51436300  0.60811600  0.41900700  1
  N  N3  1  0.42487200  0.34937100  0.43717700  1
  N  N4  1  0.42872200  0.36082800  0.50320900  1
  O  O1  1  0.58248400  0.02123100  0.03455100  1
  O  O2  1  0.42845800  0.66199600  0.09731900  1
  O  O3  1  0.62782000  0.84819400  0.10001100  1
  O  O4  1  0.46375100  0.82124200  0.18193200  1
  O  O5  1  0.34647600  0.88234000  0.05880600  1
  O  O6  1  0.40114600  0.12478500  0.01113600  1
  O  O7  1  0.50887300  0.17654100  0.14309000  1
  O  O8  1  0.38804900  0.03833100  0.21935700  1
  O  O9  1  0.44819500  0.79498800  0.78122600  1
  O  O10  1  0.55007700  0.92447300  0.69282300  1
  O  O11  1  0.63093900  0.08905100  0.85294800  1
  O  O12  1  0.56271400  0.87203900  0.92019200  1
  O  O13  1  0.29412400  0.92739600  0.80651800  1
  O  O14  1  0.49872000  0.15059500  0.73923400  1
  O  O15  1  0.39948600  0.96789800  0.89406300  1
  O  O16  1  0.46086600  0.26736400  0.82565000  1
