# generated using pymatgen
data_Fe2H20C39O16
_symmetry_space_group_name_H-M   'P 1'
_cell_length_a   15.87857800
_cell_length_b   9.28607300
_cell_length_c   18.49113100
_cell_angle_alpha   90.05901500
_cell_angle_beta   100.12416800
_cell_angle_gamma   97.52095800
_symmetry_Int_Tables_number   1
_chemical_formula_structural   Fe2H20C39O16
_chemical_formula_sum   'Fe2 H20 C39 O16'
_cell_volume   2660.15829613
_cell_formula_units_Z   1
loop_
 _symmetry_equiv_pos_site_id
 _symmetry_equiv_pos_as_xyz
  1  'x, y, z'
loop_
 _atom_site_type_symbol
 _atom_site_label
 _atom_site_symmetry_multiplicity
 _atom_site_fract_x
 _atom_site_fract_y
 _atom_site_fract_z
 _atom_site_occupancy
  Fe  Fe1  1  0.49652100  0.98659100  0.83922600  1
  Fe  Fe2  1  0.50924000  0.99747600  0.16263300  1
  H  H1  1  0.22077200  0.93270900  0.83377500  1
  H  H2  1  0.07663700  0.91894800  0.86369100  1
  H  H3  1  0.81657500  0.94169700  0.91290400  1
  H  H4  1  0.78707200  0.02352500  0.16914500  1
  H  H5  1  0.92989600  0.02833900  0.13635900  1
  H  H6  1  0.50233500  0.73523500  0.62983500  1
  H  H7  1  0.47592800  0.27599700  0.59204200  1
  H  H8  1  0.50084300  0.24924700  0.37139000  1
  H  H9  1  0.52344400  0.70839900  0.40729300  1
  H  H10  1  0.50533200  0.44646100  0.80903500  1
  H  H11  1  0.49331500  0.53540900  0.19082000  1
  H  H12  1  0.46952900  0.64123900  0.50472800  1
  H  H13  1  0.53208500  0.34407700  0.49583600  1
  H  H14  1  0.22868800  0.02892800  0.25288400  1
  H  H15  1  0.12225300  0.08586600  0.23344400  1
  H  H16  1  0.13484900  0.90323000  0.26321000  1
  H  H17  1  0.08078400  0.90002200  0.13110000  1
  H  H18  1  0.18850600  0.85296500  0.14793500  1
  H  H19  1  0.23535200  0.13785200  0.13403800  1
  H  H20  1  0.12749500  0.14190700  0.09541700  1
  C  C1  1  0.21381100  0.95134300  0.89000200  1
  C  C2  1  0.13253900  0.94499500  0.90646400  1
  C  C3  1  0.12212000  0.97993800  0.97618100  1
  C  C4  1  0.19330300  0.01378400  0.03163600  1
  C  C5  1  0.27661500  0.00721800  0.01681200  1
  C  C6  1  0.28592400  0.98597100  0.94368900  1
  C  C7  1  0.03611000  0.98055800  0.99051900  1
  C  C8  1  0.96475200  0.98132500  0.00431100  1
  C  C9  1  0.80814200  0.95784500  0.96891700  1
  C  C10  1  0.72657000  0.95756600  0.98613100  1
  C  C11  1  0.71890900  0.97868400  0.05934300  1
  C  C12  1  0.79241400  0.00697000  0.11234600  1
  C  C13  1  0.87289900  0.00847300  0.09421500  1
  C  C14  1  0.88069200  0.98207700  0.02270700  1
  C  C15  1  0.48556400  0.20105200  0.73218000  1
  C  C16  1  0.36955500  0.00591900  0.91912500  1
  C  C17  1  0.65231100  0.94734900  0.92511200  1
  C  C18  1  0.50644600  0.72580000  0.77663000  1
  C  C19  1  0.49559600  0.25683500  0.22463100  1
  C  C20  1  0.35129500  0.00598800  0.07802800  1
  C  C21  1  0.63553900  0.96570000  0.08396600  1
  C  C22  1  0.51420900  0.78152100  0.26726100  1
  C  C23  1  0.50420000  0.60437900  0.72510700  1
  C  C24  1  0.50011900  0.62641400  0.65072000  1
  C  C25  1  0.49323700  0.50971400  0.60238100  1
  C  C26  1  0.48634100  0.36955900  0.62868800  1
  C  C27  1  0.49223800  0.34770900  0.70307300  1
  C  C28  1  0.50255200  0.46499800  0.75107100  1
  C  C29  1  0.48982700  0.53902200  0.52367000  1
  C  C30  1  0.51166100  0.44614700  0.47678600  1
  C  C31  1  0.50180700  0.35764000  0.35006300  1
  C  C32  1  0.49677300  0.37866700  0.27552700  1
  C  C33  1  0.49641900  0.51735800  0.24886100  1
  C  C34  1  0.50639500  0.63509000  0.29646300  1
  C  C35  1  0.51320500  0.61430400  0.37101200  1
  C  C36  1  0.50772600  0.47467500  0.39794900  1
  C  C37  1  0.17780700  0.06832500  0.10424600  1
  C  C38  1  0.14943200  0.94250800  0.15103300  1
  C  C39  1  0.15957100  0.99379700  0.23031800  1
  O  O1  1  0.52220400  0.18280700  0.80034400  1
  O  O2  1  0.42331900  0.12527300  0.93771000  1
  O  O3  1  0.43939400  0.09187900  0.69241400  1
  O  O4  1  0.38413400  0.91823300  0.86828700  1
  O  O5  1  0.57714900  0.97947000  0.93534100  1
  O  O6  1  0.66410700  0.92394100  0.85785400  1
  O  O7  1  0.50667900  0.85982600  0.75406000  1
  O  O8  1  0.50292600  0.69968800  0.84584400  1
  O  O9  1  0.50239500  0.12506500  0.24855000  1
  O  O10  1  0.49331600  0.28091600  0.15444700  1
  O  O11  1  0.43074400  0.01440900  0.06619500  1
  O  O12  1  0.33835700  0.97610600  0.14479200  1
  O  O13  1  0.56493800  0.88783000  0.30581100  1
  O  O14  1  0.62363500  0.05526300  0.13512100  1
  O  O15  1  0.47605300  0.80212900  0.19974900  1
  O  O16  1  0.57683900  0.85387000  0.06216600  1
