# Generated by REPEAT Assigner based on pymatgen
data_DB0-m29_o90_o55_f0_pts.sym.28
_audit_creation_date              2022-05-24
_audit_creation_method            REPEAT_Assigner
_cell_length_a                    9.393470
_cell_length_b                    16.036929
_cell_length_c                    19.141887
_cell_angle_alpha                 103.947423
_cell_angle_beta                  84.597441
_cell_angle_gamma                 82.499913
_cell_volume                      2750.876811
_symmetry_space_group_name_H-M    P1
_symmetry_Int_Tables_number       1
loop_
    _symmetry_equiv_pos_site_id
    _symmetry_equiv_pos_as_xyz
    1  x,y,z
loop_
    _atom_site_type_symbol
    _atom_site_label
    _atom_site_fract_x
    _atom_site_fract_y
    _atom_site_fract_z
    _atom_type_partial_charge
    H   H1   0.946670  0.870132  0.147440  0.126289
    C   C1   0.674298  0.311435  0.280393  -0.165369
    C   C2   0.623989  0.389540  0.266535  -0.094116
    C   C3   0.617035  0.394672  0.196388  -0.063655
    C   C4   0.660360  0.321734  0.139698  -0.156367
    C   C5   0.710566  0.242126  0.152833  0.144656
    C   C6   0.717510  0.236954  0.223696  0.182679
    C   C7   0.755499  0.168355  0.095705  -0.266987
    C   C8   0.807261  0.089397  0.109357  0.182119
    C   C9   0.814246  0.084235  0.180221  0.149901
    C   C10  0.769258  0.157997  0.237347  -0.283843
    C   C11  0.850406  0.014904  0.052668  -0.184009
    C   C12  0.900762  0.936808  0.066531  -0.053299
    C   C13  0.907835  0.931699  0.136677  -0.072254
    C   C14  0.864534  0.004644  0.193362  -0.159514
    H   H2   0.679005  0.311481  0.336497  0.131222
    H   H3   0.590641  0.447072  0.310955  0.130795
    H   H4   0.578264  0.456250  0.185628  0.121359
    H   H5   0.654421  0.329935  0.085681  0.116348
    H   H6   0.845601  0.014845  0.996567  0.134610
    H   H7   0.934071  0.879268  0.022117  0.121323
    H   H8   0.870588  0.996474  0.247381  0.115634
    C   C15  0.909965  0.154008  0.338720  -0.372505
    H   H9   0.004168  0.160100  0.304394  0.159319
    C   C16  0.920897  0.146184  0.408286  0.130536
    C   C17  0.799691  0.138229  0.451395  -0.220896
    H   H10  0.808299  0.134336  0.506423  0.204471
    C   C18  0.666612  0.140588  0.425980  0.052482
    C   C19  0.656722  0.146866  0.355770  -0.320468
    H   H11  0.554066  0.147735  0.334557  0.169803
    C   C20  0.778723  0.152615  0.312039  0.480220
    C   C21  0.867790  0.179191  0.977123  -0.328287
    H   H12  0.970623  0.177987  0.998169  0.170983
    C   C22  0.857618  0.185723  0.906991  0.079945
    C   C23  0.724274  0.188679  0.881844  -0.226117
    H   H13  0.715435  0.192665  0.826853  0.200495
    C   C24  0.603149  0.180857  0.925092  0.126262
    C   C25  0.614372  0.172746  0.994549  -0.357096
    H   H14  0.520193  0.166725  0.028931  0.155385
    C   C26  0.745827  0.173745  0.021027  0.465244
    O   O1   0.407753  0.149775  0.453963  -0.530361
    C   C27  0.536927  0.139346  0.474488  0.598984
    O   O2   0.355825  0.975819  0.484329  -0.560988
    O   O3   0.548737  0.131721  0.540508  -0.516581
    O   O4   0.290344  0.066533  0.596096  -0.502076
    C   C28  0.343738  0.988584  0.555119  0.579042
    Fe  Fe1  0.261596  0.149829  0.535458  1.474968
    O   O5   0.082779  0.117985  0.492882  -0.599228
    O   O6   0.150377  0.196058  0.413978  -0.522258
    C   C29  0.058085  0.151563  0.438097  0.623592
    O   O7   0.257677  0.268948  0.600476  -0.599009
    O   O8   0.015175  0.274928  0.596978  -0.475734
    C   C30  0.124235  0.309208  0.623453  0.554950
    C   C31  0.096997  0.394708  0.675602  0.080075
    C   C32  0.014568  0.461641  0.656710  -0.043266
    H   H15  0.972319  0.447355  0.605306  0.081452
    C   C33  0.982828  0.544460  0.702821  -0.415117
    C   C34  0.042625  0.561046  0.767609  0.139806
    C   C35  0.116510  0.492831  0.788638  -0.214524
    H   H16  0.156580  0.506160  0.840636  0.179956
    C   C36  0.141757  0.409005  0.744292  0.048543
    N   N1   0.800872  0.676636  0.735504  -0.321270
    N   N2   0.704542  0.733522  0.718163  -0.245139
    C   C37  0.681480  0.724189  0.648605  0.783531
    N   N3   0.756757  0.656376  0.596928  -0.265929
    N   N4   0.853789  0.599876  0.614275  -0.308317
    C   C38  0.878881  0.609948  0.683673  0.892329
    C   C39  0.537452  0.772837  0.560146  0.079725
    H   H17  0.573776  0.710742  0.521301  0.043396
    C   C40  0.452526  0.836861  0.539186  -0.167496
    H   H18  0.426552  0.822802  0.484180  0.148069
    C   C41  0.407621  0.918581  0.586018  0.018683
    C   C42  0.442669  0.933551  0.656818  0.063328
    C   C43  0.528824  0.869032  0.677101  -0.000715
    H   H19  0.560918  0.883457  0.730916  0.057503
    C   C44  0.578941  0.789163  0.628727  -0.376321
    O   O9   0.440032  0.209834  0.841246  -0.564123
    O   O10  0.375433  0.129041  0.918408  -0.519332
    C   C45  0.465928  0.175298  0.895375  0.612302
    O   O11  0.272732  0.055080  0.732933  -0.597878
    O   O12  0.513834  0.058146  0.733857  -0.482888
    C   C46  0.407982  0.018984  0.708945  0.568429
    O   O13  0.200603  0.353410  0.845996  -0.551278
    O   O14  0.116668  0.174244  0.878341  -0.528225
    C   C47  0.987324  0.186652  0.858359  0.566560
    O   O15  0.233890  0.257295  0.735920  -0.499513
    C   C48  0.199732  0.337835  0.775526  0.569104
    O   O16  0.975240  0.196094  0.792860  -0.510227
    Fe  Fe2  0.263732  0.175133  0.797468  1.460338
    C   C49  0.033456  0.649072  0.815143  0.476465
    O   O17  0.005993  0.661099  0.880674  -0.480530
    C   C50  0.077518  0.721302  0.785502  -0.320362
    H   H20  0.109849  0.698525  0.725990  0.035977
    H   H21  0.171380  0.743752  0.811293  0.117358
    H   H22  0.986974  0.776623  0.798244  0.136924
