# Generated by REPEAT Assigner based on pymatgen
data_DB0-m2_o7_o16_f0_pcu.sym.94
_audit_creation_date              2022-05-24
_audit_creation_method            REPEAT_Assigner
_cell_length_a                    13.582477
_cell_length_b                    16.228064
_cell_length_c                    17.691451
_cell_angle_alpha                 89.975472
_cell_angle_beta                  89.988415
_cell_angle_gamma                 73.633418
_cell_volume                      3741.487870
_symmetry_space_group_name_H-M    P1
_symmetry_Int_Tables_number       1
loop_
    _symmetry_equiv_pos_site_id
    _symmetry_equiv_pos_as_xyz
    1  x,y,z
loop_
    _atom_site_type_symbol
    _atom_site_label
    _atom_site_fract_x
    _atom_site_fract_y
    _atom_site_fract_z
    _atom_type_partial_charge
    O   O1   0.513837  0.422361  0.604462  -0.595543
    O   O2   0.504976  0.565586  0.604179  -0.480654
    C   C1   0.503676  0.495258  0.639987  0.624824
    O   O3   0.665982  0.390624  0.501817  -0.637909
    O   O4   0.659914  0.533236  0.498794  -0.608421
    C   C2   0.711576  0.451951  0.500381  0.800192
    Cu  Cu1  0.517895  0.409821  0.494943  0.898352
    Cu  Cu2  0.510438  0.576206  0.494197  0.813300
    O   O5   0.526937  0.419598  0.384983  -0.603162
    O   O6   0.523638  0.561885  0.384879  -0.569103
    O   O7   0.368205  0.452821  0.492300  -0.608720
    O   O8   0.362466  0.595534  0.484790  -0.572488
    C   C3   0.524813  0.490730  0.349415  0.663734
    C   C4   0.317263  0.533976  0.486112  0.665953
    C   C5   0.052967  0.647908  0.422508  -0.238102
    H   H1   0.195164  0.677834  0.424010  0.096528
    H   H2   0.865606  0.661335  0.383108  0.125519
    H   H3   0.014618  0.706336  0.392724  0.122206
    C   C6   0.205713  0.555930  0.475088  -0.039462
    C   C7   0.870258  0.352490  0.545095  -0.018245
    C   C8   0.973058  0.329932  0.560792  -0.151731
    C   C9   0.031709  0.382878  0.540596  -0.141809
    C   C10  0.989329  0.458640  0.500582  0.010172
    C   C11  0.885267  0.479409  0.481552  0.305941
    C   C12  0.047750  0.514371  0.479372  0.004200
    C   C13  0.000385  0.589202  0.440506  0.227796
    C   C14  0.900568  0.605266  0.417046  -0.209639
    C   C15  0.844630  0.549838  0.435157  -0.298763
    C   C16  0.152382  0.497960  0.495145  -0.142949
    C   C17  0.154854  0.632099  0.440570  -0.081718
    C   C18  0.824502  0.427833  0.507198  -0.290887
    H   H4   0.195928  0.440482  0.522841  0.109480
    H   H5   0.825338  0.311760  0.565449  0.096996
    H   H6   0.110631  0.361377  0.557660  0.124864
    H   H7   0.007679  0.271280  0.591604  0.112358
    H   H8   0.769462  0.563294  0.410380  0.177688
    C   C19  0.530276  0.413756  0.150091  -0.237225
    H   H9   0.530955  0.355571  0.120135  0.138853
    C   C20  0.530653  0.414570  0.228028  -0.046855
    H   H10  0.531802  0.356188  0.257840  0.105579
    C   C21  0.528292  0.489292  0.266649  -0.079251
    C   C22  0.526743  0.562771  0.226453  -0.075456
    H   H11  0.524771  0.621911  0.255218  0.107832
    C   C23  0.526331  0.561626  0.148469  -0.226536
    H   H12  0.523895  0.619409  0.117306  0.141976
    C   C24  0.527729  0.487279  0.110299  0.328152
    C   C25  0.524457  0.486773  0.029248  -0.197462
    C   C26  0.520747  0.487032  0.961181  -0.140901
    C   C27  0.550163  0.414883  0.838607  -0.251973
    H   H13  0.582990  0.354299  0.866851  0.143459
    C   C28  0.543878  0.417792  0.760808  -0.073113
    H   H14  0.573701  0.358766  0.729599  0.117977
    C   C29  0.503170  0.494987  0.723430  -0.106003
    C   C30  0.467027  0.569833  0.765990  0.068353
    C   C31  0.473014  0.565794  0.843872  -0.250147
    H   H15  0.443020  0.623350  0.877106  0.123878
    C   C32  0.515160  0.489054  0.880132  0.316406
    C   C33  0.458282  0.175583  0.445443  -0.302569
    H   H16  0.408385  0.155406  0.406333  0.153333
    C   C34  0.460700  0.259811  0.446562  0.089863
    H   H17  0.412751  0.305380  0.407919  0.098641
    N   N1   0.522799  0.285564  0.494638  -0.068227
    C   C35  0.583560  0.229240  0.543075  -0.057160
    H   H18  0.633589  0.250151  0.581525  0.178892
    C   C36  0.582974  0.144275  0.543259  -0.255408
    H   H19  0.631967  0.099117  0.581715  0.142201
    C   C37  0.519309  0.117387  0.494332  0.396052
    C   C38  0.515280  0.029936  0.494623  -0.208273
    C   C39  0.510874  0.956786  0.494843  -0.108189
    C   C40  0.444972  0.841360  0.445038  -0.151675
    C   C41  0.446354  0.755893  0.445120  -0.012217
    H   H20  0.400988  0.733269  0.404178  0.119685
    N   N2   0.505955  0.700462  0.494500  -0.095054
    C   C42  0.562501  0.727933  0.546027  0.161228
    H   H21  0.609814  0.683069  0.585566  0.058475
    C   C43  0.563821  0.812454  0.547058  -0.245181
    H   H22  0.611677  0.833417  0.587158  0.130345
    C   C44  0.505681  0.869589  0.495830  0.256857
    C   C45  0.413978  0.652732  0.732012  0.204557
    C   C46  0.454955  0.721574  0.736869  -0.046329
    Cl  Cl1  0.576375  0.709474  0.776782  -0.092884
    C   C47  0.401391  0.800431  0.708023  0.028376
    C   C48  0.307137  0.810825  0.674408  -0.310515
    C   C49  0.266199  0.742399  0.669545  -0.022196
    C   C50  0.319298  0.663589  0.698575  -0.214683
    H   H23  0.433622  0.854064  0.711580  0.064709
    H   H24  0.265164  0.872645  0.651906  0.203631
    H   H25  0.192136  0.750656  0.643405  0.089170
    H   H26  0.286323  0.610368  0.695780  0.118538
    C   C51  0.385210  0.899170  0.387593  0.253899
    C   C52  0.297142  0.962839  0.406656  0.023420
    Cl  Cl2  0.252436  0.974901  0.500044  -0.108602
    C   C53  0.241348  0.015681  0.351322  -0.065001
    C   C54  0.272583  0.004866  0.276951  -0.147494
    C   C55  0.359277  0.940638  0.257670  -0.079832
    C   C56  0.415198  0.887608  0.312886  -0.264194
    H   H27  0.172387  0.065218  0.366183  0.092290
    H   H28  0.228568  0.046217  0.233622  0.125553
    H   H29  0.383353  0.931705  0.199235  0.113574
    H   H30  0.483140  0.837184  0.297562  0.154048
