# Generated by REPEAT Assigner based on pymatgen
data_DB0-m29_o89_o110_f0_pts.sym.54
_audit_creation_date              2022-05-24
_audit_creation_method            REPEAT_Assigner
_cell_length_a                    14.103109
_cell_length_b                    14.221030
_cell_length_c                    11.037911
_cell_angle_alpha                 96.031974
_cell_angle_beta                  94.374546
_cell_angle_gamma                 99.191409
_cell_volume                      2163.460810
_symmetry_space_group_name_H-M    P1
_symmetry_Int_Tables_number       1
loop_
    _symmetry_equiv_pos_site_id
    _symmetry_equiv_pos_as_xyz
    1  x,y,z
loop_
    _atom_site_type_symbol
    _atom_site_label
    _atom_site_fract_x
    _atom_site_fract_y
    _atom_site_fract_z
    _atom_type_partial_charge
    C   C1   0.830247  0.998918  0.177309  -0.289781
    C   C2   0.736489  0.000102  0.129958  0.151561
    C   C3   0.719334  0.008120  0.006079  -0.185853
    C   C4   0.794080  0.012247  0.932744  0.005874
    C   C5   0.886705  0.006973  0.978648  -0.110293
    C   C6   0.905902  0.003446  0.102347  0.304842
    C   C7   0.959165  0.005089  0.900142  0.186795
    C   C8   0.053783  0.006475  0.946788  -0.101332
    C   C9   0.073493  0.003974  0.070897  0.305766
    C   C10  0.000052  0.002441  0.148935  -0.354412
    C   C11  0.128881  0.010646  0.871034  -0.032736
    C   C12  0.223489  0.013676  0.918095  -0.075591
    C   C13  0.241826  0.009227  0.042629  0.019303
    C   C14  0.167633  0.004290  0.116656  -0.304527
    H   H1   0.842641  0.993831  0.273849  0.132855
    H   H2   0.776977  0.016177  0.836743  0.134761
    H   H3   0.114877  0.011736  0.773887  0.090760
    H   H4   0.187581  0.004662  0.212713  0.202385
    N   N1   0.052454  0.934499  0.336306  -0.308780
    C   C15  0.082270  0.969518  0.453365  0.026760
    C   C16  0.072100  0.064743  0.473227  -0.108908
    C   C17  0.035023  0.088440  0.363359  -0.316458
    C   C18  0.023830  0.006561  0.281174  0.396370
    H   H5   0.054980  0.865651  0.294941  0.310861
    H   H6   0.111278  0.928588  0.520074  0.112512
    H   H7   0.091620  0.112169  0.557645  0.121502
    H   H8   0.021504  0.158377  0.344236  0.151078
    O   O1   0.579180  0.028856  0.183118  -0.507773
    C   C19  0.658172  0.994804  0.212252  0.518955
    O   O2   0.467523  0.813907  0.229014  -0.492319
    O   O3   0.668024  0.957775  0.315530  -0.504432
    O   O4   0.471818  0.907881  0.407766  -0.524617
    C   C20  0.466890  0.821966  0.348471  0.527030
    Fe  Fe1  0.475461  0.006235  0.293066  1.458350
    O   O5   0.352299  0.957752  0.185937  -0.581436
    O   O6   0.402724  0.093782  0.101237  -0.527783
    C   C21  0.338338  0.016770  0.104947  0.709458
    O   O7   0.492480  0.134304  0.394843  -0.587793
    O   O8   0.331248  0.084776  0.393907  -0.596398
    C   C22  0.407807  0.150643  0.426419  0.609134
    O   O9   0.465058  0.882364  0.656391  -0.632037
    O   O10  0.624887  0.933642  0.648877  -0.551785
    C   C23  0.548681  0.866575  0.620904  0.633774
    O   O11  0.610704  0.059219  0.859575  -0.533933
    O   O12  0.556511  0.927725  0.951079  -0.520335
    C   C24  0.623051  0.002252  0.943652  0.698208
    O   O13  0.288458  0.049585  0.727828  -0.578486
    O   O14  0.489550  0.108280  0.638385  -0.439521
    C   C25  0.505665  0.196147  0.694544  0.526952
    O   O15  0.383672  0.992907  0.868651  -0.501102
    C   C26  0.301466  0.019435  0.835242  0.588606
    O   O16  0.510899  0.208875  0.814522  -0.518615
    Fe  Fe2  0.485716  0.011791  0.755601  1.409935
    C   C27  0.319113  0.281865  0.419113  -0.143632
    C   C28  0.395651  0.247837  0.472999  0.095567
    C   C29  0.468231  0.311676  0.544758  -0.029446
    C   C30  0.532082  0.280783  0.628984  0.037929
    C   C31  0.614245  0.343493  0.676985  0.164198
    C   C32  0.321460  0.378412  0.418804  -0.120999
    C   C33  0.403626  0.443170  0.466439  0.020710
    C   C34  0.475238  0.409764  0.534815  0.074300
    C   C35  0.553806  0.474080  0.592951  -0.018773
    C   C36  0.353934  0.572699  0.362880  -0.135156
    C   C37  0.414775  0.540129  0.447920  0.078337
    C   C38  0.490023  0.605589  0.512094  -0.000943
    C   C39  0.369700  0.666333  0.339913  -0.167269
    C   C40  0.440899  0.733159  0.406228  0.074296
    C   C41  0.626442  0.437735  0.655758  -0.168696
    C   C42  0.558499  0.572760  0.587054  0.087464
    C   C43  0.629773  0.639873  0.656351  -0.109345
    C   C44  0.496817  0.703908  0.501391  0.027929
    C   C45  0.562134  0.768626  0.582978  0.076239
    C   C46  0.629763  0.735733  0.655546  -0.182049
    H   H9   0.258148  0.399166  0.375987  0.120384
    H   H10  0.298540  0.526095  0.302521  0.133978
    H   H11  0.326319  0.686809  0.265259  0.153571
    H   H12  0.694322  0.480435  0.692560  0.110236
    H   H13  0.682167  0.622315  0.722273  0.136976
    H   H14  0.259733  0.233171  0.367160  0.142116
    H   H15  0.679179  0.785320  0.721221  0.168887
    N   N2   0.684966  0.313019  0.754171  -0.388700
    C   C47  0.742595  0.260686  0.694173  0.704318
    O   O17  0.717475  0.222650  0.589984  -0.511934
    C   C48  0.838571  0.250791  0.753552  -0.594473
    H   H16  0.720833  0.363349  0.823133  0.281175
    H   H17  0.849679  0.286410  0.849042  0.117765
    H   H18  0.896215  0.283768  0.700657  0.163056
    H   H19  0.842402  0.173648  0.754178  0.176194
    N   N3   0.934508  0.998278  0.772610  -0.388957
    C   C49  0.901583  0.908277  0.717702  0.693042
    O   O18  0.886139  0.842192  0.779425  -0.549734
    C   C50  0.880861  0.889093  0.582117  -0.564622
    H   H20  0.968373  0.047615  0.721321  0.247250
    H   H21  0.892277  0.957067  0.540472  0.124057
    H   H22  0.804583  0.854247  0.559287  0.192799
    H   H23  0.928278  0.840213  0.544968  0.124601
