# generated using pymatgen
data_Fe2H22C53O16
_symmetry_space_group_name_H-M   'P 1'
_cell_length_a   15.88699900
_cell_length_b   14.41487500
_cell_length_c   11.38715000
_cell_angle_alpha   93.78610200
_cell_angle_beta   89.27749300
_cell_angle_gamma   104.67266900
_symmetry_Int_Tables_number   1
_chemical_formula_structural   Fe2H22C53O16
_chemical_formula_sum   'Fe2 H22 C53 O16'
_cell_volume   2517.18984295
_cell_formula_units_Z   1
loop_
 _symmetry_equiv_pos_site_id
 _symmetry_equiv_pos_as_xyz
  1  'x, y, z'
loop_
 _atom_site_type_symbol
 _atom_site_label
 _atom_site_symmetry_multiplicity
 _atom_site_fract_x
 _atom_site_fract_y
 _atom_site_fract_z
 _atom_site_occupancy
  Fe  Fe1  1  0.51105100  0.01108100  0.26052400  1
  Fe  Fe2  1  0.50336900  0.01703500  0.75221400  1
  H  H1  1  0.17711600  0.00065900  0.81905900  1
  H  H2  1  0.06248700  0.03221500  0.77807800  1
  H  H3  1  0.92148800  0.04283100  0.73081200  1
  H  H4  1  0.06179000  0.90137500  0.25977400  1
  H  H5  1  0.92654700  0.91034900  0.20540700  1
  H  H6  1  0.77523500  0.03109700  0.77831700  1
  H  H7  1  0.82899200  0.98092000  0.18817400  1
  H  H8  1  0.56038800  0.33386900  0.80994500  1
  H  H9  1  0.58115100  0.49355400  0.89546800  1
  H  H10  1  0.42905600  0.23805200  0.24522200  1
  H  H11  1  0.40421200  0.36496100  0.13664200  1
  H  H12  1  0.57809600  0.65595100  0.88308100  1
  H  H13  1  0.55893400  0.78403900  0.77309000  1
  H  H14  1  0.39402600  0.52572000  0.12783200  1
  H  H15  1  0.41253600  0.68454600  0.21484300  1
  H  H16  1  0.29818000  0.88912100  0.45814500  1
  H  H17  1  0.18230800  0.87269700  0.48048700  1
  H  H18  1  0.22618200  0.76969500  0.44898000  1
  H  H19  1  0.15548200  0.80616100  0.27289300  1
  H  H20  1  0.26998700  0.82364700  0.25083200  1
  H  H21  1  0.29169500  0.00121600  0.30306100  1
  H  H22  1  0.18339700  0.98748900  0.32811100  1
  C  C1  1  0.28417700  0.98726300  0.06602000  1
  C  C2  1  0.26928700  0.99504400  0.94690500  1
  C  C3  1  0.18564500  0.99291200  0.91073100  1
  C  C4  1  0.21352800  0.96404200  0.14297900  1
  C  C5  1  0.12945300  0.95793500  0.10261800  1
  C  C6  1  0.11569900  0.98032500  0.98900600  1
  C  C7  1  0.03223700  0.98896600  0.95702200  1
  C  C8  1  0.01490100  0.01607500  0.84650200  1
  C  C9  1  0.93329000  0.02375300  0.81822800  1
  C  C10  1  0.05836900  0.92996700  0.17560400  1
  C  C11  1  0.97779700  0.93646400  0.14413100  1
  C  C12  1  0.96445500  0.97265200  0.03877900  1
  C  C13  1  0.88331200  0.98853500  0.01246200  1
  C  C14  1  0.86808600  0.01079700  0.90037000  1
  C  C15  1  0.78722700  0.01933000  0.86867400  1
  C  C16  1  0.81766200  0.98585800  0.09623200  1
  C  C17  1  0.73618900  0.99508000  0.06541200  1
  C  C18  1  0.72002100  0.00684600  0.94841200  1
  C  C19  1  0.66999700  0.99517200  0.15816100  1
  C  C20  1  0.50482900  0.83669900  0.34637300  1
  C  C21  1  0.37339900  0.00971000  0.11296800  1
  C  C22  1  0.47363800  0.15636300  0.41293400  1
  C  C23  1  0.52441400  0.86682000  0.60334600  1
  C  C24  1  0.63298500  0.00050500  0.90279700  1
  C  C25  1  0.48720000  0.18776300  0.66872700  1
  C  C26  1  0.33911100  0.00380000  0.85588800  1
  C  C27  1  0.47912800  0.25194600  0.47180500  1
  C  C28  1  0.49404400  0.26878300  0.59273600  1
  C  C29  1  0.51262600  0.36313200  0.64201300  1
  C  C30  1  0.54357400  0.38562300  0.75666600  1
  C  C31  1  0.55803400  0.47775800  0.80567100  1
  C  C32  1  0.44212100  0.30851800  0.28929600  1
  C  C33  1  0.46849700  0.32631800  0.40601800  1
  C  C34  1  0.47981200  0.41833900  0.45815900  1
  C  C35  1  0.42686500  0.38073700  0.22664500  1
  C  C36  1  0.43953700  0.47202800  0.27825400  1
  C  C37  1  0.50410100  0.43713100  0.57475500  1
  C  C38  1  0.51871000  0.53016200  0.62466800  1
  C  C39  1  0.54418200  0.54939400  0.74077400  1
  C  C40  1  0.55772600  0.64077900  0.79209700  1
  C  C41  1  0.46751700  0.49198800  0.39320900  1
  C  C42  1  0.48249100  0.58527300  0.44291000  1
  C  C43  1  0.50820800  0.60414300  0.55898500  1
  C  C44  1  0.52129200  0.69634000  0.61050400  1
  C  C45  1  0.54602400  0.71381900  0.72807100  1
  C  C46  1  0.42090600  0.54249700  0.21570700  1
  C  C47  1  0.43493200  0.63459900  0.26488900  1
  C  C48  1  0.47192400  0.65907700  0.37629000  1
  C  C49  1  0.49474600  0.75461500  0.42368100  1
  C  C50  1  0.51296400  0.77112700  0.54410300  1
  C  C51  1  0.22828900  0.95624400  0.27259000  1
  C  C52  1  0.22022900  0.85207900  0.29969100  1
  C  C53  1  0.23257000  0.84573200  0.43044400  1
  O  O1  1  0.60191900  0.02803300  0.13763700  1
  O  O2  1  0.52083000  0.82497000  0.23380200  1
  O  O3  1  0.68070800  0.96604200  0.26240500  1
  O  O4  1  0.50700600  0.92424800  0.38930400  1
  O  O5  1  0.39729900  0.94990500  0.17940800  1
  O  O6  1  0.42551000  0.09511300  0.10134200  1
  O  O7  1  0.53293000  0.14526600  0.33496300  1
  O  O8  1  0.41030800  0.08256400  0.43828900  1
  O  O9  1  0.46188100  0.88602100  0.67002600  1
  O  O10  1  0.60028700  0.92959600  0.60044800  1
  O  O11  1  0.62340200  0.05786400  0.82226900  1
  O  O12  1  0.56755600  0.92873100  0.92831200  1
  O  O13  1  0.31931800  0.00350400  0.74426500  1
  O  O14  1  0.51277900  0.11147300  0.63108400  1
  O  O15  1  0.42020000  0.00836900  0.88463100  1
  O  O16  1  0.45103300  0.18945800  0.77280500  1
