# generated using pymatgen
data_CuH9C15NO4
_symmetry_space_group_name_H-M   'P 1'
_cell_length_a   12.23457800
_cell_length_b   14.19043300
_cell_length_c   6.68287300
_cell_angle_alpha   90.00000000
_cell_angle_beta   80.41949600
_cell_angle_gamma   90.00000000
_symmetry_Int_Tables_number   1
_chemical_formula_structural   CuH9C15NO4
_chemical_formula_sum   'Cu2 H18 C30 N2 O8'
_cell_volume   1144.05785621
_cell_formula_units_Z   2
loop_
 _symmetry_equiv_pos_site_id
 _symmetry_equiv_pos_as_xyz
  1  'x, y, z'
loop_
 _atom_site_type_symbol
 _atom_site_label
 _atom_site_symmetry_multiplicity
 _atom_site_fract_x
 _atom_site_fract_y
 _atom_site_fract_z
 _atom_site_occupancy
  Cu  Cu1  1  0.00364500  0.90722900  0.01187200  1
  Cu  Cu2  1  0.99782700  0.09275300  0.98626300  1
  H  H1  1  0.86693000  0.58430000  0.26648900  1
  H  H2  1  0.84015400  0.43064400  0.19018400  1
  H  H3  1  0.00549200  0.43883800  0.67480700  1
  H  H4  1  0.96516500  0.59521600  0.70638700  1
  H  H5  1  0.86645100  0.42049300  0.81241100  1
  H  H6  1  0.84610900  0.57492100  0.90232000  1
  H  H7  1  0.14580000  0.42460900  0.12220400  1
  H  H8  1  0.17073700  0.58157500  0.06198300  1
  H  H9  1  0.16814500  0.41227200  0.84848700  1
  H  H10  1  0.15212700  0.57000400  0.79962500  1
  H  H11  1  0.95562600  0.40615600  0.32050100  1
  H  H12  1  0.00328000  0.56097400  0.32760500  1
  H  H13  1  0.35126200  0.04816700  0.03460300  1
  H  H14  1  0.54816000  0.05879100  0.97671700  1
  H  H15  1  0.72544000  0.04581500  0.10354400  1
  H  H16  1  0.27612900  0.95415200  0.89463500  1
  H  H17  1  0.45341500  0.94117700  0.02144500  1
  H  H18  1  0.65032300  0.95181800  0.96356100  1
  C  C1  1  0.15195900  0.01135600  0.22942800  1
  C  C2  1  0.15201600  0.99511100  0.67526100  1
  C  C3  1  0.84962100  0.98867400  0.76889600  1
  C  C4  1  0.84950800  0.00486800  0.32279300  1
  C  C5  1  0.92924500  0.44434100  0.19180300  1
  C  C6  1  0.94763400  0.54910100  0.21489800  1
  C  C7  1  0.94837200  0.45273100  0.81885000  1
  C  C8  1  0.93484200  0.55803500  0.85093000  1
  C  C9  1  0.99665700  0.41111600  0.99351700  1
  C  C10  1  0.00104200  0.58889200  0.01190200  1
  C  C11  1  0.11794100  0.55101100  0.95872400  1
  C  C12  1  0.11503500  0.44479000  0.98118500  1
  C  C13  1  0.00344000  0.69197500  0.02136000  1
  C  C14  1  0.99449900  0.30804300  0.98350800  1
  C  C15  1  0.25231900  0.01633100  0.32068100  1
  C  C16  1  0.35131300  0.03242200  0.19278900  1
  C  C17  1  0.45044300  0.02612000  0.26369200  1
  C  C18  1  0.54887400  0.04117200  0.13388700  1
  C  C19  1  0.64812400  0.03367700  0.20472800  1
  C  C20  1  0.25288600  0.99558000  0.52334100  1
  C  C21  1  0.35268700  0.98791600  0.59254800  1
  C  C22  1  0.45120000  0.00324000  0.46343900  1
  C  C23  1  0.55036600  0.99678000  0.53475900  1
  C  C24  1  0.64887800  0.01209100  0.40565000  1
  C  C25  1  0.74868800  0.00443100  0.47483400  1
  C  C26  1  0.35344300  0.96630100  0.79345500  1
  C  C27  1  0.45269700  0.95880900  0.86428700  1
  C  C28  1  0.55113000  0.97389000  0.73449400  1
  C  C29  1  0.65026900  0.96759100  0.80538900  1
  C  C30  1  0.74927600  0.98369300  0.67752000  1
  N  N1  1  0.00490300  0.77350900  0.02598700  1
  N  N2  1  0.99359100  0.22651900  0.97770000  1
  O  O1  1  0.11581700  0.92824900  0.18396100  1
  O  O2  1  0.11458100  0.08807000  0.15432000  1
  O  O3  1  0.11993900  0.91667300  0.77177600  1
  O  O4  1  0.11064400  0.07636000  0.74481400  1
  O  O5  1  0.88690300  0.91173600  0.84362700  1
  O  O6  1  0.88562400  0.07195800  0.81404900  1
  O  O7  1  0.89078300  0.92350100  0.25339200  1
  O  O8  1  0.88153500  0.08342900  0.22646900  1
