# generated using pymatgen
data_ZnH19C27NO4
_symmetry_space_group_name_H-M   'P 1'
_cell_length_a   14.01619700
_cell_length_b   15.24128100
_cell_length_c   17.48157200
_cell_angle_alpha   90.00304200
_cell_angle_beta   86.27065800
_cell_angle_gamma   90.00484300
_symmetry_Int_Tables_number   1
_chemical_formula_structural   ZnH19C27NO4
_chemical_formula_sum   'Zn2 H38 C54 N2 O8'
_cell_volume   3726.58922872
_cell_formula_units_Z   2
loop_
 _symmetry_equiv_pos_site_id
 _symmetry_equiv_pos_as_xyz
  1  'x, y, z'
loop_
 _atom_site_type_symbol
 _atom_site_label
 _atom_site_symmetry_multiplicity
 _atom_site_fract_x
 _atom_site_fract_y
 _atom_site_fract_z
 _atom_site_occupancy
  Zn  Zn1  1  0.41105800  0.49488100  0.47093200  1
  Zn  Zn2  1  0.62779800  0.50064800  0.46844600  1
  H  H1  1  0.65610700  0.51131300  0.71223300  1
  H  H2  1  0.38265100  0.48394000  0.22728500  1
  H  H3  1  0.68813200  0.49229600  0.22327800  1
  H  H4  1  0.35064500  0.50280500  0.71598200  1
  H  H5  1  0.62270600  0.46447100  0.96592600  1
  H  H6  1  0.41578900  0.53045000  0.97346100  1
  H  H7  1  0.34258800  0.50515200  0.85508500  1
  H  H8  1  0.69601600  0.48976900  0.08418400  1
  H  H9  1  0.39061100  0.47955700  0.08965500  1
  H  H10  1  0.64797100  0.51559000  0.84985400  1
  H  H11  1  0.37121400  0.94819900  0.47223800  1
  H  H12  1  0.64046900  0.05158900  0.54038200  1
  H  H13  1  0.66632700  0.77586600  0.46136500  1
  H  H14  1  0.41032700  0.22307000  0.40219800  1
  H  H15  1  0.67343200  0.93301300  0.46023300  1
  H  H16  1  0.40983100  0.06520100  0.39384000  1
  H  H17  1  0.95066000  0.62920100  0.51693200  1
  H  H18  1  0.09493600  0.42650400  0.36405300  1
  H  H19  1  0.77697400  0.62853300  0.51689400  1
  H  H20  1  0.26773300  0.42222900  0.36873000  1
  H  H21  1  0.78201200  0.37708100  0.41783100  1
  H  H22  1  0.25135800  0.56537400  0.57469000  1
  H  H23  1  0.95466700  0.37109300  0.42019000  1
  H  H24  1  0.07774100  0.56798900  0.57607200  1
  H  H25  1  0.31230800  0.73914200  0.50848600  1
  H  H26  1  0.33551100  0.72778700  0.40570400  1
  H  H27  1  0.18329700  0.82613100  0.55086500  1
  H  H28  1  0.05313700  0.92603300  0.52309100  1
  H  H29  1  0.04833600  0.99312100  0.39550100  1
  H  H30  1  0.17402700  0.95937900  0.29509100  1
  H  H31  1  0.30474600  0.85919500  0.32221200  1
  H  H32  1  0.62886000  0.28838500  0.59029800  1
  H  H33  1  0.72676000  0.23602800  0.53588000  1
  H  H34  1  0.52714400  0.18125800  0.68239300  1
  H  H35  1  0.55207500  0.09376500  0.79731100  1
  H  H36  1  0.71143500  0.03462400  0.81851000  1
  H  H37  1  0.84617200  0.06336800  0.72469100  1
  H  H38  1  0.82209900  0.15032600  0.60976200  1
  C  C1  1  0.51545900  0.67020100  0.46401000  1
  C  C2  1  0.52295800  0.32605000  0.47581900  1
  C  C3  1  0.50941500  0.50361200  0.61975800  1
  C  C4  1  0.52947400  0.49170100  0.31961900  1
  C  C5  1  0.50408300  0.50592600  0.70382400  1
  C  C6  1  0.53471300  0.48927200  0.23555900  1
  C  C7  1  0.58665100  0.50925600  0.74284500  1
  C  C8  1  0.45207700  0.48594300  0.19661300  1
  C  C9  1  0.58184300  0.51047800  0.82189400  1
  C  C10  1  0.45678200  0.48464000  0.11756400  1
  C  C11  1  0.49402000  0.50780700  0.86313000  1
  C  C12  1  0.54456300  0.48720100  0.07626200  1
  C  C13  1  0.41171900  0.50628600  0.82385900  1
  C  C14  1  0.62691900  0.48870800  0.11546200  1
  C  C15  1  0.41646200  0.50486200  0.74486400  1
  C  C16  1  0.62228000  0.49022600  0.19445100  1
  C  C17  1  0.48413200  0.50944500  0.94762600  1
  C  C18  1  0.55437700  0.48549400  0.99176800  1
  C  C19  1  0.43455300  0.90829700  0.46524000  1
  C  C20  1  0.59032700  0.09024800  0.51042500  1
  C  C21  1  0.42851000  0.81734400  0.46007500  1
  C  C22  1  0.58974700  0.18115700  0.51717900  1
  C  C23  1  0.51298800  0.76764300  0.46153000  1
  C  C24  1  0.52504600  0.22968000  0.47684300  1
  C  C25  1  0.59970700  0.81149900  0.46177900  1
  C  C26  1  0.46025100  0.18635000  0.43425700  1
  C  C27  1  0.60417000  0.90170100  0.46216200  1
  C  C28  1  0.45998600  0.09637600  0.42958600  1
  C  C29  1  0.52154100  0.95078700  0.46487500  1
  C  C30  1  0.52470600  0.04742500  0.46783800  1
  C  C31  1  0.91528000  0.57197300  0.49580900  1
  C  C32  1  0.12711600  0.45596500  0.41232500  1
  C  C33  1  0.81688700  0.57229500  0.49490000  1
  C  C34  1  0.22524000  0.45413300  0.41442700  1
  C  C35  1  0.81964900  0.43257400  0.43974700  1
  C  C36  1  0.21612100  0.53384700  0.52887900  1
  C  C37  1  0.91781800  0.42975700  0.44032500  1
  C  C38  1  0.11776900  0.53640400  0.52888900  1
  C  C39  1  0.96702500  0.49991000  0.46862500  1
  C  C40  1  0.07198700  0.49748900  0.46996300  1
  C  C41  1  0.33183000  0.77459400  0.45433000  1
  C  C42  1  0.25336700  0.83700800  0.43854100  1
  C  C43  1  0.18199000  0.85523200  0.49456100  1
  C  C44  1  0.10863900  0.91147800  0.47908300  1
  C  C45  1  0.10591000  0.94907600  0.40754900  1
  C  C46  1  0.17638900  0.93020000  0.35128900  1
  C  C47  1  0.24978700  0.87397200  0.36660600  1
  C  C48  1  0.65752700  0.22475000  0.56875500  1
  C  C49  1  0.67262800  0.17082100  0.63819800  1
  C  C50  1  0.59726900  0.15517200  0.69130500  1
  C  C51  1  0.61120300  0.10614700  0.75591700  1
  C  C52  1  0.70053200  0.07303100  0.76783800  1
  C  C53  1  0.77605100  0.08913900  0.71523900  1
  C  C54  1  0.76230200  0.13814800  0.65058800  1
  N  N1  1  0.77060800  0.50302600  0.46711900  1
  N  N2  1  0.26826300  0.49294300  0.47214900  1
  O  O1  1  0.43536100  0.62578900  0.46702300  1
  O  O2  1  0.60397000  0.36955900  0.47281100  1
  O  O3  1  0.59897300  0.63086700  0.46435000  1
  O  O4  1  0.43935200  0.36466400  0.47459600  1
  O  O5  1  0.42949900  0.49962500  0.58484300  1
  O  O6  1  0.60936500  0.49540200  0.35455200  1
  O  O7  1  0.59391300  0.50499600  0.58282500  1
  O  O8  1  0.44503200  0.49095300  0.35655600  1
