# Generated by REPEAT Assigner based on pymatgen
data_DB0-m2_o19_sod_sqe
_audit_creation_date              2022-05-24
_audit_creation_method            REPEAT_Assigner
_cell_length_a                    35.541173
_cell_length_b                    22.713552
_cell_length_c                    22.687410
_cell_angle_alpha                 95.099027
_cell_angle_beta                  58.517095
_cell_angle_gamma                 58.507420
_cell_volume                      11553.977876
_symmetry_space_group_name_H-M    P1
_symmetry_Int_Tables_number       1
loop_
    _symmetry_equiv_pos_site_id
    _symmetry_equiv_pos_as_xyz
    1  x,y,z
loop_
    _atom_site_type_symbol
    _atom_site_label
    _atom_site_fract_x
    _atom_site_fract_y
    _atom_site_fract_z
    _atom_type_partial_charge
    O   O1    0.506875  0.547131  0.423879  -0.577374
    O   O2    0.574793  0.411183  0.356357  -0.601837
    C   C1    0.551089  0.479093  0.356696  0.770628
    O   O3    0.532400  0.547384  0.519413  -0.607795
    O   O4    0.600334  0.411448  0.451867  -0.596061
    C   C2    0.585114  0.479443  0.483970  0.795559
    Cu  Cu1   0.470859  0.557678  0.529581  1.030621
    Cu  Cu2   0.549137  0.401003  0.451723  1.045770
    O   O5    0.445241  0.547400  0.624933  -0.570932
    O   O6    0.513180  0.411452  0.557338  -0.594428
    O   O7    0.419630  0.547334  0.529489  -0.601095
    O   O8    0.487524  0.411399  0.461945  -0.598841
    C   C3    0.468975  0.479449  0.624538  0.752665
    C   C4    0.434809  0.479380  0.497410  0.776471
    O   O9    0.900556  0.449706  0.357058  -0.597093
    O   O10   0.900463  0.381695  0.425422  -0.574318
    C   C5    0.923642  0.382414  0.357957  0.757478
    O   O11   0.882289  0.554911  0.462315  -0.591716
    O   O12   0.882151  0.486938  0.530706  -0.610219
    C   C6    0.899278  0.522620  0.498232  0.784607
    Cu  Cu3   0.830986  0.555001  0.451944  1.038161
    Cu  Cu4   0.830848  0.476664  0.530768  1.041814
    O   O13   0.761399  0.649988  0.557202  -0.597120
    O   O14   0.761254  0.582046  0.625636  -0.574104
    O   O15   0.779665  0.544675  0.452051  -0.590938
    O   O16   0.779563  0.476711  0.520446  -0.609706
    C   C7    0.738195  0.649322  0.624682  0.757784
    C   C8    0.762556  0.508975  0.484546  0.782272
    O   O17   0.574572  0.023727  0.744229  -0.603957
    O   O18   0.506711  0.091296  0.880321  -0.579227
    C   C9    0.550868  0.024146  0.812252  0.773656
    O   O19   0.600297  0.118932  0.744225  -0.597304
    O   O20   0.532412  0.186529  0.880304  -0.608601
    C   C10   0.585132  0.151017  0.812245  0.797250
    Cu  Cu5   0.549001  0.118920  0.733915  1.048990
    Cu  Cu6   0.470784  0.196828  0.890751  1.033076
    O   O21   0.513136  0.224367  0.744245  -0.596663
    O   O22   0.445250  0.292007  0.880338  -0.572332
    O   O23   0.487303  0.129265  0.744464  -0.599791
    O   O24   0.419460  0.196862  0.880539  -0.602078
    C   C11   0.468987  0.291532  0.812274  0.756749
    C   C12   0.434583  0.164798  0.812563  0.776301
    O   O25   0.087647  0.649938  0.595311  -0.604136
    O   O26   0.155504  0.582387  0.459220  -0.578605
    C   C13   0.111347  0.649531  0.527294  0.773630
    O   O27   0.174924  0.544388  0.595064  -0.600088
    O   O28   0.242761  0.476806  0.458984  -0.602332
    C   C14   0.227641  0.508860  0.526961  0.777161
    Cu  Cu7   0.113224  0.554739  0.605614  1.049007
    Cu  Cu8   0.191434  0.476848  0.448774  1.032665
    O   O29   0.149090  0.449287  0.595269  -0.596570
    O   O30   0.216970  0.381664  0.459177  -0.571926
    O   O31   0.061929  0.554728  0.595301  -0.597040
    O   O32   0.129805  0.487148  0.459225  -0.608627
    C   C15   0.193238  0.382127  0.527235  0.756395
    C   C16   0.077088  0.522653  0.527285  0.796605
    O   O33   0.900961  0.091637  0.713908  -0.573685
    O   O34   0.900813  0.023707  0.782352  -0.596576
    C   C17   0.924021  0.024364  0.714868  0.756961
    O   O35   0.882640  0.196994  0.819097  -0.608732
    O   O36   0.882533  0.129036  0.887501  -0.589782
    C   C18   0.899642  0.164736  0.855004  0.783484
    Cu  Cu9   0.831363  0.197023  0.808768  1.039973
    Cu  Cu10  0.831218  0.118700  0.887605  1.035532
    O   O37   0.761747  0.291997  0.914110  -0.573736
    O   O38   0.761647  0.223997  0.982486  -0.596111
    O   O39   0.780059  0.186753  0.808829  -0.608464
    O   O40   0.779913  0.118794  0.877233  -0.589707
    C   C19   0.738565  0.291284  0.981579  0.755665
    C   C20   0.762927  0.151077  0.841311  0.782827
    O   O41   0.149036  0.262240  0.782199  -0.594380
    O   O42   0.216961  0.126293  0.714604  -0.570215
    C   C21   0.193233  0.194244  0.714999  0.752570
    O   O43   0.174695  0.262275  0.877584  -0.598400
    O   O44   0.242586  0.126340  0.810037  -0.601004
    C   C22   0.227411  0.194292  0.842117  0.774770
    Cu  Cu11  0.113075  0.272686  0.887814  1.045676
    Cu  Cu12  0.191352  0.116008  0.809952  1.029598
    O   O45   0.087423  0.262499  0.983176  -0.602745
    O   O46   0.155332  0.126552  0.915652  -0.577246
    O   O47   0.061870  0.262252  0.887680  -0.595379
    O   O48   0.129805  0.126317  0.820122  -0.607016
    C   C23   0.111122  0.194589  0.982837  0.771664
    C   C24   0.077090  0.194259  0.855572  0.795515
    C   C25   0.724728  0.505139  0.480768  -0.183524
    C   C26   0.693738  0.497149  0.480782  0.065997
    C   C27   0.657508  0.487690  0.480597  0.081840
    C   C28   0.626689  0.479530  0.480268  -0.201278
    C   C29   0.446274  0.479472  0.698631  -0.171411
    C   C30   0.449875  0.437655  0.728413  0.078433
    C   C31   0.449903  0.395427  0.770503  0.077050
    C   C32   0.446349  0.365501  0.812209  -0.172476
    C   C33   0.269359  0.504982  0.526797  -0.169143
    C   C34   0.308388  0.497013  0.518634  0.060513
    C   C35   0.354132  0.487578  0.509177  0.061645
    C   C36   0.393159  0.479437  0.501193  -0.170024
    C   C37   0.687250  0.365125  0.055432  -0.166673
    C   C38   0.653888  0.395109  0.126941  0.070855
    C   C39   0.611873  0.437272  0.211082  0.083025
    C   C40   0.573862  0.478925  0.282531  -0.178814
    C   C41   0.573578  0.950105  0.812173  -0.180248
    C   C42   0.611546  0.878717  0.770595  0.084259
    C   C43   0.653528  0.794664  0.728473  0.070794
    C   C44   0.686882  0.723230  0.698467  -0.168042
    C   C45   0.035443  0.526455  0.527306  -0.201941
    C   C46   0.004528  0.526262  0.519270  0.081544
    C   C47   0.968190  0.526236  0.509952  0.067960
    C   C48   0.937109  0.526381  0.502076  -0.186083
    C   C49   0.974957  0.308578  0.284100  -0.167675
    C   C50   0.008318  0.278586  0.212590  0.071230
    C   C51   0.050337  0.236415  0.128449  0.083427
    C   C52   0.088349  0.194756  0.057001  -0.179382
    C   C53   0.626774  0.147218  0.812227  -0.202986
    C   C54   0.657685  0.147418  0.820268  0.082899
    C   C55   0.694019  0.147454  0.829590  0.066726
    C   C56   0.725096  0.147316  0.837470  -0.185544
    C   C57   0.392868  0.168670  0.812724  -0.168429
    C   C58   0.353837  0.176645  0.820889  0.060120
    C   C59   0.308090  0.186086  0.830347  0.060793
    C   C60   0.269062  0.194231  0.838332  -0.167988
    C   C61   0.975338  0.950452  0.641088  -0.167874
    C   C62   0.008692  0.879019  0.611084  0.071086
    C   C63   0.050668  0.794966  0.568964  0.084167
    C   C64   0.088633  0.723578  0.527385  -0.180536
    C   C65   0.215933  0.194222  0.640907  -0.170437
    C   C66   0.212340  0.236026  0.611109  0.075373
    C   C67   0.212318  0.278238  0.569004  0.080842
    C   C68   0.215878  0.308153  0.527287  -0.174358
    C   C69   0.937465  0.168580  0.858789  -0.186124
    C   C70   0.968457  0.176567  0.858772  0.066807
    C   C71   0.004690  0.186021  0.858952  0.083169
    C   C72   0.035513  0.194175  0.859275  -0.203080
