# Generated by REPEAT Assigner based on pymatgen
data_DB0-m3_o160_o146_f0_fsc.sym.111_sqe
_audit_creation_date              2022-05-24
_audit_creation_method            REPEAT_Assigner
_cell_length_a                    13.468147
_cell_length_b                    15.354396
_cell_length_c                    11.811643
_cell_angle_alpha                 90.000000
_cell_angle_beta                  90.145316
_cell_angle_gamma                 90.000000
_cell_volume                      2442.584067
_symmetry_space_group_name_H-M    P1
_symmetry_Int_Tables_number       1
loop_
    _symmetry_equiv_pos_site_id
    _symmetry_equiv_pos_as_xyz
    1  x,y,z
loop_
    _atom_site_type_symbol
    _atom_site_label
    _atom_site_fract_x
    _atom_site_fract_y
    _atom_site_fract_z
    _atom_type_partial_charge
    C   C1   0.994843  0.307614  0.710642  -0.177114
    C   C2   0.989389  0.693366  0.705634  -0.194005
    C   C3   0.996172  0.077287  0.913089  0.044503
    C   C4   0.000271  0.920251  0.912854  0.035420
    C   C5   0.072247  0.173273  0.768265  -0.234459
    C   C6   0.077057  0.820625  0.772654  -0.245421
    H   H1   0.131509  0.126555  0.757455  0.118278
    H   H2   0.141321  0.862661  0.768169  0.117273
    C   C7   0.924592  0.296945  0.796844  0.189800
    C   C8   0.910718  0.714047  0.779385  0.212609
    C   C9   0.069486  0.246132  0.699940  -0.065106
    C   C10  0.072128  0.747384  0.705057  -0.059543
    H   H3   0.125310  0.253089  0.635013  0.105086
    H   H4   0.133147  0.734765  0.648182  0.110083
    C   C11  0.998528  0.158929  0.846956  0.190786
    C   C12  0.000602  0.839826  0.845559  0.238913
    C   C13  0.923832  0.219941  0.857882  -0.275277
    C   C14  0.919093  0.786215  0.848442  -0.308910
    H   H5   0.863092  0.207369  0.915029  0.095829
    H   H6   0.858954  0.802273  0.904937  0.092268
    C   C15  0.974010  0.299391  0.238760  -0.124286
    C   C16  0.972323  0.693035  0.233104  -0.040675
    C   C17  0.973850  0.075979  0.028165  -0.034745
    C   C18  0.977193  0.919588  0.027476  -0.026416
    C   C19  0.887935  0.177730  0.157531  -0.174418
    C   C20  0.890915  0.819383  0.158368  -0.136862
    H   H7   0.821182  0.139060  0.149810  0.095682
    H   H8   0.826710  0.861606  0.155914  0.093788
    C   C21  0.058429  0.273890  0.182014  -0.083947
    C   C22  0.054818  0.712725  0.168634  -0.163837
    H   H9   0.126487  0.308543  0.193445  0.142426
    H   H10  0.120212  0.672529  0.172444  0.160470
    C   C23  0.888256  0.250579  0.226296  -0.075115
    C   C24  0.889601  0.746123  0.226216  -0.137608
    H   H11  0.821426  0.267420  0.271747  0.094430
    H   H12  0.824612  0.732911  0.276872  0.107499
    C   C25  0.971869  0.155148  0.097247  0.300579
    C   C26  0.973544  0.838795  0.093975  0.239348
    C   C27  0.057179  0.203400  0.110187  -0.251398
    C   C28  0.055186  0.784677  0.098854  -0.169368
    H   H13  0.124395  0.184386  0.066889  0.106814
    H   H14  0.121195  0.800066  0.050979  0.089521
    C   C29  0.009710  0.998990  0.857026  -0.237445
    C   C30  0.963700  0.997423  0.083445  -0.187083
    H   H15  0.021715  0.998886  0.766601  0.122256
    H   H16  0.950193  0.997093  0.173621  0.084265
    O   O1   0.072588  0.592982  0.579781  -0.666654
    O   O2   0.074394  0.405562  0.580664  -0.662861
    O   O3   0.901952  0.588934  0.590740  -0.579209
    O   O4   0.903361  0.407164  0.592226  -0.680751
    C   C31  0.987833  0.620453  0.623171  0.701016
    C   C32  0.990552  0.377958  0.625246  0.759814
    O   O5   0.891792  0.591232  0.356230  -0.660817
    O   O6   0.892925  0.402921  0.357544  -0.671412
    O   O7   0.062053  0.589869  0.344910  -0.648088
    O   O8   0.063722  0.406781  0.346044  -0.650773
    C   C33  0.975268  0.620080  0.313550  0.724093
    C   C34  0.977024  0.374484  0.316039  0.767381
    Zn  Zn1  0.872158  0.497386  0.473428  0.981980
    Zn  Zn2  0.093843  0.499040  0.462784  1.015726
    C   C35  0.284472  0.512876  0.362912  -0.006949
    N   N1   0.224542  0.500051  0.454978  0.000677
    C   C36  0.268157  0.490349  0.557510  -0.062273
    C   C37  0.370128  0.488478  0.570606  -0.187397
    C   C38  0.431458  0.505040  0.479424  -0.143169
    C   C39  0.386133  0.524015  0.377668  0.485841
    C   C40  0.589481  0.477055  0.578956  -0.200999
    C   C41  0.535620  0.503269  0.484650  0.232647
    C   C42  0.588775  0.526203  0.389579  -0.018407
    C   C43  0.540193  0.553720  0.294013  0.190858
    N   N2   0.441029  0.551005  0.289577  -0.527404
    C   C44  0.692178  0.475224  0.575593  -0.052376
    N   N3   0.741919  0.496769  0.480693  0.072031
    C   C45  0.690834  0.521658  0.388241  -0.118610
    H   H17  0.223526  0.483122  0.632572  0.140944
    H   H18  0.729255  0.537174  0.310877  0.142918
    H   H19  0.581423  0.574084  0.220208  0.088322
    H   H20  0.398358  0.477868  0.654843  0.143990
    H   H21  0.554688  0.456873  0.656611  0.139878
    H   H22  0.731951  0.456433  0.650761  0.129632
    C   C46  0.245157  0.518155  0.243005  -0.213866
    C   C47  0.295841  0.456860  0.157744  0.511342
    C   C48  0.318855  0.367859  0.208421  -0.385651
    C   C49  0.230768  0.448183  0.053138  -0.357700
    H   H23  0.254696  0.585776  0.212306  0.045450
    H   H24  0.166158  0.502067  0.239863  0.100363
    H   H25  0.365950  0.485242  0.126246  -0.068574
    H   H26  0.315535  0.317172  0.141670  0.084712
    H   H27  0.266006  0.351322  0.276711  0.062566
    H   H28  0.395006  0.368094  0.244276  0.062204
    H   H29  0.158170  0.419188  0.074314  0.099962
    H   H30  0.268547  0.407238  0.988993  0.065269
    H   H31  0.218130  0.513718  0.016344  0.052274
    C   C50  0.849162  0.365085  0.828956  -0.298473
    C   C51  0.860199  0.393597  0.952192  0.505624
    C   C52  0.949900  0.452731  0.965357  -0.278322
    C   C53  0.767482  0.442299  0.988286  -0.440458
    H   H32  0.773861  0.337672  0.815622  0.068594
    H   H33  0.856360  0.425082  0.779017  0.100418
    H   H34  0.869039  0.337223  0.009291  -0.047473
    H   H35  0.939363  0.513329  0.915750  0.035179
    H   H36  0.017644  0.418906  0.935582  0.044207
    H   H37  0.959688  0.469912  0.055891  0.036312
    H   H38  0.752386  0.496653  0.929027  0.096384
    H   H39  0.777796  0.468514  0.075004  0.089784
    H   H40  0.703161  0.397196  0.988335  0.060027
    C   C54  0.817514  0.661662  0.796674  -0.177439
    C   C55  0.724929  0.711537  0.757912  0.481486
    C   C56  0.722766  0.723288  0.630258  -0.415645
    C   C57  0.632786  0.662779  0.795672  -0.424808
    H   H41  0.810645  0.650565  0.889071  0.037785
    H   H42  0.819165  0.596079  0.759186  0.075208
    H   H43  0.722336  0.776918  0.797242  -0.052136
    H   H44  0.719853  0.659169  0.587928  0.098559
    H   H45  0.789209  0.759595  0.601509  0.075761
    H   H46  0.655842  0.761098  0.606064  0.069864
    H   H47  0.634752  0.595038  0.763778  0.082200
    H   H48  0.565492  0.695994  0.762893  0.088254
    H   H49  0.629602  0.661671  0.889474  0.066272
