# Generated by REPEAT Assigner based on pymatgen
data_DB0-m3_o12_o23_f0_pcu.sym.37
_audit_creation_date              2022-05-24
_audit_creation_method            REPEAT_Assigner
_cell_length_a                    10.264951
_cell_length_b                    11.384352
_cell_length_c                    15.971903
_cell_angle_alpha                 89.998997
_cell_angle_beta                  80.484162
_cell_angle_gamma                 92.480085
_cell_volume                      1839.017966
_symmetry_space_group_name_H-M    P1
_symmetry_Int_Tables_number       1
loop_
    _symmetry_equiv_pos_site_id
    _symmetry_equiv_pos_as_xyz
    1  x,y,z
loop_
    _atom_site_type_symbol
    _atom_site_label
    _atom_site_fract_x
    _atom_site_fract_y
    _atom_site_fract_z
    _atom_type_partial_charge
    O   O1   0.420205  0.687404  0.508015  -0.599129
    O   O2   0.643974  0.659627  0.487582  -0.703616
    C   C1   0.543387  0.728649  0.496585  0.626763
    O   O3   0.379804  0.515282  0.637238  -0.671473
    O   O4   0.604048  0.486449  0.616926  -0.689156
    C   C2   0.490592  0.501039  0.666115  0.895191
    Zn  Zn1  0.351109  0.517694  0.514727  1.064035
    Zn  Zn2  0.647349  0.481766  0.488613  1.073875
    O   O5   0.354087  0.340019  0.515829  -0.678617
    O   O6   0.578731  0.311703  0.495236  -0.637926
    O   O7   0.394376  0.512834  0.386386  -0.700369
    O   O8   0.618622  0.484109  0.366140  -0.656628
    C   C3   0.454814  0.271667  0.506847  0.758166
    C   C4   0.507903  0.498175  0.337224  0.896651
    C   C5   0.399276  0.583796  0.968064  0.268291
    C   C6   0.643802  0.544238  0.934103  0.473762
    C   C7   0.646469  0.548799  0.032272  0.549162
    H   H1   0.415269  0.665282  0.089230  0.095364
    C   C8   0.510499  0.497426  0.247111  -0.336988
    C   C9   0.501654  0.500046  0.921963  0.391254
    C   C10  0.401681  0.576897  0.062549  -0.214865
    C   C11  0.510922  0.496269  0.079880  0.221927
    C   C12  0.480163  0.368079  0.053251  0.796341
    C   C13  0.464385  0.371704  0.956896  0.201660
    C   C14  0.511187  0.496907  0.171578  -0.081063
    C   C15  0.492688  0.501072  0.831194  -0.072547
    C   C16  0.489014  0.501405  0.756132  -0.340861
    H   H2   0.298811  0.558304  0.956560  -0.032924
    H   H3   0.302501  0.548255  0.095365  0.024358
    H   H4   0.618398  0.094420  0.489699  0.102375
    C   C17  0.573268  0.857150  0.493427  0.154295
    C   C18  0.478642  0.936588  0.504294  0.293281
    H   H5   0.319103  0.118899  0.520939  0.092679
    C   C19  0.423107  0.144848  0.510272  -0.290365
    C   C20  0.515448  0.064408  0.500553  -0.087304
    N   N1   0.842512  0.460218  0.472263  -0.354231
    C   C21  0.927246  0.508002  0.514871  0.445057
    H   H6   0.118086  0.588104  0.582910  0.235942
    N   N2   0.156007  0.539579  0.531089  -0.334149
    C   C22  0.071215  0.491565  0.488618  0.425612
    H   H7   0.880492  0.411982  0.420308  0.241142
    N   N3   0.586914  0.294508  0.070387  -0.861632
    H   H8   0.548813  0.209625  0.086809  0.299614
    H   H9   0.666794  0.287872  0.021964  0.298605
    N   N4   0.342187  0.898274  0.519959  -0.757695
    H   H10  0.298076  0.930620  0.578540  0.309734
    H   H11  0.295949  0.929882  0.471486  0.308852
    N   N5   0.708902  0.897310  0.478348  -0.783314
    H   H12  0.753260  0.863174  0.420424  0.319378
    H   H13  0.754436  0.863841  0.526528  0.301891
    N   N6   0.114853  0.422977  0.415244  -0.914460
    H   H14  0.165112  0.478661  0.367719  0.389223
    H   H15  0.176470  0.359055  0.430822  0.410380
    N   N7   0.883510  0.576204  0.588424  -0.932201
    H   H16  0.833434  0.520227  0.635825  0.395336
    H   H17  0.821544  0.639951  0.573032  0.406069
    N   N8   0.422538  0.705157  0.938652  -0.810214
    H   H18  0.401514  0.710191  0.877040  0.291067
    H   H19  0.353449  0.756012  0.976055  0.274904
    N   N9   0.741431  0.467582  0.887141  -0.887787
    H   H20  0.831885  0.514043  0.870217  0.277018
    H   H21  0.759042  0.392442  0.919246  0.322264
    N   N10  0.674401  0.661342  0.896191  -0.814633
    H   H22  0.682720  0.655442  0.830334  0.340095
    H   H23  0.767387  0.692152  0.907115  0.246757
    N   N11  0.664131  0.669385  0.062522  -0.950777
    H   H24  0.764128  0.696042  0.051745  0.319734
    H   H25  0.611284  0.731730  0.036117  0.347421
    N   N12  0.756497  0.484300  0.054002  -0.828347
    H   H26  0.763615  0.499111  0.117601  0.336417
    H   H27  0.845021  0.518737  0.019181  0.260224
    N   N13  0.329090  0.340069  0.943754  -0.880870
    H   H28  0.255079  0.377625  0.986368  0.280851
    H   H29  0.312918  0.248881  0.946261  0.316001
    N   N14  0.548585  0.287237  0.907649  -0.820659
    H   H30  0.526861  0.203733  0.934813  0.263809
    H   H31  0.523828  0.280467  0.846991  0.371348
    N   N15  0.361299  0.318515  0.108044  -0.887985
    H   H32  0.278867  0.369507  0.116571  0.312136
    H   H33  0.335391  0.234858  0.087651  0.286473
