# generated using pymatgen
data_CuH13C16NO4
_symmetry_space_group_name_H-M   'P 1'
_cell_length_a   8.91947800
_cell_length_b   16.03453700
_cell_length_c   14.61622900
_cell_angle_alpha   90.00935600
_cell_angle_beta   97.97860200
_cell_angle_gamma   89.99036700
_symmetry_Int_Tables_number   1
_chemical_formula_structural   CuH13C16NO4
_chemical_formula_sum   'Cu2 H26 C32 N2 O8'
_cell_volume   2070.17343077
_cell_formula_units_Z   2
loop_
 _symmetry_equiv_pos_site_id
 _symmetry_equiv_pos_as_xyz
  1  'x, y, z'
loop_
 _atom_site_type_symbol
 _atom_site_label
 _atom_site_symmetry_multiplicity
 _atom_site_fract_x
 _atom_site_fract_y
 _atom_site_fract_z
 _atom_site_occupancy
  Cu  Cu1  1  0.50388200  0.49969700  0.59174900  1
  Cu  Cu2  1  0.49611900  0.50030300  0.40825000  1
  H  H1  1  0.50602100  0.07815400  0.64532500  1
  H  H2  1  0.49397900  0.92184600  0.35467500  1
  H  H3  1  0.05515800  0.42003100  0.34130900  1
  H  H4  1  0.89099600  0.39808400  0.39404000  1
  H  H5  1  0.90790700  0.49678300  0.33346800  1
  H  H6  1  0.94484200  0.57996900  0.65869100  1
  H  H7  1  0.09209400  0.50321700  0.66653100  1
  H  H8  1  0.10900500  0.60191600  0.60596000  1
  H  H9  1  0.49992600  0.95493400  0.72877600  1
  H  H10  1  0.39210800  0.87286300  0.66554800  1
  H  H11  1  0.59691800  0.86931700  0.68201600  1
  H  H12  1  0.50007500  0.04506600  0.27122300  1
  H  H13  1  0.40308300  0.13068300  0.31798300  1
  H  H14  1  0.60789300  0.12713600  0.33445200  1
  H  H15  1  0.68586400  0.60913300  0.18932000  1
  H  H16  1  0.81712200  0.59811000  0.10842200  1
  H  H17  1  0.67158200  0.67794600  0.09264000  1
  H  H18  1  0.31413800  0.39086800  0.81068000  1
  H  H19  1  0.32841900  0.32205400  0.90736000  1
  H  H20  1  0.18287900  0.40188900  0.89157800  1
  H  H21  1  0.77223500  0.64860900  0.96017100  1
  H  H22  1  0.77350700  0.56737800  0.87665800  1
  H  H23  1  0.62878700  0.64688200  0.86186800  1
  H  H24  1  0.22776700  0.35139100  0.03982900  1
  H  H25  1  0.37121500  0.35311800  0.13813200  1
  H  H26  1  0.22649400  0.43262200  0.12334200  1
  C  C1  1  0.51038900  0.34004000  0.50040100  1
  C  C2  1  0.48961200  0.65995900  0.49959800  1
  C  C3  1  0.20869100  0.49431100  0.48022200  1
  C  C4  1  0.79131000  0.50568800  0.51977800  1
  C  C5  1  0.04186800  0.48747000  0.46731000  1
  C  C6  1  0.95813300  0.51253000  0.53269000  1
  C  C7  1  0.49831300  0.95738000  0.58201400  1
  C  C8  1  0.50168800  0.04262000  0.41798500  1
  C  C9  1  0.49472800  0.91408100  0.50016400  1
  C  C10  1  0.50527300  0.08591900  0.49983500  1
  C  C11  1  0.49652400  0.95654800  0.41828400  1
  C  C12  1  0.50347700  0.04345200  0.58171600  1
  C  C13  1  0.49087800  0.82459700  0.50011400  1
  C  C14  1  0.50912300  0.17540200  0.49988600  1
  C  C15  1  0.51086100  0.25054700  0.50003600  1
  C  C16  1  0.48914000  0.74945300  0.49996400  1
  C  C17  1  0.59716300  0.55232200  0.96056400  1
  C  C18  1  0.40283800  0.44767800  0.03943500  1
  C  C19  1  0.50270700  0.49836700  0.90592300  1
  C  C20  1  0.49729500  0.50163300  0.09407700  1
  C  C21  1  0.40483100  0.44565200  0.94448900  1
  C  C22  1  0.59516900  0.55434700  0.05551100  1
  C  C23  1  0.50729400  0.49898200  0.80798400  1
  C  C24  1  0.49270700  0.50101800  0.19201600  1
  C  C25  1  0.96866900  0.44871700  0.37895600  1
  C  C26  1  0.03133200  0.55128300  0.62104300  1
  C  C27  1  0.49672700  0.91089300  0.67006300  1
  C  C28  1  0.50327400  0.08910700  0.32993700  1
  C  C29  1  0.69763800  0.61285500  0.11512600  1
  C  C30  1  0.30236300  0.38714500  0.88487300  1
  C  C31  1  0.69892100  0.60707300  0.91316000  1
  C  C32  1  0.30108000  0.39292600  0.08684000  1
  N  N1  1  0.49054500  0.50058400  0.27098400  1
  N  N2  1  0.50945600  0.49941600  0.72901600  1
  O  O1  1  0.50614800  0.37849600  0.57894600  1
  O  O2  1  0.49385300  0.62150400  0.42105400  1
  O  O3  1  0.51016000  0.37927600  0.42187300  1
  O  O4  1  0.48984100  0.62072400  0.57812700  1
  O  O5  1  0.28379100  0.49226100  0.56377700  1
  O  O6  1  0.71621000  0.50773900  0.43622200  1
  O  O7  1  0.27672000  0.49862500  0.40630200  1
  O  O8  1  0.72328100  0.50137500  0.59369800  1
