# generated using pymatgen
data_Fe2H23C51N3O16
_symmetry_space_group_name_H-M   'P 1'
_cell_length_a   15.78180700
_cell_length_b   12.11661900
_cell_length_c   13.35513700
_cell_angle_alpha   91.45214100
_cell_angle_beta   87.08543200
_cell_angle_gamma   107.04090700
_symmetry_Int_Tables_number   1
_chemical_formula_structural   Fe2H23C51N3O16
_chemical_formula_sum   'Fe2 H23 C51 N3 O16'
_cell_volume   2438.37119207
_cell_formula_units_Z   1
loop_
 _symmetry_equiv_pos_site_id
 _symmetry_equiv_pos_as_xyz
  1  'x, y, z'
loop_
 _atom_site_type_symbol
 _atom_site_label
 _atom_site_symmetry_multiplicity
 _atom_site_fract_x
 _atom_site_fract_y
 _atom_site_fract_z
 _atom_site_occupancy
  Fe  Fe1  1  0.48480300  0.97695500  0.16561300  1
  Fe  Fe2  1  0.48899900  0.97337300  0.72541100  1
  H  H1  1  0.90684700  0.04153600  0.78549300  1
  H  H2  1  0.01684100  0.99916600  0.82546300  1
  H  H3  1  0.75988000  0.01692200  0.74589400  1
  H  H4  1  0.23051600  0.04276600  0.13876600  1
  H  H5  1  0.08920400  0.06380800  0.17733700  1
  H  H6  1  0.95019400  0.09055300  0.21907900  1
  H  H7  1  0.80638900  0.08802800  0.17813700  1
  H  H8  1  0.52391000  0.11484000  0.43412700  1
  H  H9  1  0.50439900  0.85871500  0.43565100  1
  H  H10  1  0.51461500  0.40748900  0.60965500  1
  H  H11  1  0.52284900  0.58210600  0.60508800  1
  H  H12  1  0.14207200  0.05877100  0.72641300  1
  H  H13  1  0.05831100  0.94102500  0.60543000  1
  H  H14  1  0.97782100  0.74663800  0.54927900  1
  H  H15  1  0.99304400  0.57683700  0.63511000  1
  H  H16  1  0.09012300  0.60230100  0.77725600  1
  H  H17  1  0.17139200  0.79374200  0.83421900  1
  H  H18  1  0.38054400  0.53718600  0.18185400  1
  H  H19  1  0.35440100  0.44867000  0.02599300  1
  H  H20  1  0.41304800  0.38152600  0.87048900  1
  H  H21  1  0.57279300  0.40380000  0.84679000  1
  H  H22  1  0.67383400  0.49265500  0.97933000  1
  H  H23  1  0.61677700  0.56128900  0.13464600  1
  C  C1  1  0.85969500  0.03041500  0.84806300  1
  C  C2  1  0.26703100  0.01673800  0.88961600  1
  C  C3  1  0.18272800  0.01139100  0.85900000  1
  C  C4  1  0.11698200  0.02273600  0.92946900  1
  C  C5  1  0.03230700  0.01900000  0.90198600  1
  C  C6  1  0.96808900  0.03489600  0.97240100  1
  C  C7  1  0.77481300  0.01975800  0.82417000  1
  C  C8  1  0.70767100  0.00393900  0.89630800  1
  C  C9  1  0.88169300  0.03157800  0.94722300  1
  C  C10  1  0.81690700  0.03396800  0.02245600  1
  C  C11  1  0.72654700  0.01145400  0.99836400  1
  C  C12  1  0.28306000  0.02472700  0.99146300  1
  C  C13  1  0.21719800  0.03399600  0.05991800  1
  C  C14  1  0.13595700  0.03651900  0.02916000  1
  C  C15  1  0.07330200  0.05170700  0.09928900  1
  C  C16  1  0.99049700  0.05154500  0.07115100  1
  C  C17  1  0.93081700  0.07039700  0.14272300  1
  C  C18  1  0.84588100  0.06343700  0.11898300  1
  C  C19  1  0.65181700  0.99513400  0.07660300  1
  C  C20  1  0.49549800  0.77102200  0.25905400  1
  C  C21  1  0.36774100  0.02410100  0.03142200  1
  C  C22  1  0.49299400  0.18548300  0.26342200  1
  C  C23  1  0.52670700  0.80232300  0.61309800  1
  C  C24  1  0.61912400  0.97900000  0.85692700  1
  C  C25  1  0.51698100  0.18641200  0.62110900  1
  C  C26  1  0.33690000  0.01063400  0.81374200  1
  C  C27  1  0.52052200  0.20250500  0.44000500  1
  C  C28  1  0.51995100  0.25633800  0.53165100  1
  C  C29  1  0.51511700  0.36913700  0.53627200  1
  C  C30  1  0.50809500  0.25483100  0.35495000  1
  C  C31  1  0.49959500  0.36443100  0.35889100  1
  C  C32  1  0.50650200  0.42609300  0.44844700  1
  C  C33  1  0.50247800  0.54081500  0.44633900  1
  C  C34  1  0.51139400  0.61035700  0.53272300  1
  C  C35  1  0.50921000  0.72273500  0.52760500  1
  C  C36  1  0.47670300  0.51659600  0.26951300  1
  C  C37  1  0.49102200  0.58782200  0.35444400  1
  C  C38  1  0.49316600  0.70434800  0.35050900  1
  C  C39  1  0.50054100  0.76826900  0.43767400  1
  C  C40  1  0.11945600  0.88259800  0.72495000  1
  C  C41  1  0.06550500  0.86725800  0.64419700  1
  C  C42  1  0.02008100  0.75779500  0.61223600  1
  C  C43  1  0.02858600  0.66266300  0.66028400  1
  C  C44  1  0.08291200  0.67703500  0.74006100  1
  C  C45  1  0.12849000  0.78635300  0.77242600  1
  C  C46  1  0.48108000  0.50662400  0.09232000  1
  C  C47  1  0.42455700  0.45762200  0.01700900  1
  C  C48  1  0.45741200  0.41994000  0.92922500  1
  C  C49  1  0.54685200  0.43217600  0.91589400  1
  C  C50  1  0.60356200  0.48201200  0.99028000  1
  C  C51  1  0.57098200  0.51969000  0.07812800  1
  N  N1  1  0.48292100  0.40909300  0.27407400  1
  N  N2  1  0.16574300  0.99638600  0.75566700  1
  N  N3  1  0.44807400  0.55061300  0.18007000  1
  O  O1  1  0.57028600  0.98304600  0.05066300  1
  O  O2  1  0.55312700  0.77036000  0.18495300  1
  O  O3  1  0.66410100  0.98570800  0.17186300  1
  O  O4  1  0.45381000  0.85044800  0.26428400  1
  O  O5  1  0.36603700  0.95886900  0.10902100  1
  O  O6  1  0.44262300  0.09708500  0.99875300  1
  O  O7  1  0.54571400  0.12163200  0.24071400  1
  O  O8  1  0.41479900  0.16067700  0.22490800  1
  O  O9  1  0.45985500  0.81061900  0.67250800  1
  O  O10  1  0.59797600  0.89141300  0.60658000  1
  O  O11  1  0.60602700  0.04585100  0.78704800  1
  O  O12  1  0.56090400  0.87784900  0.87278800  1
  O  O13  1  0.34144100  0.05955800  0.72639700  1
  O  O14  1  0.49859300  0.07385100  0.60816000  1
  O  O15  1  0.39593400  0.95814300  0.83364400  1
  O  O16  1  0.52565400  0.23263300  0.71126400  1
