# generated using pymatgen
data_Fe2H29C68N4O16F3
_symmetry_space_group_name_H-M   'P 1'
_cell_length_a   17.10715100
_cell_length_b   19.49748100
_cell_length_c   19.02815700
_cell_angle_alpha   91.32515500
_cell_angle_beta   90.60463600
_cell_angle_gamma   67.40105500
_symmetry_Int_Tables_number   1
_chemical_formula_structural   Fe2H29C68N4O16F3
_chemical_formula_sum   'Fe2 H29 C68 N4 O16 F3'
_cell_volume   5857.87334750
_cell_formula_units_Z   1
loop_
 _symmetry_equiv_pos_site_id
 _symmetry_equiv_pos_as_xyz
  1  'x, y, z'
loop_
 _atom_site_type_symbol
 _atom_site_label
 _atom_site_symmetry_multiplicity
 _atom_site_fract_x
 _atom_site_fract_y
 _atom_site_fract_z
 _atom_site_occupancy
  Fe  Fe1  1  0.52848800  0.99592900  0.31153900  1
  Fe  Fe2  1  0.47101800  0.00647400  0.68907700  1
  H  H1  1  0.09076000  0.89404000  0.20983700  1
  H  H2  1  0.91169000  0.10207000  0.79476800  1
  H  H3  1  0.24629900  0.03476700  0.98500700  1
  H  H4  1  0.99244800  0.93256600  0.02415300  1
  H  H5  1  0.00951400  0.06273200  0.98046400  1
  H  H6  1  0.02805700  0.06299900  0.71951700  1
  H  H7  1  0.28681400  0.01442500  0.86321700  1
  H  H8  1  0.33013000  0.01551700  0.08495600  1
  H  H9  1  0.35053900  0.89661700  0.27619100  1
  H  H10  1  0.22128000  0.87854500  0.24845700  1
  H  H11  1  0.97400300  0.93608700  0.28513600  1
  H  H12  1  0.71358900  0.98985400  0.14322600  1
  H  H13  1  0.65422500  0.10230500  0.72435600  1
  H  H14  1  0.78346300  0.11833000  0.75546800  1
  H  H15  1  0.16272200  0.04031400  0.66215700  1
  H  H16  1  0.44931100  0.08356900  0.47386600  1
  H  H17  1  0.27074200  0.26289800  0.36458000  1
  H  H18  1  0.26510400  0.25923000  0.58971700  1
  H  H19  1  0.01829800  0.60456400  0.55818900  1
  H  H20  1  0.88758400  0.71179900  0.57367000  1
  H  H21  1  0.75383900  0.60166600  0.45814400  1
  H  H22  1  0.88203400  0.49089600  0.44774600  1
  H  H23  1  0.72455500  0.73711100  0.40909200  1
  H  H24  1  0.54403900  0.91647400  0.52578900  1
  H  H25  1  0.73687200  0.74462600  0.63296900  1
  H  H26  1  0.00704100  0.43717700  0.39315800  1
  H  H27  1  0.13042200  0.32395200  0.38483900  1
  H  H28  1  0.22413800  0.38213700  0.57720700  1
  H  H29  1  0.09579200  0.48915000  0.59082800  1
  C  C1  1  0.23483700  0.97190600  0.10526700  1
  C  C2  1  0.20374900  0.93630700  0.15090500  1
  C  C3  1  0.12712100  0.93961200  0.12455700  1
  C  C4  1  0.17794300  0.99369600  0.05021300  1
  C  C5  1  0.07307200  0.91793100  0.15856700  1
  C  C6  1  0.98503100  0.93599400  0.13633400  1
  C  C7  1  0.91902800  0.94743500  0.18201300  1
  C  C8  1  0.84794500  0.96217600  0.14296200  1
  C  C9  1  0.87152700  0.95971200  0.07321500  1
  C  C10  1  0.81389400  0.96998200  0.01290300  1
  C  C11  1  0.82287900  0.00183600  0.95341200  1
  C  C12  1  0.76661800  0.02289300  0.89682100  1
  C  C13  1  0.79871400  0.05897300  0.85207400  1
  C  C14  1  0.87459500  0.05624500  0.87955900  1
  C  C15  1  0.92890700  0.07836200  0.84611000  1
  C  C16  1  0.01668300  0.06192400  0.86850600  1
  C  C17  1  0.08234800  0.05256900  0.82295700  1
  C  C18  1  0.15323700  0.03884900  0.86217200  1
  C  C19  1  0.12999600  0.03961300  0.93163500  1
  C  C20  1  0.18837500  0.02559100  0.99174500  1
  C  C21  1  0.08417100  0.05309000  0.75091000  1
  C  C22  1  0.16093100  0.03965600  0.71885200  1
  C  C23  1  0.23421900  0.02611600  0.75850900  1
  C  C24  1  0.23067600  0.02551800  0.83153500  1
  C  C25  1  0.30773500  0.98399300  0.11967700  1
  C  C26  1  0.34933300  0.95733600  0.18237300  1
  C  C27  1  0.31913600  0.91742300  0.22706700  1
  C  C28  1  0.24525700  0.90734100  0.21201200  1
  C  C29  1  0.91743400  0.94710200  0.25405900  1
  C  C30  1  0.84078000  0.96136200  0.28670100  1
  C  C31  1  0.76689900  0.97604100  0.24711900  1
  C  C32  1  0.77041700  0.97707200  0.17417700  1
  C  C33  1  0.69299600  0.01209900  0.87929300  1
  C  C34  1  0.65277000  0.04046800  0.81646600  1
  C  C35  1  0.68460600  0.08033400  0.77353600  1
  C  C36  1  0.75863600  0.08902100  0.79062100  1
  C  C37  1  0.68602100  0.98853400  0.28216900  1
  C  C38  1  0.59976200  0.87305600  0.39602800  1
  C  C39  1  0.42011300  0.97636000  0.20646300  1
  C  C40  1  0.39516800  0.12598600  0.34966400  1
  C  C41  1  0.36489400  0.17085600  0.41366200  1
  C  C42  1  0.29630600  0.23805800  0.41415800  1
  C  C43  1  0.26176200  0.27243200  0.47782100  1
  C  C44  1  0.29490800  0.23680200  0.54005900  1
  C  C45  1  0.36243400  0.16927700  0.53907000  1
  C  C46  1  0.39810500  0.13754700  0.47587900  1
  C  C47  1  0.96059800  0.60140900  0.53788600  1
  C  C48  1  0.88634400  0.66287800  0.54659300  1
  C  C49  1  0.81198400  0.66356000  0.51751400  1
  C  C50  1  0.81195600  0.60176000  0.48092000  1
  C  C51  1  0.88543800  0.53924000  0.47420700  1
  C  C52  1  0.96105400  0.53862200  0.50175200  1
  C  C53  1  0.69699900  0.76279800  0.45862400  1
  C  C54  1  0.62968500  0.83054800  0.46001600  1
  C  C55  1  0.59617800  0.86305000  0.52362700  1
  C  C56  1  0.63319900  0.83185700  0.58568200  1
  C  C57  1  0.70490600  0.76712500  0.58443100  1
  C  C58  1  0.73510300  0.73121000  0.52075600  1
  C  C59  1  0.05305900  0.42500400  0.43510500  1
  C  C60  1  0.12513200  0.36090200  0.42925900  1
  C  C61  1  0.18721100  0.34337500  0.48061200  1
  C  C62  1  0.17617100  0.39227500  0.53703500  1
  C  C63  1  0.10319300  0.45508800  0.54391500  1
  C  C64  1  0.04033200  0.47213300  0.49327800  1
  C  C65  1  0.58076700  0.02378400  0.79091300  1
  C  C66  1  0.60414200  0.87760000  0.64920300  1
  C  C67  1  0.31386000  0.01395000  0.72192200  1
  C  C68  1  0.39205800  0.12732400  0.60345800  1
  N  N1  1  0.11145500  0.97438300  0.06241100  1
  N  N2  1  0.95586400  0.94302300  0.06956000  1
  N  N3  1  0.88903900  0.02199100  0.94191400  1
  N  N4  1  0.04597700  0.05443700  0.93520100  1
  O  O1  1  0.61915300  0.99144300  0.24567000  1
  O  O2  1  0.62682100  0.84312600  0.33395700  1
  O  O3  1  0.68096200  0.99314500  0.35095600  1
  O  O4  1  0.55344900  0.94435600  0.40237000  1
  O  O5  1  0.45980600  0.94506700  0.26370700  1
  O  O6  1  0.43298000  0.03264600  0.17990200  1
  O  O7  1  0.47600100  0.10517100  0.33444600  1
  O  O8  1  0.35639400  0.08201700  0.33113800  1
  O  O9  1  0.54000800  0.05808900  0.73522900  1
  O  O10  1  0.56738700  0.96636600  0.81410400  1
  O  O11  1  0.52406900  0.89712200  0.66666667  1
  O  O12  1  0.64203200  0.92292900  0.66513500  1
  O  O13  1  0.36267200  0.15683100  0.66518100  1
  O  O14  1  0.38203200  0.01054100  0.75665800  1
  O  O15  1  0.44392100  0.05748500  0.59800500  1
  O  O16  1  0.31594000  0.01020600  0.65301400  1
  F  F1  1  0.66123700  0.97273400  0.91952200  1
  F  F2  1  0.83958200  0.95983700  0.35783600  1
  F  F3  1  0.74564300  0.95261200  0.02255800  1
