data_DB0-m3_o11_o29_f0_pcu.sym.110_repeat
_audit_creation_date              2024-02-23
_audit_creation_method            'Materials Studio'
_symmetry_space_group_name_H-M    'P1'
_symmetry_Int_Tables_number       1
_symmetry_cell_setting            triclinic
loop_
_symmetry_equiv_pos_as_xyz
  x,y,z
_cell_length_a                    27.5909
_cell_length_b                    11.1511
_cell_length_c                    9.9077
_cell_angle_alpha                 89.9974
_cell_angle_beta                  89.9930
_cell_angle_gamma                 89.9937
loop_
_atom_site_label
_atom_site_type_symbol
_atom_site_fract_x
_atom_site_fract_y
_atom_site_fract_z
_atom_site_U_iso_or_equiv
_atom_site_adp_type
_atom_site_occupancy
O1     O     0.49382   0.32691   0.62725   0.00000  Uiso   1.00
O2     O     0.49628   0.32281   0.39404   0.00000  Uiso   1.00
C1     C     0.49352   0.26904   0.51169   0.00000  Uiso   1.00
O3     O     0.42604   0.51646   0.61522   0.00000  Uiso   1.00
O4     O     0.42796   0.51128   0.38233   0.00000  Uiso   1.00
C2     C     0.40437   0.51646   0.49732   0.00000  Uiso   1.00
Zn1    Zn    0.49767   0.50624   0.65869   0.00000  Uiso   1.00
Zn2    Zn    0.50044   0.50028   0.35192   0.00000  Uiso   1.00
O5     O     0.50301   0.68338   0.61599   0.00000  Uiso   1.00
O6     O     0.50419   0.67952   0.38400   0.00000  Uiso   1.00
O7     O     0.57012   0.49422   0.62809   0.00000  Uiso   1.00
O8     O     0.57208   0.49215   0.39560   0.00000  Uiso   1.00
C3     C     0.50467   0.73805   0.49895   0.00000  Uiso   1.00
C4     C     0.59374   0.48973   0.51329   0.00000  Uiso   1.00
C5     C     0.17610   0.41322   0.48146   0.00000  Uiso   1.00
O9     O     0.20193   0.31161   0.46946   0.00000  Uiso   1.00
N1     N     0.19936   0.51884   0.49223   0.00000  Uiso   1.00
C6     C     0.17433   0.62167   0.50608   0.00000  Uiso   1.00
C7     C     0.27573   0.55048   0.60844   0.00000  Uiso   1.00
C8     C     0.32567   0.54904   0.61015   0.00000  Uiso   1.00
C9     C     0.32637   0.49368   0.37719   0.00000  Uiso   1.00
C10    C     0.27639   0.49283   0.37655   0.00000  Uiso   1.00
C11    C     0.25098   0.52138   0.49209   0.00000  Uiso   1.00
C12    C     0.09963   0.51298   0.49956   0.00000  Uiso   1.00
C13    C     0.12602   0.40885   0.48636   0.00000  Uiso   1.00
C14    C     0.10226   0.30088   0.47732   0.00000  Uiso   1.00
C15    C     0.12418   0.62015   0.50829   0.00000  Uiso   1.00
C16    C     0.35128   0.52072   0.49445   0.00000  Uiso   1.00
H1     H     0.34555   0.47035   0.28581   0.00000  Uiso   1.00
H2     H     0.25714   0.47013   0.28499   0.00000  Uiso   1.00
H3     H     0.12191   0.21795   0.46371   0.00000  Uiso   1.00
C17    C     0.64684   0.48683   0.51596   0.00000  Uiso   1.00
C18    C     0.97496   0.39727   0.51847   0.00000  Uiso   1.00
C19    C     0.97253   0.61296   0.50559   0.00000  Uiso   1.00
C20    C     0.94878   0.50347   0.51432   0.00000  Uiso   1.00
C21    C     0.94993   0.29030   0.53898   0.00000  Uiso   1.00
C22    C     0.90026   0.28851   0.54707   0.00000  Uiso   1.00
C23    C     0.87424   0.39296   0.53441   0.00000  Uiso   1.00
C24    C     0.89841   0.50006   0.51851   0.00000  Uiso   1.00
C25    C     0.87165   0.60365   0.50630   0.00000  Uiso   1.00
C26    C     0.82155   0.59862   0.50733   0.00000  Uiso   1.00
N2     N     0.79869   0.49299   0.52336   0.00000  Uiso   1.00
C27    C     0.82410   0.39086   0.53805   0.00000  Uiso   1.00
C28    C     0.72140   0.46379   0.63691   0.00000  Uiso   1.00
C29    C     0.67138   0.46383   0.63490   0.00000  Uiso   1.00
C30    C     0.67280   0.50997   0.39939   0.00000  Uiso   1.00
C31    C     0.72270   0.51218   0.40235   0.00000  Uiso   1.00
C32    C     0.74710   0.48914   0.52092   0.00000  Uiso   1.00
O10    O     0.80039   0.28640   0.55261   0.00000  Uiso   1.00
C33    C     0.02538   0.40038   0.50353   0.00000  Uiso   1.00
C34    C     0.04927   0.50990   0.50435   0.00000  Uiso   1.00
C35    C     0.02323   0.61631   0.51011   0.00000  Uiso   1.00
C36    C     0.05264   0.29637   0.48598   0.00000  Uiso   1.00
H4     H     0.65187   0.44514   0.72710   0.00000  Uiso   1.00
H5     H     0.74038   0.44606   0.73024   0.00000  Uiso   1.00
H6     H     0.88237   0.20348   0.56289   0.00000  Uiso   1.00
H7     H     0.96756   0.20538   0.55416   0.00000  Uiso   1.00
H8     H     0.03683   0.20895   0.47346   0.00000  Uiso   1.00
O11    O     0.19839   0.72609   0.51565   0.00000  Uiso   1.00
C37    C     0.09854   0.72518   0.52086   0.00000  Uiso   1.00
H9     H     0.34427   0.57077   0.70295   0.00000  Uiso   1.00
H10    H     0.25598   0.57219   0.69945   0.00000  Uiso   1.00
H11    H     0.11678   0.81049   0.53041   0.00000  Uiso   1.00
C38    C     0.94475   0.71657   0.49134   0.00000  Uiso   1.00
C39    C     0.89503   0.71158   0.49112   0.00000  Uiso   1.00
O12    O     0.79532   0.69948   0.49405   0.00000  Uiso   1.00
C40    C     0.04878   0.72367   0.52116   0.00000  Uiso   1.00
H12    H     0.96002   0.80401   0.47488   0.00000  Uiso   1.00
H13    H     0.65454   0.52899   0.30533   0.00000  Uiso   1.00
H14    H     0.87501   0.79415   0.47889   0.00000  Uiso   1.00
H15    H     0.74270   0.53161   0.31110   0.00000  Uiso   1.00
H16    H     0.03167   0.80935   0.53526   0.00000  Uiso   1.00
C41    C     0.49441   0.93984   0.39963   0.00000  Uiso   1.00
C42    C     0.51146   0.86942   0.49986   0.00000  Uiso   1.00
C43    C     0.49762   0.07230   0.40352   0.00000  Uiso   1.00
C44    C     0.49059   0.13767   0.51525   0.00000  Uiso   1.00
H17    H     0.50279   0.11767   0.30789   0.00000  Uiso   1.00
H18    H     0.48170   0.09566   0.61053   0.00000  Uiso   1.00
C45    C     0.47382   0.43463   0.93151   0.00000  Uiso   1.00
N3     N     0.49619   0.51346   0.86038   0.00000  Uiso   1.00
H19    H     0.45490   0.36204   0.88138   0.00000  Uiso   1.00
H20    H     0.50829   0.58870   0.90973   0.00000  Uiso   1.00
C46    C     0.47066   0.44393   0.08019   0.00000  Uiso   1.00
N4     N     0.50350   0.49689   0.15024   0.00000  Uiso   1.00
H21    H     0.44073   0.40047   0.13136   0.00000  Uiso   1.00
H22    H     0.53425   0.52370   0.10019   0.00000  Uiso   1.00
N5     N     0.47271   0.88803   0.28435   0.00000  Uiso   1.00
C47    C     0.50389   0.87440   0.18064   0.00000  Uiso   1.00
O13    O     0.54738   0.87011   0.20169   0.00000  Uiso   1.00
C48    C     0.48528   0.86480   0.03995   0.00000  Uiso   1.00
H23    H     0.44007   0.92447   0.25535   0.00000  Uiso   1.00
H24    H     0.46050   0.78682   0.03205   0.00000  Uiso   1.00
H25    H     0.51620   0.85237   0.96982   0.00000  Uiso   1.00
H26    H     0.46551   0.94794   0.01270   0.00000  Uiso   1.00
N6     N     0.53627   0.92026   0.61123   0.00000  Uiso   1.00
C49    C     0.58253   0.95267   0.58538   0.00000  Uiso   1.00
O14    O     0.59673   0.96152   0.46929   0.00000  Uiso   1.00
C50    C     0.61693   0.97647   0.69852   0.00000  Uiso   1.00
H27    H     0.53097   0.88163   0.70432   0.00000  Uiso   1.00
H28    H     0.59847   0.96771   0.79747   0.00000  Uiso   1.00
H29    H     0.63144   0.06881   0.68872   0.00000  Uiso   1.00
H30    H     0.64737   0.91169   0.69339   0.00000  Uiso   1.00
