# generated using pymatgen
data_ZnH22C25NO4
_symmetry_space_group_name_H-M   'P 1'
_cell_length_a   17.77355700
_cell_length_b   16.59287200
_cell_length_c   15.95202300
_cell_angle_alpha   90.00000000
_cell_angle_beta   89.99978700
_cell_angle_gamma   90.00000000
_symmetry_Int_Tables_number   1
_chemical_formula_structural   ZnH22C25NO4
_chemical_formula_sum   'Zn2 H44 C50 N2 O8'
_cell_volume   4704.48059447
_cell_formula_units_Z   2
loop_
 _symmetry_equiv_pos_site_id
 _symmetry_equiv_pos_as_xyz
  1  'x, y, z'
loop_
 _atom_site_type_symbol
 _atom_site_label
 _atom_site_symmetry_multiplicity
 _atom_site_fract_x
 _atom_site_fract_y
 _atom_site_fract_z
 _atom_site_occupancy
  Zn  Zn1  1  0.49263100  0.59050100  0.50374100  1
  Zn  Zn2  1  0.49263200  0.40707600  0.50372100  1
  H  H1  1  0.37867300  0.53635700  0.93808800  1
  H  H2  1  0.42176600  0.39511100  0.92943200  1
  H  H3  1  0.38459500  0.54862600  0.07766800  1
  H  H4  1  0.40856700  0.41202600  0.06798800  1
  H  H5  1  0.49853600  0.36699600  0.08078400  1
  H  H6  1  0.45475100  0.62429100  0.06940900  1
  H  H7  1  0.52044500  0.37264600  0.93734700  1
  H  H8  1  0.44515300  0.61824400  0.92937700  1
  H  H9  1  0.57689700  0.59000100  0.93427700  1
  H  H10  1  0.61447700  0.49067500  0.92174300  1
  H  H11  1  0.86972600  0.62702900  0.50410100  1
  H  H12  1  0.86972400  0.37054900  0.50409000  1
  H  H13  1  0.73250100  0.62793400  0.50423700  1
  H  H14  1  0.73250000  0.36964600  0.50422600  1
  H  H15  1  0.11553800  0.62702700  0.50347400  1
  H  H16  1  0.11553600  0.37054700  0.50343300  1
  H  H17  1  0.25276200  0.62793000  0.50331000  1
  H  H18  1  0.25276100  0.36964200  0.50326900  1
  H  H19  1  0.40320800  0.86623100  0.41491600  1
  H  H20  1  0.40320100  0.13133800  0.41491000  1
  H  H21  1  0.40432800  0.71804400  0.41598800  1
  H  H22  1  0.40432000  0.27952600  0.41597000  1
  H  H23  1  0.58089500  0.71808100  0.59148200  1
  H  H24  1  0.58091200  0.27950200  0.59143200  1
  H  H25  1  0.58198600  0.86626800  0.59252200  1
  H  H26  1  0.58200400  0.13131500  0.59248400  1
  H  H27  1  0.63883500  0.57227900  0.15393900  1
  H  H28  1  0.56510000  0.63288700  0.11843700  1
  H  H29  1  0.63054300  0.69005800  0.00934900  1
  H  H30  1  0.69980200  0.61098900  0.00285300  1
  H  H31  1  0.75075100  0.65021200  0.14080200  1
  H  H32  1  0.67839500  0.72639300  0.15113400  1
  H  H33  1  0.79776600  0.71788100  0.01188300  1
  H  H34  1  0.79945000  0.78419100  0.10181300  1
  H  H35  1  0.72639000  0.79502000  0.02379400  1
  H  H36  1  0.61511700  0.39139800  0.03144800  1
  H  H37  1  0.62332400  0.42608600  0.13689400  1
  H  H38  1  0.73780900  0.50103800  0.10046600  1
  H  H39  1  0.72532200  0.47666600  0.99052500  1
  H  H40  1  0.73632700  0.33261900  0.02236100  1
  H  H41  1  0.74417500  0.35484900  0.13312100  1
  H  H42  1  0.85163500  0.41349700  0.99496400  1
  H  H43  1  0.86899900  0.33203000  0.06770300  1
  H  H44  1  0.85997200  0.43404900  0.10613600  1
  C  C1  1  0.34532700  0.49878600  0.50343900  1
  C  C2  1  0.49292800  0.49880400  0.33991500  1
  C  C3  1  0.63993500  0.49879100  0.50406000  1
  C  C4  1  0.49238100  0.49877900  0.66761300  1
  C  C5  1  0.44078900  0.56196500  0.05087100  1
  C  C6  1  0.46881300  0.41833500  0.05123500  1
  C  C7  1  0.47591800  0.41552300  0.95663900  1
  C  C8  1  0.43549400  0.55757200  0.95645600  1
  C  C9  1  0.49270200  0.49880500  0.75753300  1
  C  C10  1  0.49736400  0.49946400  0.08267600  1
  C  C11  1  0.49422800  0.49928300  0.92468400  1
  C  C12  1  0.57128300  0.52675900  0.95467600  1
  C  C13  1  0.57832900  0.51684700  0.05021600  1
  C  C14  1  0.49323300  0.49895000  0.83304300  1
  C  C15  1  0.49533100  0.49907800  0.17450500  1
  C  C16  1  0.49395700  0.49885900  0.25001400  1
  C  C17  1  0.83926400  0.57064800  0.50413600  1
  C  C18  1  0.83926300  0.42693100  0.50413000  1
  C  C19  1  0.76169300  0.57081500  0.50420600  1
  C  C20  1  0.76169300  0.42676500  0.50419900  1
  C  C21  1  0.72243700  0.49879000  0.50418400  1
  C  C22  1  0.87803600  0.49878900  0.50406200  1
  C  C23  1  0.95874200  0.49878900  0.50386800  1
  C  C24  1  0.02652000  0.49878800  0.50369000  1
  C  C25  1  0.14599900  0.57064600  0.50342400  1
  C  C26  1  0.14599800  0.42692800  0.50340100  1
  C  C27  1  0.22356900  0.57081100  0.50333800  1
  C  C28  1  0.22356900  0.42676200  0.50331500  1
  C  C29  1  0.26282500  0.49878600  0.50333700  1
  C  C30  1  0.10722600  0.49878700  0.50349100  1
  C  C31  1  0.44271400  0.83415600  0.45416900  1
  C  C32  1  0.44271300  0.16341600  0.45415200  1
  C  C33  1  0.44343300  0.75106800  0.45487900  1
  C  C34  1  0.44343300  0.24650500  0.45485400  1
  C  C35  1  0.54178200  0.75108800  0.55258500  1
  C  C36  1  0.54179600  0.24649100  0.55254300  1
  C  C37  1  0.54248500  0.83417700  0.55327700  1
  C  C38  1  0.54249900  0.16340300  0.55324200  1
  C  C39  1  0.49259700  0.87603700  0.50371800  1
  C  C40  1  0.49260200  0.12153900  0.50369600  1
  C  C41  1  0.49259300  0.96248800  0.50370600  1
  C  C42  1  0.49259400  0.03508800  0.50369900  1
  C  C43  1  0.60999900  0.59249400  0.09606800  1
  C  C44  1  0.66383700  0.64592600  0.04606600  1
  C  C45  1  0.71382800  0.69248900  0.10606600  1
  C  C46  1  0.76248400  0.75121500  0.05754800  1
  C  C47  1  0.63035200  0.44386400  0.07041500  1
  C  C48  1  0.71445600  0.45676300  0.05560500  1
  C  C49  1  0.75559600  0.37765700  0.06902900  1
  C  C50  1  0.83954000  0.39031000  0.05875600  1
  N  N1  1  0.49261300  0.71097200  0.50373500  1
  N  N2  1  0.49261900  0.28660400  0.50369900  1
  O  O1  1  0.38054300  0.56831100  0.50354300  1
  O  O2  1  0.38054300  0.42926100  0.50352600  1
  O  O3  1  0.49286400  0.56839500  0.37884300  1
  O  O4  1  0.49286400  0.42919700  0.37882300  1
  O  O5  1  0.60472100  0.56832000  0.50399100  1
  O  O6  1  0.60472100  0.42926100  0.50397300  1
  O  O7  1  0.49244500  0.56838000  0.62870000  1
  O  O8  1  0.49244600  0.42917900  0.62868700  1
