# generated using pymatgen
data_ZnH5C15NCl3O4
_symmetry_space_group_name_H-M   'P 1'
_cell_length_a   8.46135900
_cell_length_b   11.31865400
_cell_length_c   15.05124200
_cell_angle_alpha   98.72317900
_cell_angle_beta   89.84801500
_cell_angle_gamma   83.46183400
_symmetry_Int_Tables_number   1
_chemical_formula_structural   ZnH5C15NCl3O4
_chemical_formula_sum   'Zn2 H10 C30 N2 Cl6 O8'
_cell_volume   1415.24343662
_cell_formula_units_Z   2
loop_
 _symmetry_equiv_pos_site_id
 _symmetry_equiv_pos_as_xyz
  1  'x, y, z'
loop_
 _atom_site_type_symbol
 _atom_site_label
 _atom_site_symmetry_multiplicity
 _atom_site_fract_x
 _atom_site_fract_y
 _atom_site_fract_z
 _atom_site_occupancy
  Zn  Zn1  1  0.51964300  0.86817000  0.50374400  1
  Zn  Zn2  1  0.48035700  0.13183000  0.49625600  1
  H  H1  1  0.98728400  0.06634200  0.56706300  1
  H  H2  1  0.01271600  0.93365700  0.43293700  1
  H  H3  1  0.80816300  0.15056100  0.94469700  1
  H  H4  1  0.19183700  0.84943900  0.05530200  1
  H  H5  1  0.81328100  0.13575500  0.10479700  1
  H  H6  1  0.18671900  0.86424500  0.89520300  1
  H  H7  1  0.70422600  0.29490500  0.49949600  1
  H  H8  1  0.29577400  0.70509400  0.50050400  1
  H  H9  1  0.82420900  0.48033600  0.50621100  1
  H  H10  1  0.17579100  0.51966300  0.49378900  1
  C  C1  1  0.85047300  0.04401800  0.68060100  1
  C  C2  1  0.14952700  0.95598100  0.31939900  1
  C  C3  1  0.85323900  0.02702500  0.76944000  1
  C  C4  1  0.14676100  0.97297400  0.23056000  1
  C  C5  1  0.99620100  0.02148400  0.81414600  1
  C  C6  1  0.00379900  0.97851500  0.18585400  1
  C  C7  1  0.13694300  0.02589000  0.76805000  1
  C  C8  1  0.86305700  0.97410900  0.23195000  1
  C  C9  1  0.13265900  0.04368500  0.67946300  1
  C  C10  1  0.86734100  0.95631400  0.32053700  1
  C  C11  1  0.98927800  0.05683800  0.63733100  1
  C  C12  1  0.01072200  0.94316100  0.36266900  1
  C  C13  1  0.89077800  0.08281800  0.96853000  1
  C  C14  1  0.10922200  0.91718100  0.03147000  1
  C  C15  1  0.89314500  0.07395300  0.05888600  1
  C  C16  1  0.10685500  0.92604600  0.94111400  1
  C  C17  1  0.00210000  0.99070100  0.09054100  1
  C  C18  1  0.99790000  0.00929800  0.90945900  1
  C  C19  1  0.70942000  0.03042600  0.62611800  1
  C  C20  1  0.29058000  0.96957300  0.37388200  1
  C  C21  1  0.27746400  0.03148300  0.62450800  1
  C  C22  1  0.72253600  0.96851600  0.37549200  1
  C  C23  1  0.70664500  0.52884500  0.50548200  1
  C  C24  1  0.29335500  0.47115400  0.49451700  1
  C  C25  1  0.68900000  0.65204200  0.50815700  1
  C  C26  1  0.31100000  0.34795700  0.49184300  1
  C  C27  1  0.41199400  0.65494100  0.50255300  1
  C  C28  1  0.58800600  0.34505800  0.49744700  1
  C  C29  1  0.42605300  0.53173200  0.49928100  1
  C  C30  1  0.57394700  0.46826700  0.50071900  1
  N  N1  1  0.45720800  0.28691100  0.49290100  1
  N  N2  1  0.54279200  0.71308900  0.50709900  1
  Cl  Cl1  1  0.67742600  0.00550600  0.82343400  1
  Cl  Cl2  1  0.32257400  0.99449400  0.17656600  1
  Cl  Cl3  1  0.31988300  0.01757800  0.82236900  1
  Cl  Cl4  1  0.68011700  0.98242100  0.17763000  1
  Cl  Cl5  1  0.14198400  0.27155500  0.48928500  1
  Cl  Cl6  1  0.85801600  0.72844400  0.51071500  1
  O  O1  1  0.64191700  0.12486500  0.59403600  1
  O  O2  1  0.35808300  0.87513400  0.40596400  1
  O  O3  1  0.67712200  0.92057500  0.59761900  1
  O  O4  1  0.32287800  0.07942400  0.40238000  1
  O  O5  1  0.34912900  0.92233500  0.59962200  1
  O  O6  1  0.65087100  0.07766500  0.40037800  1
  O  O7  1  0.31201500  0.12525300  0.58979600  1
  O  O8  1  0.68798500  0.87474600  0.41020400  1
