# Generated by REPEAT Assigner based on pymatgen
data_DB0-m2_o16_o23_f0_pcu.sym.30
_audit_creation_date              2022-05-24
_audit_creation_method            REPEAT_Assigner
_cell_length_a                    12.168578
_cell_length_b                    13.496952
_cell_length_c                    15.876289
_cell_angle_alpha                 78.513508
_cell_angle_beta                  102.506453
_cell_angle_gamma                 116.147337
_cell_volume                      2269.062745
_symmetry_space_group_name_H-M    P1
_symmetry_Int_Tables_number       1
loop_
    _symmetry_equiv_pos_site_id
    _symmetry_equiv_pos_as_xyz
    1  x,y,z
loop_
    _atom_site_type_symbol
    _atom_site_label
    _atom_site_fract_x
    _atom_site_fract_y
    _atom_site_fract_z
    _atom_type_partial_charge
    O   O1    0.971173  0.320717  0.527567  -0.581239
    O   O2    0.805307  0.364628  0.503516  -0.520645
    C   C1    0.851309  0.291034  0.515648  0.654684
    O   O3    0.086770  0.483498  0.643625  -0.594450
    O   O4    0.922775  0.531913  0.610240  -0.637041
    C   C2    0.004392  0.506215  0.666515  0.872575
    Cu  Cu1   0.095429  0.474459  0.524132  0.831101
    Cu  Cu2   0.899592  0.525536  0.485479  0.814258
    O   O5    0.191763  0.635232  0.508528  -0.578214
    O   O6    0.023380  0.679398  0.477789  -0.560072
    O   O7    0.081586  0.479960  0.398600  -0.652227
    O   O8    0.910012  0.519242  0.365725  -0.604360
    C   C3    0.143368  0.708165  0.489490  0.740074
    C   C4    0.992578  0.495925  0.343081  0.864883
    C   C5    0.046540  0.418838  0.979507  -0.137895
    C   C6    0.871595  0.477296  0.937956  0.271660
    C   C7    0.865704  0.458068  0.034201  -0.283147
    H   H1    0.840989  0.543708  0.907323  -0.062857
    H   H2    0.804746  0.401724  0.907776  -0.033802
    H   H3    0.817127  0.367546  0.052284  0.053096
    C   C8    0.992096  0.497135  0.252411  -0.166094
    C   C9    0.003487  0.506248  0.924837  0.288603
    C   C10   0.056354  0.425454  0.075452  -0.304129
    C   C11   0.997346  0.500971  0.084516  1.241308
    C   C12   0.081814  0.618371  0.048258  -0.210783
    C   C13   0.088934  0.621047  0.953612  -0.269167
    C   C14   0.993563  0.498629  0.176472  -0.530361
    C   C15   0.006173  0.507598  0.832877  -0.169445
    C   C16   0.006581  0.507595  0.757023  -0.270270
    H   H4    0.176403  0.639450  0.084729  0.051862
    H   H5    0.138140  0.433185  0.965854  0.108287
    H   H6    0.155609  0.461500  0.103479  0.117531
    C   C17   0.258483  0.012167  0.418890  -0.288994
    H   H7    0.081421  0.879024  0.420403  0.030006
    H   H8    0.420497  0.209162  0.374990  0.110588
    H   H9    0.220475  0.070633  0.385271  0.126998
    C   C18   0.226983  0.826835  0.477176  -0.239929
    C   C19   0.819138  0.098170  0.564385  0.055996
    C   C20   0.746630  0.987267  0.581598  -0.191156
    C   C21   0.620824  0.945899  0.557663  -0.117974
    C   C22   0.564435  0.014539  0.511264  -0.004150
    C   C23   0.639548  0.127329  0.490590  0.236438
    C   C24   0.435091  0.973564  0.485184  -0.016380
    C   C25   0.384695  0.046574  0.440601  0.226457
    C   C26   0.459867  0.154354  0.414576  -0.180419
    C   C27   0.585576  0.193262  0.436406  -0.231519
    C   C28   0.353751  0.861857  0.501364  -0.071758
    C   C29   0.179665  0.903405  0.438589  0.099887
    C   C30   0.767452  0.170669  0.521836  -0.244000
    H   H10   0.385310  0.798941  0.532218  0.095999
    H   H11   0.916995  0.127283  0.587114  0.074190
    H   H12   0.571498  0.858680  0.576741  0.126637
    H   H13   0.788596  0.932213  0.616571  0.127091
    H   H14   0.638316  0.275458  0.407236  0.141383
    C   C31   0.356196  0.342242  0.645156  -0.171782
    H   H15   0.566116  0.318218  0.674207  0.107149
    N   N1    0.242371  0.436154  0.554139  0.018001
    C   C32   0.743678  0.635979  0.385942  0.188103
    C   C33   0.641081  0.658405  0.361755  -0.196498
    C   C34   0.542897  0.606936  0.406594  0.132895
    C   C35   0.545786  0.530194  0.478194  -0.084709
    C   C36   0.651998  0.508345  0.501959  0.228483
    C   C37   0.445081  0.474341  0.526401  -0.024968
    C   C38   0.452418  0.397548  0.596923  0.325400
    C   C39   0.556007  0.376869  0.619634  -0.212279
    C   C40   0.652703  0.430957  0.573842  -0.144885
    C   C41   0.336719  0.492660  0.507002  -0.174037
    C   C42   0.252799  0.362781  0.623642  0.116521
    N   N2    0.751810  0.562081  0.456718  -0.145131
    H   H16   0.324032  0.552000  0.454414  0.228231
    H   H17   0.466799  0.629802  0.382113  0.028161
    H   H18   0.726732  0.407630  0.599077  0.191227
    Br  Br1   0.982651  0.277977  0.137444  -0.034656
    Br  Br2   0.037932  0.735144  0.062395  -0.008563
    Br  Br3   0.936978  0.269390  0.952131  0.005888
    Br  Br4   0.128390  0.280462  0.697070  0.007371
    Br  Br5   0.358235  0.235335  0.744243  -0.044429
    Br  Br6   0.869245  0.719143  0.313352  0.075382
    Br  Br7   0.635290  0.763516  0.262935  -0.011355
    Br  Br8   0.761340  0.519387  0.060212  -0.118682
    Br  Br9   0.259256  0.662189  0.941173  0.055178
    Br  Br10  0.044394  0.737191  0.884279  0.054867
