# Generated by REPEAT Assigner based on pymatgen
data_DB0-m3_o450_o155_f0_fsc.sym.30
_audit_creation_date              2022-05-24
_audit_creation_method            REPEAT_Assigner
_cell_length_a                    8.538575
_cell_length_b                    12.763860
_cell_length_c                    17.542253
_cell_angle_alpha                 90.884631
_cell_angle_beta                  90.072142
_cell_angle_gamma                 95.443906
_cell_volume                      1902.988165
_symmetry_space_group_name_H-M    P1
_symmetry_Int_Tables_number       1
loop_
    _symmetry_equiv_pos_site_id
    _symmetry_equiv_pos_as_xyz
    1  x,y,z
loop_
    _atom_site_type_symbol
    _atom_site_label
    _atom_site_fract_x
    _atom_site_fract_y
    _atom_site_fract_z
    _atom_type_partial_charge
    C   C1   0.171221  0.709134  0.008922  0.107651
    C   C2   0.828896  0.290484  0.990552  0.105531
    C   C3   0.183355  0.816612  0.998175  -0.489681
    C   C4   0.816793  0.183084  0.001651  -0.485639
    H   H1   0.297778  0.859723  0.992161  0.165847
    H   H2   0.702377  0.139996  0.007763  0.162036
    C   C5   0.048628  0.869634  0.997860  0.505730
    C   C6   0.951533  0.130089  0.002166  0.509239
    C   C7   0.901563  0.812794  0.999857  -0.009918
    C   C8   0.098577  0.186943  0.000139  -0.166285
    H   H3   0.793180  0.849360  0.993844  0.001635
    H   H4   0.206953  0.150425  0.006354  0.049376
    C   C9   0.891597  0.705696  0.010035  -0.115847
    C   C10  0.108531  0.293957  0.989548  -0.030091
    C   C11  0.025781  0.656209  0.019465  -0.230260
    C   C12  0.974331  0.343351  0.979838  -0.220072
    N   N1   0.063700  0.980799  0.994601  -0.280980
    N   N2   0.936489  0.018934  0.005523  -0.252478
    H   H5   0.016804  0.573310  0.030340  0.159088
    H   H6   0.983290  0.426179  0.968695  0.142258
    O   O1   0.685733  0.599286  0.069581  -0.742980
    O   O2   0.314157  0.400577  0.929968  -0.716039
    O   O3   0.682766  0.615112  0.938698  -0.718678
    O   O4   0.317590  0.384382  0.060817  -0.733249
    C   C13  0.741795  0.640931  0.006292  0.918576
    C   C14  0.258313  0.358759  0.993243  0.888456
    O   O5   0.652099  0.396576  0.930609  -0.766572
    O   O6   0.347748  0.602884  0.068847  -0.769464
    O   O7   0.643818  0.380798  0.061401  -0.737802
    O   O8   0.356590  0.619011  0.938089  -0.736866
    C   C15  0.694240  0.353320  0.993887  0.878374
    C   C16  0.305890  0.646314  0.005592  0.874485
    Zn  Zn1  0.501326  0.506704  0.915033  1.028838
    Zn  Zn2  0.498826  0.492948  0.084465  1.047707
    C   C17  0.534509  0.601544  0.777009  -0.475497
    C   C18  0.485045  0.397302  0.222514  -0.535530
    N   N3   0.502700  0.511632  0.815128  0.351791
    N   N4   0.497514  0.488029  0.184361  0.382051
    C   C19  0.469352  0.419723  0.777598  -0.465750
    C   C20  0.511460  0.581047  0.221676  -0.472215
    C   C21  0.500889  0.506466  0.658354  -0.156006
    C   C22  0.499769  0.493656  0.341124  -0.190290
    C   C23  0.542008  0.599720  0.697923  0.390697
    C   C24  0.479617  0.398414  0.301657  0.448567
    C   C25  0.587857  0.689839  0.657743  -0.390976
    C   C26  0.461623  0.305715  0.341976  -0.429875
    C   C27  0.459997  0.416174  0.698908  0.402919
    C   C28  0.519188  0.585803  0.300421  0.409681
    C   C29  0.523342  0.592718  0.459200  -0.041061
    C   C30  0.467951  0.408223  0.540336  0.009091
    C   C31  0.478159  0.404245  0.460761  -0.062254
    C   C32  0.533756  0.595232  0.538856  -0.002535
    C   C33  0.500499  0.496875  0.420490  0.168315
    C   C34  0.500865  0.503317  0.579043  0.112775
    C   C35  0.535542  0.684520  0.417221  -0.023322
    C   C36  0.420045  0.319286  0.582081  -0.018674
    C   C37  0.538726  0.681648  0.338918  -0.399922
    C   C38  0.413320  0.323092  0.660329  -0.423731
    C   C39  0.580994  0.687468  0.579328  -0.034395
    C   C40  0.466045  0.309169  0.420390  -0.003869
    H   H7   0.542876  0.761417  0.443291  0.139504
    H   H8   0.374278  0.246376  0.555609  0.117585
    H   H9   0.626051  0.758494  0.551776  0.124727
    H   H10  0.459794  0.234428  0.447953  0.134975
    H   H11  0.454246  0.349057  0.810494  0.243944
    H   H12  0.514214  0.651117  0.188294  0.243157
    H   H13  0.552061  0.673872  0.809593  0.254873
    H   H14  0.482259  0.325175  0.189772  0.271370
    C   C41  0.653114  0.788157  0.695417  0.835865
    O   O9   0.629941  0.872515  0.667932  -0.533965
    O   O10  0.751652  0.785763  0.755295  -0.380182
    C   C42  0.819244  0.877480  0.787796  0.049991
    H   H15  0.895016  0.858755  0.836165  0.054705
    H   H16  0.726019  0.925260  0.809040  0.056570
    H   H17  0.892076  0.922535  0.744902  0.056628
    C   C43  0.431414  0.201959  0.304398  0.805597
    O   O11  0.488195  0.126173  0.330777  -0.506517
    O   O12  0.327620  0.187626  0.246376  -0.342520
    C   C44  0.292325  0.089676  0.214200  -0.081962
    H   H18  0.205798  0.094622  0.167500  0.118136
    H   H19  0.241051  0.034786  0.257934  0.094951
    H   H20  0.400812  0.060372  0.190701  0.083740
    C   C45  0.569228  0.782341  0.299461  0.769921
    O   O13  0.512609  0.860231  0.324087  -0.499702
    O   O14  0.673159  0.791944  0.241651  -0.331351
    C   C46  0.708689  0.887217  0.207680  0.050655
    H   H21  0.795327  0.878471  0.161517  0.027050
    H   H22  0.759922  0.945564  0.250501  0.066791
    H   H23  0.600324  0.914658  0.183102  0.034683
    C   C47  0.347067  0.228018  0.699567  0.833101
    O   O15  0.368905  0.141399  0.673677  -0.518657
    O   O16  0.249056  0.235618  0.759130  -0.334824
    C   C48  0.180203  0.146783  0.792969  -0.076837
    H   H24  0.104846  0.169673  0.840689  0.104534
    H   H25  0.272643  0.099973  0.815365  0.060796
    H   H26  0.106682  0.098965  0.750632  0.080758
