# generated using pymatgen
data_Zn6H72C116O37
_symmetry_space_group_name_H-M   'P 1'
_cell_length_a   18.88252100
_cell_length_b   18.94407400
_cell_length_c   19.07271100
_cell_angle_alpha   109.29279400
_cell_angle_beta   109.77092300
_cell_angle_gamma   108.99840300
_symmetry_Int_Tables_number   1
_chemical_formula_structural   Zn6H72C116O37
_chemical_formula_sum   'Zn6 H72 C116 O37'
_cell_volume   5274.46917732
_cell_formula_units_Z   1
loop_
 _symmetry_equiv_pos_site_id
 _symmetry_equiv_pos_as_xyz
  1  'x, y, z'
loop_
 _atom_site_type_symbol
 _atom_site_label
 _atom_site_symmetry_multiplicity
 _atom_site_fract_x
 _atom_site_fract_y
 _atom_site_fract_z
 _atom_site_occupancy
  Zn  Zn1  1  0.50348900  0.43285600  0.42784300  1
  Zn  Zn2  1  0.49175100  0.55679300  0.56548500  1
  Zn  Zn3  1  0.92901000  0.43235300  0.00027600  1
  Zn  Zn4  1  0.07417400  0.56421800  0.00402400  1
  Zn  Zn5  1  0.06735400  0.99778100  0.57598500  1
  Zn  Zn6  1  0.93834800  0.99915900  0.43150200  1
  H  H1  1  0.29926000  0.55940400  0.18384300  1
  H  H2  1  0.30779400  0.41619000  0.18718800  1
  H  H3  1  0.17763500  0.40778300  0.31232000  1
  H  H4  1  0.54887300  0.72553400  0.50949800  1
  H  H5  1  0.54905700  0.85698900  0.54590100  1
  H  H6  1  0.65373400  0.97241100  0.54608200  1
  H  H7  1  0.91491200  0.77698700  0.47143100  1
  H  H8  1  0.93056600  0.65972300  0.47266800  1
  H  H9  1  0.73081400  0.58655300  0.53147900  1
  H  H10  1  0.55402700  0.21261400  0.56329000  1
  H  H11  1  0.73334700  0.65715000  0.69439200  1
  H  H12  1  0.96214500  0.79975100  0.93698100  1
  H  H13  1  0.95048000  0.67242400  0.93747900  1
  H  H14  1  0.80766300  0.34963500  0.77240500  1
  H  H15  1  0.68031400  0.21579000  0.66153500  1
  H  H16  1  0.55761900  0.34309800  0.57306800  1
  H  H17  1  0.47344700  0.40119600  0.64641400  1
  H  H18  1  0.49286500  0.41962600  0.78324500  1
  H  H19  1  0.37426500  0.33016000  0.79414200  1
  H  H20  1  0.24012300  0.21965800  0.66908500  1
  H  H21  1  0.09047900  0.02716200  0.34577800  1
  H  H22  1  0.26879600  0.27179700  0.33534100  1
  H  H23  1  0.71758400  0.52690500  0.08755100  1
  H  H24  1  0.30087500  0.89262200  0.33458200  1
  H  H25  1  0.14902200  0.95926500  0.42780100  1
  H  H26  1  0.86005900  0.74008800  0.33185500  1
  H  H27  1  0.73285100  0.60492500  0.22471900  1
  H  H28  1  0.98534000  0.13824700  0.92925200  1
  H  H29  1  0.95889600  0.42190400  0.76990100  1
  H  H30  1  0.03203700  0.38609700  0.58113700  1
  H  H31  1  0.95696700  0.04149300  0.68360300  1
  H  H32  1  0.95668300  0.02117600  0.80008000  1
  H  H33  1  0.00911700  0.27393600  0.93839700  1
  H  H34  1  0.23184500  0.69010500  0.39648500  1
  H  H35  1  0.23414700  0.62748500  0.45090600  1
  H  H36  1  0.14234300  0.64306500  0.41145000  1
  H  H37  1  0.68834500  0.89861700  0.37081300  1
  H  H38  1  0.77802400  0.00174200  0.40868500  1
  H  H39  1  0.68423900  0.99629100  0.41712600  1
  H  H40  1  0.73090400  0.78966900  0.73369300  1
  H  H41  1  0.79947500  0.78706000  0.68606700  1
  H  H42  1  0.81791200  0.88827800  0.76051400  1
  H  H43  1  0.35634300  0.70700100  0.28808100  1
  H  H44  1  0.45108200  0.69616400  0.32990400  1
  H  H45  1  0.44054900  0.78131300  0.39704900  1
  H  H46  1  0.25194400  0.25783400  0.20731500  1
  H  H47  1  0.21005800  0.16563400  0.10630500  1
  H  H48  1  0.28358600  0.17635100  0.20405300  1
  H  H49  1  0.12454000  0.93493800  0.22033800  1
  H  H50  1  0.05057000  0.88885100  0.10766300  1
  H  H51  1  0.00982200  0.86743700  0.17595500  1
  H  H52  1  0.23593900  0.80575300  0.16968100  1
  H  H53  1  0.22260800  0.69924600  0.12609000  1
  H  H54  1  0.31681300  0.78482400  0.22767300  1
  H  H55  1  0.27993700  0.01448600  0.55082600  1
  H  H56  1  0.33247700  0.12039000  0.56372600  1
  H  H57  1  0.39220900  0.06493500  0.58079800  1
  H  H58  1  0.73109800  0.45845700  0.95714000  1
  H  H59  1  0.73755700  0.51766400  0.90009000  1
  H  H60  1  0.68727400  0.53154600  0.96371600  1
  H  H61  1  0.00861700  0.56677900  0.79135900  1
  H  H62  1  0.89618700  0.49528500  0.70568400  1
  H  H63  1  0.96326100  0.58934500  0.70733400  1
  H  H64  1  0.95218500  0.24661100  0.45833500  1
  H  H65  1  0.98676700  0.16949000  0.43200900  1
  H  H66  1  0.05700600  0.27949900  0.46538400  1
  H  H67  1  0.02411000  0.32274000  0.16130500  1
  H  H68  1  0.02009300  0.21969300  0.12575400  1
  H  H69  1  0.97931100  0.25204100  0.04857300  1
  H  H70  1  0.71920500  0.44528000  0.46765600  1
  H  H71  1  0.79502500  0.51135200  0.58232600  1
  H  H72  1  0.80875100  0.42956700  0.51611300  1
  C  C1  1  0.61137400  0.62339800  0.50066600  1
  C  C2  1  0.37156000  0.48887600  0.37664200  1
  C  C3  1  0.38471000  0.36658600  0.49348300  1
  C  C4  1  0.62369300  0.50089200  0.61660300  1
  C  C5  1  0.29559000  0.56472000  0.30808600  1
  C  C6  1  0.20087100  0.52146000  0.28201300  1
  C  C7  1  0.17717500  0.48316800  0.18872300  1
  C  C8  1  0.27206500  0.52644700  0.21444400  1
  C  C9  1  0.27647700  0.44775200  0.21540700  1
  C  C10  1  0.18183800  0.40572600  0.19003000  1
  C  C11  1  0.20527700  0.44301700  0.28350700  1
  C  C12  1  0.30009400  0.48694700  0.30893500  1
  C  C13  1  0.60302100  0.77629500  0.51776600  1
  C  C14  1  0.60053100  0.85098400  0.53641500  1
  C  C15  1  0.65970700  0.91567200  0.53722800  1
  C  C16  1  0.72207300  0.90702500  0.51957200  1
  C  C17  1  0.73322200  0.83456600  0.51061300  1
  C  C18  1  0.67199900  0.76889100  0.51158900  1
  C  C19  1  0.80173200  0.82470700  0.50172400  1
  C  C20  1  0.80777000  0.75152500  0.49698300  1
  C  C21  1  0.75031700  0.69100700  0.50451700  1
  C  C22  1  0.67910500  0.69624600  0.50630500  1
  C  C23  1  0.87133800  0.73711300  0.48396800  1
  C  C24  1  0.88083000  0.66831100  0.48393100  1
  C  C25  1  0.82987300  0.61353300  0.50062500  1
  C  C26  1  0.76629000  0.62648100  0.51294000  1
  C  C27  1  0.77869300  0.65817000  0.74770600  1
  C  C28  1  0.84783300  0.73694500  0.81514500  1
  C  C29  1  0.90783700  0.73935500  0.88274800  1
  C  C30  1  0.90079900  0.66468400  0.88210700  1
  C  C31  1  0.83233200  0.58483600  0.81426500  1
  C  C32  1  0.76842300  0.58201900  0.74817100  1
  C  C33  1  0.82645800  0.50849700  0.81221600  1
  C  C34  1  0.75646600  0.42986000  0.74257100  1
  C  C35  1  0.68882000  0.42764300  0.68109900  1
  C  C36  1  0.69492300  0.50358500  0.68302900  1
  C  C37  1  0.75373200  0.35254900  0.73240200  1
  C  C38  1  0.68177100  0.27519100  0.66797700  1
  C  C39  1  0.61146400  0.27339200  0.61270600  1
  C  C40  1  0.61488500  0.34880100  0.61856900  1
  C  C41  1  0.41889100  0.36035700  0.64732000  1
  C  C42  1  0.43157300  0.37064100  0.72602900  1
  C  C43  1  0.36560200  0.32024900  0.73200700  1
  C  C44  1  0.28904800  0.25563700  0.65895900  1
  C  C45  1  0.27679400  0.24033500  0.57783800  1
  C  C46  1  0.33999100  0.29832600  0.57294300  1
  C  C47  1  0.20317700  0.16923700  0.50222300  1
  C  C48  1  0.19468000  0.15895400  0.42312900  1
  C  C49  1  0.25099100  0.22416000  0.41930000  1
  C  C50  1  0.32443700  0.29447100  0.49458200  1
  C  C51  1  0.13021500  0.08362400  0.34687200  1
  C  C52  1  0.11553500  0.07602800  0.26832300  1
  C  C53  1  0.16590900  0.14468600  0.26405800  1
  C  C54  1  0.23257500  0.21823000  0.33980400  1
  C  C55  1  0.00526500  0.62011800  0.12374600  1
  C  C56  1  0.11136600  0.48578200  0.11965700  1
  C  C57  1  0.99919400  0.37763300  0.88156900  1
  C  C58  1  0.89171200  0.50947200  0.88340100  1
  C  C59  1  0.99953800  0.87052800  0.39082700  1
  C  C60  1  0.87261600  0.89104800  0.50369400  1
  C  C61  1  0.00698600  0.12748200  0.61683100  1
  C  C62  1  0.13278900  0.10698500  0.50438600  1
  C  C63  1  0.17015900  0.79337200  0.26934900  1
  C  C64  1  0.23754600  0.87579200  0.32766600  1
  C  C65  1  0.22944800  0.93407400  0.38427700  1
  C  C66  1  0.15201400  0.91039100  0.38227900  1
  C  C67  1  0.08115900  0.82841400  0.32274000  1
  C  C68  1  0.08668600  0.76866800  0.26060600  1
  C  C69  1  0.00586700  0.80647700  0.32759800  1
  C  C70  1  0.93298900  0.72821600  0.26630200  1
  C  C71  1  0.93056100  0.67617800  0.19380300  1
  C  C72  1  0.00864300  0.69056300  0.19297000  1
  C  C73  1  0.86077500  0.70281800  0.27593300  1
  C  C74  1  0.78758400  0.62580800  0.21509900  1
  C  C75  1  0.78011100  0.58110900  0.13788200  1
  C  C76  1  0.84815000  0.61158500  0.12360400  1
  C  C77  1  0.97991000  0.38768700  0.73187600  1
  C  C78  1  0.99339000  0.41090500  0.67445700  1
  C  C79  1  0.01579200  0.36532900  0.62257600  1
  C  C80  1  0.01989400  0.29414000  0.62262100  1
  C  C81  1  0.00544500  0.26862900  0.68052300  1
  C  C82  1  0.99289600  0.32184400  0.74049700  1
  C  C83  1  0.00174500  0.19291800  0.68104500  1
  C  C84  1  0.98957400  0.17591700  0.74360300  1
  C  C85  1  0.99360000  0.23755100  0.81136500  1
  C  C86  1  0.99370300  0.31021000  0.80944300  1
  C  C87  1  0.97205700  0.09645100  0.73894300  1
  C  C88  1  0.96946800  0.08289700  0.80462200  1
  C  C89  1  0.98495200  0.14812500  0.87650800  1
  C  C90  1  0.99693400  0.22498300  0.88010200  1
  C  C91  1  0.14989800  0.55374600  0.31531700  1
  C  C92  1  0.19266300  0.63374800  0.39873400  1
  C  C93  1  0.76736800  0.97623300  0.50713300  1
  C  C94  1  0.72711100  0.96759000  0.42041600  1
  C  C95  1  0.85826200  0.81842600  0.81714300  1
  C  C96  1  0.79749600  0.82053200  0.74459500  1
  C  C97  1  0.36243900  0.65608900  0.37282300  1
  C  C98  1  0.40554100  0.71371500  0.34536900  1
  C  C99  1  0.15467500  0.13924800  0.18136100  1
  C  C100  1  0.23000900  0.18811300  0.17491400  1
  C  C101  1  0.04717600  0.99323000  0.19185200  1
  C  C102  1  0.05877900  0.91623100  0.17282900  1
  C  C103  1  0.19916700  0.73629900  0.23153400  1
  C  C104  1  0.24662500  0.75773800  0.18605900  1
  C  C105  1  0.30584500  0.01843200  0.44983300  1
  C  C106  1  0.32825500  0.05663400  0.54163100  1
  C  C107  1  0.82598300  0.59233200  0.03492500  1
  C  C108  1  0.74024400  0.52034500  0.95977200  1
  C  C109  1  0.98913600  0.48586500  0.66997700  1
  C  C110  1  0.96262300  0.53740400  0.72227900  1
  C  C111  1  0.05083600  0.25790500  0.56698800  1
  C  C112  1  0.00943800  0.23732800  0.47535400  1
  C  C113  1  0.11699300  0.31460400  0.12347400  1
  C  C114  1  0.02968200  0.27485200  0.11419600  1
  C  C115  1  0.84298900  0.54156500  0.50309300  1
  C  C116  1  0.78783800  0.47820800  0.51830000  1
  O  O1  1  0.58502900  0.54489200  0.44357500  1
  O  O2  1  0.58252500  0.63868000  0.55467000  1
  O  O3  1  0.40638900  0.44298600  0.35209200  1
  O  O4  1  0.39725100  0.53667400  0.45769300  1
  O  O5  1  0.41618500  0.35075200  0.44182900  1
  O  O6  1  0.40739000  0.44488100  0.54747700  1
  O  O7  1  0.60032600  0.45582400  0.53568300  1
  O  O8  1  0.58621300  0.54371000  0.64101900  1
  O  O9  1  0.95113400  0.53967500  0.09585400  1
  O  O10  1  0.05377500  0.63926100  0.09016000  1
  O  O11  1  0.02905000  0.43795300  0.09092000  1
  O  O12  1  0.13906100  0.53802600  0.09192600  1
  O  O13  1  0.94523500  0.35693700  0.90999800  1
  O  O14  1  0.05602900  0.45738000  0.91184600  1
  O  O15  1  0.86458700  0.46133200  0.91507500  1
  O  O16  1  0.97394100  0.55446600  0.90968900  1
  O  O17  1  0.04887400  0.90032200  0.47298100  1
  O  O18  1  0.94981100  0.90069600  0.36204200  1
  O  O19  1  0.95319000  0.91967400  0.56013200  1
  O  O20  1  0.85391900  0.91217700  0.44371400  1
  O  O21  1  0.05982500  0.09969900  0.64493100  1
  O  O22  1  0.95330600  0.09329200  0.53474100  1
  O  O23  1  0.15183800  0.07996400  0.55965300  1
  O  O24  1  0.05246700  0.08095600  0.45039400  1
  O  O25  1  0.07129000  0.51056800  0.27593400  1
  O  O26  1  0.81631500  0.04796400  0.56908900  1
  O  O27  1  0.91843600  0.88646200  0.87952600  1
  O  O28  1  0.38139000  0.68401500  0.44783500  1
  O  O29  1  0.08413900  0.09306400  0.11631600  1
  O  O30  1  0.97827700  0.98567500  0.14718100  1
  O  O31  1  0.19250500  0.67646900  0.24463300  1
  O  O32  1  0.35664100  0.05423200  0.43079600  1
  O  O33  1  0.87332100  0.64265400  0.02310700  1
  O  O34  1  0.00825400  0.50717100  0.62240100  1
  O  O35  1  0.11776500  0.25637500  0.59831700  1
  O  O36  1  0.13631000  0.27170300  0.07810100  1
  O  O37  1  0.89918400  0.53193700  0.49054000  1
