# Generated by REPEAT Assigner based on pymatgen
data_DB0-m2_o2_o20_f0_nbo.sym.47
_audit_creation_date              2022-05-24
_audit_creation_method            REPEAT_Assigner
_cell_length_a                    25.655300
_cell_length_b                    26.069702
_cell_length_c                    25.790359
_cell_angle_alpha                 70.734467
_cell_angle_beta                  69.882001
_cell_angle_gamma                 109.148810
_cell_volume                      13258.155614
_symmetry_space_group_name_H-M    P1
_symmetry_Int_Tables_number       1
loop_
    _symmetry_equiv_pos_site_id
    _symmetry_equiv_pos_as_xyz
    1  x,y,z
loop_
    _atom_site_type_symbol
    _atom_site_label
    _atom_site_fract_x
    _atom_site_fract_y
    _atom_site_fract_z
    _atom_type_partial_charge
    O   O1   0.478476  0.923861  0.971970  -0.556362
    O   O2   0.397364  0.922841  0.048001  -0.586235
    C   C1   0.417615  0.901066  0.010839  0.604591
    O   O3   0.539311  0.921189  0.041445  -0.617103
    O   O4   0.460316  0.920724  0.119007  -0.615342
    C   C2   0.499702  0.899672  0.101855  0.830643
    Cu  Cu1  0.547351  0.987265  0.969794  0.977578
    Cu  Cu2  0.453456  0.984228  0.059483  0.977201
    O   O5   0.603489  0.053564  0.976294  -0.585268
    O   O6   0.522349  0.049510  0.055407  -0.554892
    O   O7   0.539043  0.049267  0.910262  -0.590949
    O   O8   0.462970  0.051780  0.987956  -0.591197
    C   C3   0.583193  0.070520  0.018316  0.601427
    C   C4   0.501280  0.072007  0.927453  0.727828
    C   C5   0.499593  0.851157  0.151344  -0.245256
    C   C6   0.499547  0.810773  0.192660  0.094975
    C   C7   0.499527  0.763189  0.241376  -0.022291
    C   C8   0.499538  0.722808  0.282645  -0.026429
    C   C9   0.499602  0.675113  0.331173  0.099360
    C   C10  0.499738  0.634515  0.372098  -0.251452
    C   C11  0.263611  0.797786  0.029552  -0.125034
    H   H1   0.214434  0.787319  0.051654  0.108196
    C   C12  0.307411  0.840429  0.034747  -0.125299
    H   H2   0.291732  0.863266  0.059839  0.128049
    C   C13  0.370464  0.854283  0.007222  0.019900
    C   C14  0.388986  0.824337  0.975334  -0.124476
    H   H3   0.437978  0.834253  0.953578  0.123980
    C   C15  0.344849  0.780794  0.971259  -0.125149
    H   H4   0.360334  0.758268  0.945637  0.106208
    C   C16  0.282065  0.767684  0.997884  0.072494
    C   C17  0.232663  0.665443  0.004093  -0.133265
    H   H5   0.264959  0.654114  0.016922  0.109061
    C   C18  0.186897  0.621548  0.001855  -0.100348
    H   H6   0.184936  0.577060  0.012159  0.116074
    C   C19  0.144143  0.634435  0.986978  -0.058618
    C   C20  0.147821  0.691733  0.974102  -0.101590
    H   H7   0.114686  0.702799  0.962777  0.120147
    C   C21  0.192758  0.735053  0.977608  -0.132843
    H   H8   0.194719  0.779504  0.967661  0.106303
    C   C22  0.235256  0.722070  0.992826  0.092759
    C   C23  0.479624  0.206857  0.843686  -0.128297
    H   H9   0.460383  0.234899  0.856330  0.106055
    C   C24  0.477902  0.159458  0.890782  -0.089969
    H   H10  0.458242  0.152657  0.938442  0.114871
    C   C25  0.502022  0.122121  0.877097  -0.085651
    C   C26  0.526968  0.133037  0.815050  -0.087230
    H   H11  0.546054  0.104891  0.802433  0.112727
    C   C27  0.526915  0.179203  0.768418  -0.129889
    H   H12  0.546793  0.186212  0.720680  0.107190
    C   C28  0.503733  0.217238  0.781822  0.080383
    C   C29  0.487659  0.257312  0.688697  -0.129561
    H   H13  0.472672  0.211952  0.691930  0.106936
    C   C30  0.487387  0.303833  0.642655  -0.090293
    H   H14  0.473000  0.293555  0.610878  0.115540
    C   C31  0.506090  0.362855  0.636555  -0.074041
    C   C32  0.524180  0.373579  0.678542  -0.099641
    H   H15  0.538743  0.418777  0.675655  0.116768
    C   C33  0.522610  0.326474  0.725783  -0.124057
    H   H16  0.536978  0.336735  0.757577  0.106097
    C   C34  0.504724  0.267673  0.731404  0.075663
    C   C35  0.655879  0.182672  0.066163  -0.132519
    H   H17  0.640196  0.193904  0.103418  0.109574
    C   C36  0.611697  0.134828  0.066512  -0.122831
    H   H18  0.562462  0.108939  0.104706  0.122663
    C   C37  0.630422  0.120397  0.018705  0.017681
    C   C38  0.693779  0.154192  0.970645  -0.113898
    H   H19  0.709658  0.143880  0.932698  0.124046
    C   C39  0.737651  0.202732  0.969749  -0.160638
    H   H20  0.787025  0.228588  0.931828  0.124088
    C   C40  0.718918  0.217281  0.017416  0.097828
    C   C41  0.808306  0.325554  0.959358  -0.126377
    H   H21  0.806878  0.331885  0.916390  0.102249
    C   C42  0.852710  0.374573  0.957362  -0.094261
    H   H22  0.886000  0.417721  0.912401  0.122522
    C   C43  0.855539  0.367645  0.011637  -0.072776
    C   C44  0.812628  0.311577  0.068212  -0.061136
    H   H23  0.814047  0.304930  0.111231  0.104961
    C   C45  0.767415  0.262935  0.070386  -0.163788
    H   H24  0.734885  0.219072  0.114790  0.110927
    C   C46  0.765549  0.269464  0.015794  0.082565
    O   O9   0.467507  0.527626  0.576991  -0.565423
    O   O10  0.396711  0.451537  0.570668  -0.577116
    C   C47  0.409625  0.488344  0.594089  0.602658
    O   O11  0.534341  0.601529  0.446524  -0.619505
    O   O12  0.466873  0.526712  0.436479  -0.618784
    C   C48  0.500084  0.585532  0.420661  0.836203
    Cu  Cu3  0.543939  0.542781  0.507935  0.979940
    Cu  Cu4  0.462098  0.455718  0.499826  0.973363
    O   O13  0.609470  0.542822  0.441095  -0.591893
    O   O14  0.538656  0.468243  0.433284  -0.553699
    O   O15  0.538315  0.471726  0.572100  -0.587578
    O   O16  0.472523  0.397060  0.560380  -0.593645
    C   C49  0.596379  0.510416  0.413566  0.611788
    C   C50  0.505885  0.412928  0.587128  0.715798
    O   O17  0.956218  0.489807  0.095456  -0.576696
    O   O18  0.928869  0.534963  0.022167  -0.589104
    C   C51  0.924822  0.516401  0.078180  0.638646
    O   O19  0.081242  0.528181  0.015473  -0.594944
    O   O20  0.059571  0.603650  0.964328  -0.592385
    C   C52  0.093223  0.586669  0.988044  0.713571
    Cu  Cu5  0.998356  0.460178  0.043343  0.922048
    Cu  Cu6  0.000882  0.545116  0.952345  0.942601
    O   O21  0.040804  0.443897  0.976855  -0.550281
    O   O22  0.072406  0.541790  0.896871  -0.583998
    O   O23  0.915874  0.405609  0.056805  -0.571477
    O   O24  0.941801  0.473067  0.954858  -0.586017
    C   C53  0.073378  0.488812  0.916806  0.620648
    C   C54  0.906022  0.418198  0.008096  0.701829
    C   C55  0.246451  0.442298  0.709351  -0.118483
    H   H25  0.198245  0.418454  0.718600  0.117905
    C   C56  0.295395  0.446374  0.661493  -0.138827
    H   H26  0.284739  0.424646  0.634548  0.128600
    C   C57  0.357383  0.480616  0.646652  0.036505
    C   C58  0.370508  0.508349  0.681095  -0.133662
    H   H27  0.418714  0.534248  0.670952  0.134328
    C   C59  0.321613  0.503791  0.729089  -0.120917
    H   H28  0.332153  0.525947  0.755774  0.102073
    C   C60  0.260008  0.472089  0.742089  0.066578
    C   C61  0.222350  0.531544  0.783482  -0.107862
    H   H29  0.267887  0.573609  0.747860  0.112673
    C   C62  0.175945  0.535246  0.825284  -0.135120
    H   H30  0.186652  0.579595  0.823754  0.130188
    C   C63  0.117426  0.482444  0.870261  0.085576
    C   C64  0.103705  0.425485  0.872147  -0.260624
    C   C65  0.151279  0.421980  0.830619  -0.058375
    H   H31  0.142175  0.378055  0.831652  0.081608
    C   C66  0.210284  0.474784  0.786981  0.081805
    C   C67  0.686058  0.499874  0.275363  -0.110186
    H   H32  0.676009  0.478280  0.248108  0.107474
    C   C68  0.636484  0.492283  0.325370  -0.144552
    H   H33  0.588340  0.466350  0.335371  0.129347
    C   C69  0.648928  0.518029  0.361432  0.022853
    C   C70  0.710687  0.551469  0.347707  -0.116443
    H   H34  0.720938  0.571832  0.375761  0.130628
    C   C71  0.760227  0.558148  0.298141  -0.147266
    H   H35  0.808738  0.583904  0.287397  0.109189
    C   C72  0.747601  0.532508  0.262126  0.092543
    C   C73  0.839979  0.518830  0.224468  -0.125619
    H   H36  0.837044  0.506030  0.270149  0.110173
    C   C74  0.882312  0.513276  0.180105  -0.134228
    H   H37  0.913344  0.497778  0.191052  0.130209
    C   C75  0.883106  0.525742  0.123509  0.012165
    C   C76  0.843774  0.546183  0.109941  -0.120187
    H   H38  0.844131  0.556566  0.065622  0.131276
    C   C77  0.801104  0.551033  0.154612  -0.133311
    H   H39  0.768930  0.565353  0.144793  0.103284
    C   C78  0.798581  0.536205  0.212045  0.085128
    C   C79  0.039396  0.369666  0.913744  0.683828
    O   O25  0.991818  0.375149  0.928661  -0.422615
    O   O26  0.032887  0.312181  0.931096  -0.312092
    C   C80  0.973348  0.259718  0.967638  0.009217
    H   H40  0.978565  0.217540  0.976841  0.071978
    H   H41  0.946389  0.261712  0.942058  0.047357
    H   H42  0.946910  0.256738  0.013773  0.057478
