# generated using pymatgen
data_Fe2H25C60Cl3O16
_symmetry_space_group_name_H-M   'P 1'
_cell_length_a   13.13664600
_cell_length_b   14.89877900
_cell_length_c   13.16702500
_cell_angle_alpha   100.55126200
_cell_angle_beta   100.52038500
_cell_angle_gamma   69.56093600
_symmetry_Int_Tables_number   1
_chemical_formula_structural   Fe2H25C60Cl3O16
_chemical_formula_sum   'Fe2 H25 C60 Cl3 O16'
_cell_volume   2354.20846888
_cell_formula_units_Z   1
loop_
 _symmetry_equiv_pos_site_id
 _symmetry_equiv_pos_as_xyz
  1  'x, y, z'
loop_
 _atom_site_type_symbol
 _atom_site_label
 _atom_site_symmetry_multiplicity
 _atom_site_fract_x
 _atom_site_fract_y
 _atom_site_fract_z
 _atom_site_occupancy
  Fe  Fe1  1  0.50040100  0.97852500  0.24797800  1
  Fe  Fe2  1  0.51103800  0.97537800  0.81642600  1
  H  H1  1  0.11259100  0.97491500  0.77228200  1
  H  H2  1  0.94109300  0.95506000  0.76195700  1
  H  H3  1  0.79461600  0.95221700  0.84114800  1
  H  H4  1  0.19263500  0.07437200  0.22291700  1
  H  H5  1  0.47956900  0.10515400  0.54333900  1
  H  H6  1  0.23468100  0.32836700  0.39376500  1
  H  H7  1  0.25920500  0.33296700  0.72255100  1
  H  H8  1  0.00994800  0.63396900  0.44618000  1
  H  H9  1  0.89504500  0.50411800  0.64438900  1
  H  H10  1  0.07099500  0.37938400  0.66177800  1
  H  H11  1  0.82554800  0.64591500  0.36217400  1
  H  H12  1  0.55543000  0.85332700  0.50319600  1
  H  H13  1  0.81817200  0.67988300  0.69059100  1
  H  H14  1  0.45712500  0.55552200  0.51781600  1
  H  H15  1  0.43618600  0.55014200  0.32773700  1
  H  H16  1  0.27062000  0.52798800  0.22041000  1
  H  H17  1  0.12787000  0.50820000  0.30238300  1
  H  H18  1  0.95664300  0.30743600  0.49045800  1
  H  H19  1  0.08618800  0.20873000  0.62012700  1
  H  H20  1  0.20026000  0.04311300  0.56387900  1
  H  H21  1  0.17912500  0.97336600  0.38092100  1
  H  H22  1  0.98197600  0.91520500  0.53714600  1
  H  H23  1  0.86520900  0.06698700  0.62419900  1
  H  H24  1  0.74934900  0.19707200  0.52200700  1
  H  H25  1  0.75171000  0.17681800  0.33307400  1
  C  C1  1  0.21285300  0.00137100  0.91349100  1
  C  C2  1  0.11845500  0.98939900  0.85624200  1
  C  C3  1  0.03346800  0.99012000  0.90486500  1
  C  C4  1  0.94435800  0.97138500  0.84564700  1
  C  C5  1  0.85960400  0.97071300  0.89230500  1
  C  C6  1  0.21912500  0.01810600  0.02166900  1
  C  C7  1  0.12946500  0.02453300  0.06943900  1
  C  C8  1  0.03751500  0.00850200  0.01166100  1
  C  C9  1  0.95044500  0.01000000  0.06020300  1
  C  C10  1  0.86052600  0.99080400  0.99971200  1
  C  C11  1  0.77383300  0.98847800  0.04546100  1
  C  C12  1  0.12848100  0.05173000  0.17492000  1
  C  C13  1  0.04231000  0.05814400  0.22401500  1
  C  C14  1  0.95327500  0.03082900  0.16800400  1
  C  C15  1  0.86893900  0.02239600  0.21507200  1
  C  C16  1  0.77979000  0.99896300  0.15393600  1
  C  C17  1  0.69289300  0.98557000  0.20437400  1
  C  C18  1  0.63806700  0.79727400  0.32429000  1
  C  C19  1  0.32102000  0.02328400  0.08666000  1
  C  C20  1  0.39628600  0.16166000  0.35879900  1
  C  C21  1  0.64232200  0.83985400  0.69086500  1
  C  C22  1  0.68022300  0.96842900  0.97722500  1
  C  C23  1  0.41243100  0.15458000  0.72951900  1
  C  C24  1  0.30323100  0.99485900  0.85707900  1
  C  C25  1  0.36623700  0.21606000  0.45982500  1
  C  C26  1  0.27814500  0.30026100  0.46508500  1
  C  C27  1  0.24232800  0.34600200  0.55999800  1
  C  C28  1  0.29029300  0.30139400  0.64909000  1
  C  C29  1  0.37402600  0.21344500  0.64287900  1
  C  C30  1  0.41481000  0.17391600  0.54909800  1
  C  C31  1  0.12565400  0.50767600  0.50438700  1
  C  C32  1  0.02292400  0.57658100  0.49170500  1
  C  C33  1  0.93877700  0.57531500  0.54022900  1
  C  C34  1  0.95940400  0.50639500  0.60517900  1
  C  C35  1  0.06033300  0.43566300  0.61568800  1
  C  C36  1  0.14319900  0.43273600  0.56230300  1
  C  C37  1  0.78288100  0.67803100  0.42949900  1
  C  C38  1  0.68236000  0.75032800  0.41934000  1
  C  C39  1  0.62938900  0.79165200  0.50635600  1
  C  C40  1  0.67743600  0.76651000  0.60314900  1
  C  C41  1  0.77711400  0.69427100  0.61341900  1
  C  C42  1  0.82966300  0.64856600  0.52663500  1
  C  C43  1  0.21316200  0.51780600  0.45670900  1
  C  C44  1  0.30545500  0.53255700  0.51722300  1
  C  C45  1  0.38538000  0.54370200  0.47051500  1
  C  C46  1  0.37341700  0.54123400  0.36398200  1
  C  C47  1  0.28058900  0.52897000  0.30389100  1
  C  C48  1  0.20030700  0.51811100  0.35018400  1
  C  C49  1  0.05198500  0.09966400  0.33353900  1
  C  C50  1  0.99425400  0.19530000  0.36345300  1
  C  C51  1  0.00525600  0.23389200  0.46664300  1
  C  C52  1  0.07780700  0.17873700  0.53909900  1
  C  C53  1  0.14143600  0.08572200  0.50784400  1
  C  C54  1  0.12935400  0.04656000  0.40505500  1
  C  C55  1  0.87254400  0.03613800  0.32894900  1
  C  C56  1  0.93514200  0.96168700  0.38634000  1
  C  C57  1  0.93282100  0.97318300  0.49237500  1
  C  C58  1  0.86708000  0.05809100  0.54119900  1
  C  C59  1  0.80220000  0.13115300  0.48392500  1
  C  C60  1  0.80412800  0.11996300  0.37796000  1
  Cl  Cl1  1  0.31975300  0.54395500  0.65359900  1
  Cl  Cl2  1  0.90661100  0.26803100  0.27126000  1
  Cl  Cl3  1  0.01453500  0.85136900  0.32463600  1
  O  O1  1  0.59500100  0.99206900  0.15461200  1
  O  O2  1  0.69978800  0.78461500  0.25157000  1
  O  O3  1  0.71258600  0.96480300  0.30002800  1
  O  O4  1  0.54278600  0.86633100  0.32577100  1
  O  O5  1  0.36370800  0.96566100  0.15890100  1
  O  O6  1  0.36647800  0.08600200  0.07541100  1
  O  O7  1  0.49281300  0.09449600  0.35539100  1
  O  O8  1  0.32046900  0.16726500  0.27838100  1
  O  O9  1  0.56665300  0.84002500  0.74396300  1
  O  O10  1  0.66323600  0.92038700  0.69584900  1
  O  O11  1  0.61489000  0.03179200  0.91602400  1
  O  O12  1  0.66991300  0.88265500  0.96783000  1
  O  O13  1  0.28079800  0.01865400  0.76250000  1
  O  O14  1  0.46523700  0.06199800  0.70705800  1
  O  O15  1  0.40594000  0.96338100  0.89925300  1
  O  O16  1  0.38520800  0.19032600  0.82324800  1
