# generated using pymatgen
data_ZnH16C21S3N3O4
_symmetry_space_group_name_H-M   'P 1'
_cell_length_a   11.86878300
_cell_length_b   13.10892100
_cell_length_c   19.43772400
_cell_angle_alpha   89.99607300
_cell_angle_beta   85.87932500
_cell_angle_gamma   91.18758100
_symmetry_Int_Tables_number   1
_chemical_formula_structural   ZnH16C21S3N3O4
_chemical_formula_sum   'Zn2 H32 C42 S6 N6 O8'
_cell_volume   3015.78641117
_cell_formula_units_Z   2
loop_
 _symmetry_equiv_pos_site_id
 _symmetry_equiv_pos_as_xyz
  1  'x, y, z'
loop_
 _atom_site_type_symbol
 _atom_site_label
 _atom_site_symmetry_multiplicity
 _atom_site_fract_x
 _atom_site_fract_y
 _atom_site_fract_z
 _atom_site_occupancy
  Zn  Zn1  1  0.37497200  0.50030500  0.50197200  1
  Zn  Zn2  1  0.62894700  0.47752800  0.49504000  1
  H  H1  1  0.32725400  0.47378700  0.85706800  1
  H  H2  1  0.67704400  0.47685400  0.14015800  1
  H  H3  1  0.67567900  0.51390000  0.70760600  1
  H  H4  1  0.32787000  0.49871600  0.28908300  1
  H  H5  1  0.64083300  0.15563900  0.48139000  1
  H  H6  1  0.36186800  0.82227900  0.51253800  1
  H  H7  1  0.73002900  0.99718000  0.47266800  1
  H  H8  1  0.27241100  0.98142000  0.52248800  1
  H  H9  1  0.18582400  0.39788400  0.43407800  1
  H  H10  1  0.81811800  0.57863000  0.56360200  1
  H  H11  1  0.20839200  0.62914400  0.58247700  1
  H  H12  1  0.79564100  0.34781800  0.41484100  1
  H  H13  1  0.00221500  0.33740800  0.40192600  1
  H  H14  1  0.00204300  0.63751700  0.59682400  1
  H  H15  1  0.14248300  0.60830900  0.71411000  1
  H  H16  1  0.28783300  0.64431600  0.72413600  1
  H  H17  1  0.19727700  0.60070200  0.79821100  1
  H  H18  1  0.83897200  0.62975500  0.29868200  1
  H  H19  1  0.69649900  0.64888200  0.27580700  1
  H  H20  1  0.80717700  0.62339500  0.20895700  1
  H  H21  1  0.78767800  0.70627900  0.86620600  1
  H  H22  1  0.64254800  0.69128100  0.84591000  1
  H  H23  1  0.75491800  0.68829100  0.77739700  1
  H  H24  1  0.19627400  0.66855300  0.13092000  1
  H  H25  1  0.33545300  0.67242200  0.16230700  1
  H  H26  1  0.21269700  0.65145400  0.22221300  1
  H  H27  1  0.17607000  0.23168100  0.64988400  1
  H  H28  1  0.31947800  0.18897700  0.63796000  1
  H  H29  1  0.20275200  0.09685600  0.63970300  1
  H  H30  1  0.87363300  0.77170400  0.57815000  1
  H  H31  1  0.73682500  0.82672500  0.59458800  1
  H  H32  1  0.85461700  0.90446200  0.55778000  1
  C  C1  1  0.52748600  0.68871700  0.49628200  1
  C  C2  1  0.47631000  0.28921600  0.50077700  1
  C  C3  1  0.49676000  0.49031400  0.63392200  1
  C  C4  1  0.50713900  0.48736300  0.36303000  1
  C  C5  1  0.39720200  0.48204500  0.75375400  1
  C  C6  1  0.60653000  0.48086900  0.24290700  1
  C  C7  1  0.40409600  0.48411600  0.82427100  1
  C  C8  1  0.59932000  0.48150700  0.17240900  1
  C  C9  1  0.50628600  0.49554300  0.85324800  1
  C  C10  1  0.49720300  0.49016100  0.14315400  1
  C  C11  1  0.60409500  0.50648500  0.81014600  1
  C  C12  1  0.39927500  0.49661400  0.18669500  1
  C  C13  1  0.59791400  0.50407900  0.73955400  1
  C  C14  1  0.40606500  0.49494300  0.25724200  1
  C  C15  1  0.49552800  0.49204300  0.71010300  1
  C  C16  1  0.50845500  0.48759600  0.28673200  1
  C  C17  1  0.49798800  0.49098800  0.06713700  1
  C  C18  1  0.50631300  0.49639500  0.92888600  1
  C  C19  1  0.46253600  0.17665900  0.50176400  1
  C  C20  1  0.54077100  0.80143800  0.49458700  1
  C  C21  1  0.64911200  0.95825000  0.48155400  1
  C  C22  1  0.35344000  0.02008200  0.51334500  1
  C  C23  1  0.64508200  0.85302700  0.48390000  1
  C  C24  1  0.35822000  0.12540400  0.51363600  1
  C  C25  1  0.44393300  0.85896400  0.50363400  1
  C  C26  1  0.55880300  0.11904500  0.49074100  1
  C  C27  1  0.45005800  0.96425800  0.50266700  1
  C  C28  1  0.55238800  0.01386000  0.49150300  1
  C  C29  1  0.96294500  0.39101400  0.43796900  1
  C  C30  1  0.04106500  0.58504900  0.55998500  1
  C  C31  1  0.84675900  0.39667100  0.44545000  1
  C  C32  1  0.15720900  0.58032600  0.55190000  1
  C  C33  1  0.85945900  0.52530500  0.52825100  1
  C  C34  1  0.14449100  0.45151800  0.46923300  1
  C  C35  1  0.97591200  0.52178600  0.52162300  1
  C  C36  1  0.02804500  0.45475500  0.47602500  1
  C  C37  1  0.21802600  0.59106600  0.74208100  1
  C  C38  1  0.77482600  0.60621500  0.26273900  1
  C  C39  1  0.73014700  0.66716700  0.83171700  1
  C  C40  1  0.25018500  0.63610000  0.16940600  1
  C  C41  1  0.23183700  0.17472900  0.62353300  1
  C  C42  1  0.81428100  0.82734300  0.55908300  1
  S  S1  1  0.25921400  0.46061600  0.72387800  1
  S  S2  1  0.74566000  0.47028000  0.27222100  1
  S  S3  1  0.73970600  0.53013700  0.84260000  1
  S  S4  1  0.26046700  0.49939200  0.15604400  1
  S  S5  1  0.22643000  0.18825500  0.53089700  1
  S  S6  1  0.77826400  0.79102200  0.47306600  1
  N  N1  1  0.58904400  0.45209300  0.96124300  1
  N  N2  1  0.41541300  0.53527300  0.03462200  1
  N  N3  1  0.58521100  0.44999400  0.02938200  1
  N  N4  1  0.41896600  0.53716100  0.96650900  1
  N  N5  1  0.20703200  0.51393600  0.50711100  1
  N  N6  1  0.79689900  0.46371700  0.48983800  1
  O  O1  1  0.42460700  0.64920300  0.49930300  1
  O  O2  1  0.57922500  0.32864200  0.49765000  1
  O  O3  1  0.61692200  0.63147900  0.49456900  1
  O  O4  1  0.38703000  0.34640800  0.50238800  1
  O  O5  1  0.40226500  0.49945600  0.60367100  1
  O  O6  1  0.60158800  0.47862100  0.39335400  1
  O  O7  1  0.59457400  0.48119500  0.59863300  1
  O  O8  1  0.40944800  0.49680100  0.39839000  1
