# generated using pymatgen
data_Cu6H56C103O29
_symmetry_space_group_name_H-M   'P 1'
_cell_length_a   30.13350900
_cell_length_b   31.71949300
_cell_length_c   21.32902300
_cell_angle_alpha   90.00000000
_cell_angle_beta   134.94193200
_cell_angle_gamma   90.00000000
_symmetry_Int_Tables_number   1
_chemical_formula_structural   Cu6H56C103O29
_chemical_formula_sum   'Cu12 H112 C206 O58'
_cell_volume   14430.17544233
_cell_formula_units_Z   2
loop_
 _symmetry_equiv_pos_site_id
 _symmetry_equiv_pos_as_xyz
  1  'x, y, z'
loop_
 _atom_site_type_symbol
 _atom_site_label
 _atom_site_symmetry_multiplicity
 _atom_site_fract_x
 _atom_site_fract_y
 _atom_site_fract_z
 _atom_site_occupancy
  Cu  Cu1  1  0.49767500  0.50354600  0.42880700  1
  Cu  Cu2  1  0.99767500  0.00354600  0.42880700  1
  Cu  Cu3  1  0.49446100  0.50400700  0.54797800  1
  Cu  Cu4  1  0.99446100  0.00400700  0.54797800  1
  Cu  Cu5  1  0.43289900  0.00322200  0.42833600  1
  Cu  Cu6  1  0.93289900  0.50322200  0.42833600  1
  Cu  Cu7  1  0.55783100  0.00436400  0.55459600  1
  Cu  Cu8  1  0.05783100  0.50436400  0.55459600  1
  Cu  Cu9  1  0.99511200  0.54624000  0.99119900  1
  Cu  Cu10  1  0.99548800  0.46220900  0.99162500  1
  Cu  Cu11  1  0.49511200  0.04624000  0.99119900  1
  Cu  Cu12  1  0.49548800  0.96220900  0.99162500  1
  H  H1  1  0.41933600  0.72629300  0.48315800  1
  H  H2  1  0.39701900  0.28054900  0.44572600  1
  H  H3  1  0.91933600  0.22629300  0.48315800  1
  H  H4  1  0.89701900  0.78054900  0.44572600  1
  H  H5  1  0.39775500  0.77958600  0.35764100  1
  H  H6  1  0.39746700  0.22740000  0.33968400  1
  H  H7  1  0.89775500  0.27958600  0.35764100  1
  H  H8  1  0.89746700  0.72740000  0.33968400  1
  H  H9  1  0.52061200  0.77882100  0.61893600  1
  H  H10  1  0.49008700  0.22861300  0.59259300  1
  H  H11  1  0.02061200  0.27882100  0.61893600  1
  H  H12  1  0.99008700  0.72861300  0.59259300  1
  H  H13  1  0.60087800  0.72682700  0.62729300  1
  H  H14  1  0.58216600  0.28121200  0.63062100  1
  H  H15  1  0.10087800  0.22682700  0.62729300  1
  H  H16  1  0.08216600  0.78121200  0.63062100  1
  H  H17  1  0.57930000  0.78014400  0.50176500  1
  H  H18  1  0.58283200  0.22826800  0.52473800  1
  H  H19  1  0.07930000  0.28014400  0.50176500  1
  H  H20  1  0.08283200  0.72826800  0.52473800  1
  H  H21  1  0.47801000  0.72759700  0.36598400  1
  H  H22  1  0.48967500  0.28011900  0.37765500  1
  H  H23  1  0.97801000  0.22759700  0.36598400  1
  H  H24  1  0.98967500  0.78011900  0.37765500  1
  H  H25  1  0.29106000  0.45290800  0.35120300  1
  H  H26  1  0.28553400  0.57451800  0.30597600  1
  H  H27  1  0.79106000  0.95290800  0.35120400  1
  H  H28  1  0.78553400  0.07451800  0.30597600  1
  H  H29  1  0.78156300  0.53966500  0.87202400  1
  H  H30  1  0.28156300  0.03966500  0.87202400  1
  H  H31  1  0.70411900  0.57433400  0.70072400  1
  H  H32  1  0.70625700  0.46665600  0.79670400  1
  H  H33  1  0.20411900  0.07433400  0.70072400  1
  H  H34  1  0.20625700  0.96665600  0.79670400  1
  H  H35  1  0.78434600  0.53899100  0.68947600  1
  H  H36  1  0.78594800  0.43116600  0.78442900  1
  H  H37  1  0.28434600  0.03899100  0.68947600  1
  H  H38  1  0.28594800  0.93116600  0.78442900  1
  H  H39  1  0.08531900  0.46332900  0.29219100  1
  H  H40  1  0.58531900  0.96332900  0.29219100  1
  H  H41  1  0.59434900  0.03489200  0.37949200  1
  H  H42  1  0.48823900  0.93267500  0.27299700  1
  H  H43  1  0.09434900  0.53489200  0.37949200  1
  H  H44  1  0.98823900  0.43267500  0.27299700  1
  H  H45  1  0.00681600  0.57631900  0.21470700  1
  H  H46  1  0.90076600  0.47402800  0.10752200  1
  H  H47  1  0.50681600  0.07631900  0.21470600  1
  H  H48  1  0.40076600  0.97402800  0.10752200  1
  H  H49  1  0.40961000  0.04554100  0.19463500  1
  H  H50  1  0.90961000  0.54554100  0.19463500  1
  H  H51  1  0.09549600  0.48325300  0.88108000  1
  H  H52  1  0.59549600  0.98325300  0.88108000  1
  H  H53  1  0.51818300  0.93376500  0.72553600  1
  H  H54  1  0.57114000  0.05318300  0.77843800  1
  H  H55  1  0.01818300  0.43376500  0.72553600  1
  H  H56  1  0.07114000  0.55318300  0.77843800  1
  H  H57  1  0.91525300  0.45442600  0.70033800  1
  H  H58  1  0.96815900  0.57391800  0.75265900  1
  H  H59  1  0.41525300  0.95442600  0.70033800  1
  H  H60  1  0.46815900  0.07391800  0.75265900  1
  H  H61  1  0.39071900  0.02433100  0.59785200  1
  H  H62  1  0.89071900  0.52433100  0.59785200  1
  H  H63  1  0.31492000  0.48018800  0.05897000  1
  H  H64  1  0.36505200  0.53120200  0.04024600  1
  H  H65  1  0.39914500  0.59992400  0.11506200  1
  H  H66  1  0.38312200  0.61714900  0.21023900  1
  H  H67  1  0.33414600  0.56695000  0.23122300  1
  H  H68  1  0.81492000  0.98018800  0.05897000  1
  H  H69  1  0.86505200  0.03120200  0.04024600  1
  H  H70  1  0.89914500  0.09992400  0.11506200  1
  H  H71  1  0.88312200  0.11714900  0.21023900  1
  H  H72  1  0.83414600  0.06695000  0.23122300  1
  H  H73  1  0.68084500  0.41611200  0.46647500  1
  H  H74  1  0.63929500  0.34477400  0.41963400  1
  H  H75  1  0.61423500  0.30593700  0.49111000  1
  H  H76  1  0.62969900  0.33970300  0.60904800  1
  H  H77  1  0.66799000  0.41129900  0.65423300  1
  H  H78  1  0.18084500  0.91611200  0.46647500  1
  H  H79  1  0.13929500  0.84477400  0.41963400  1
  H  H80  1  0.11423500  0.80593700  0.49111000  1
  H  H81  1  0.12969900  0.83970300  0.60904800  1
  H  H82  1  0.16799000  0.91129900  0.65423300  1
  H  H83  1  0.22510400  0.56873900  0.44148400  1
  H  H84  1  0.25081300  0.53750400  0.56869200  1
  H  H85  1  0.26014900  0.46059000  0.58883500  1
  H  H86  1  0.24204400  0.41489200  0.47942000  1
  H  H87  1  0.21450000  0.44570500  0.35094600  1
  H  H88  1  0.72510400  0.06873900  0.44148400  1
  H  H89  1  0.75081300  0.03750400  0.56869200  1
  H  H90  1  0.76014900  0.96059000  0.58883500  1
  H  H91  1  0.74204400  0.91489200  0.47942000  1
  H  H92  1  0.71450000  0.94570500  0.35094600  1
  H  H93  1  0.27445800  0.36311000  0.18042000  1
  H  H94  1  0.30385900  0.29754700  0.26372700  1
  H  H95  1  0.26718500  0.28429300  0.33468700  1
  H  H96  1  0.19988100  0.33625300  0.32050700  1
  H  H97  1  0.16933900  0.40133100  0.23528200  1
  H  H98  1  0.21242000  0.61777400  0.02173400  1
  H  H99  1  0.21809300  0.69470800  0.03441100  1
  H  H100  1  0.20874000  0.72990500  0.12736200  1
  H  H101  1  0.19209800  0.68778900  0.20607900  1
  H  H102  1  0.18470000  0.61109400  0.19212200  1
  H  H103  1  0.77445800  0.86311000  0.18042000  1
  H  H104  1  0.80385800  0.79754700  0.26372700  1
  H  H105  1  0.76718500  0.78429300  0.33468700  1
  H  H106  1  0.69988100  0.83625300  0.32050700  1
  H  H107  1  0.66933900  0.90133100  0.23528200  1
  H  H108  1  0.71242000  0.11777400  0.02173400  1
  H  H109  1  0.71809300  0.19470800  0.03441100  1
  H  H110  1  0.70874000  0.22990500  0.12736200  1
  H  H111  1  0.69209800  0.18778900  0.20607900  1
  H  H112  1  0.68470000  0.11109400  0.19212200  1
  C  C1  1  0.37741400  0.50580400  0.36669100  1
  C  C2  1  0.87741400  0.00580400  0.36669100  1
  C  C3  1  0.49843200  0.58353000  0.49019700  1
  C  C4  1  0.49301600  0.42403100  0.48587300  1
  C  C5  1  0.99843200  0.08353000  0.49019700  1
  C  C6  1  0.99301600  0.92403100  0.48587300  1
  C  C7  1  0.61467600  0.50207700  0.60979200  1
  C  C8  1  0.11467600  0.00207700  0.60979200  1
  C  C9  1  0.44381500  0.76698000  0.41876800  1
  C  C10  1  0.43937400  0.24024500  0.40562400  1
  C  C11  1  0.94381500  0.26698000  0.41876800  1
  C  C12  1  0.93937400  0.74024500  0.40562400  1
  C  C13  1  0.45560500  0.73915100  0.48739100  1
  C  C14  1  0.43907700  0.26804400  0.46347900  1
  C  C15  1  0.95560500  0.23915100  0.48739100  1
  C  C16  1  0.93907700  0.76804400  0.46347900  1
  C  C17  1  0.49908500  0.62875700  0.49082200  1
  C  C18  1  0.49102500  0.37881800  0.48433100  1
  C  C19  1  0.99908500  0.12875700  0.49082200  1
  C  C20  1  0.99102500  0.87881800  0.48433100  1
  C  C21  1  0.49830500  0.87766600  0.49339300  1
  C  C22  1  0.49222900  0.12990500  0.48859800  1
  C  C23  1  0.99830500  0.37766600  0.49339300  1
  C  C24  1  0.99222900  0.62990500  0.48859800  1
  C  C25  1  0.48766800  0.73986000  0.42334000  1
  C  C26  1  0.48976400  0.26778000  0.42638500  1
  C  C27  1  0.98766800  0.23986000  0.42334000  1
  C  C28  1  0.98976400  0.76778000  0.42638500  1
  C  C29  1  0.49945600  0.71284400  0.49197800  1
  C  C30  1  0.48947000  0.29473600  0.48422900  1
  C  C31  1  0.99945600  0.21284400  0.49197800  1
  C  C32  1  0.98947000  0.79473600  0.48422900  1
  C  C33  1  0.54303300  0.76728600  0.49753500  1
  C  C34  1  0.54065000  0.24071400  0.50674100  1
  C  C35  1  0.04303300  0.26728600  0.49753500  1
  C  C36  1  0.04065000  0.74071400  0.50674100  1
  C  C37  1  0.49917300  0.79358200  0.49294900  1
  C  C38  1  0.49029000  0.21398600  0.48598700  1
  C  C39  1  0.99917300  0.29358200  0.49294900  1
  C  C40  1  0.99029000  0.71398600  0.48598700  1
  C  C41  1  0.55482300  0.73943800  0.56616800  1
  C  C42  1  0.54032900  0.26844800  0.56455500  1
  C  C43  1  0.05482300  0.23943800  0.56616800  1
  C  C44  1  0.04032900  0.76844800  0.56455500  1
  C  C45  1  0.51096100  0.76656300  0.56158300  1
  C  C46  1  0.48996600  0.24092900  0.54381800  1
  C  C47  1  0.01096100  0.26656300  0.56158300  1
  C  C48  1  0.98996600  0.74092900  0.54381800  1
  C  C49  1  0.49938400  0.66673900  0.49135500  1
  C  C50  1  0.48981300  0.34084300  0.48378300  1
  C  C51  1  0.99938400  0.16673900  0.49135500  1
  C  C52  1  0.98981300  0.84084300  0.48378300  1
  C  C53  1  0.49880700  0.83968700  0.49332500  1
  C  C54  1  0.49126500  0.16788300  0.48740300  1
  C  C55  1  0.99880700  0.33968700  0.49332500  1
  C  C56  1  0.99126500  0.66788300  0.48740300  1
  C  C57  1  0.26911500  0.47664300  0.29815700  1
  C  C58  1  0.26666500  0.54350500  0.27239300  1
  C  C59  1  0.76911500  0.97664300  0.29815700  1
  C  C60  1  0.76666500  0.04350500  0.27239300  1
  C  C61  1  0.22737600  0.51395500  0.27339300  1
  C  C62  1  0.72737600  0.01395500  0.27339300  1
  C  C63  1  0.18551000  0.50458400  0.17606300  1
  C  C64  1  0.68551000  0.00458400  0.17606300  1
  C  C65  1  0.22713000  0.46784000  0.19982200  1
  C  C66  1  0.22426600  0.53367100  0.17443900  1
  C  C67  1  0.72713000  0.96784000  0.19982200  1
  C  C68  1  0.72426600  0.03367100  0.17443900  1
  C  C69  1  0.26632700  0.49708600  0.19848900  1
  C  C70  1  0.76632700  0.99708600  0.19848900  1
  C  C71  1  0.30752500  0.50609000  0.29560600  1
  C  C72  1  0.80752500  0.00609000  0.29560600  1
  C  C73  1  0.72336300  0.54186100  0.72037800  1
  C  C74  1  0.72435100  0.48308500  0.77258900  1
  C  C75  1  0.22336300  0.04186100  0.72037800  1
  C  C76  1  0.22435100  0.98308500  0.77258900  1
  C  C77  1  0.76418100  0.52290700  0.81249300  1
  C  C78  1  0.26418100  0.02290700  0.81249300  1
  C  C79  1  0.80534400  0.50363500  0.80370200  1
  C  C80  1  0.30534400  0.00363500  0.80370200  1
  C  C81  1  0.76567600  0.52261000  0.71281000  1
  C  C82  1  0.76697200  0.46371600  0.76524700  1
  C  C83  1  0.26567600  0.02261000  0.71281000  1
  C  C84  1  0.26697200  0.96371600  0.76524700  1
  C  C85  1  0.72615600  0.48292300  0.67402000  1
  C  C86  1  0.22615600  0.98292300  0.67402000  1
  C  C87  1  0.68442800  0.50207400  0.68135000  1
  C  C88  1  0.18442800  0.00207400  0.68135100  1
  C  C89  1  0.49646800  0.00405700  0.37227700  1
  C  C90  1  0.99646800  0.50405700  0.37227700  1
  C  C91  1  0.49747400  0.92289300  0.49312300  1
  C  C92  1  0.49323000  0.08467600  0.48968800  1
  C  C93  1  0.99747400  0.42289300  0.49312300  1
  C  C94  1  0.99323000  0.58467600  0.48968800  1
  C  C95  1  0.49428400  0.00362300  0.61066100  1
  C  C96  1  0.99428400  0.50362300  0.61066100  1
  C  C97  1  0.99705600  0.50458600  0.11339000  1
  C  C98  1  0.49705600  0.00458600  0.11339000  1
  C  C99  1  0.11567300  0.50441300  0.10891300  1
  C  C100  1  0.61567300  0.00441300  0.10891300  1
  C  C101  1  0.99282200  0.50387300  0.86871100  1
  C  C102  1  0.49282200  0.00387300  0.86871100  1
  C  C103  1  0.87500700  0.50398300  0.87334300  1
  C  C104  1  0.37500700  0.00398300  0.87334300  1
  C  C105  1  0.55038400  0.02104300  0.31703200  1
  C  C106  1  0.49244500  0.96522800  0.25871800  1
  C  C107  1  0.05038400  0.52104300  0.31703200  1
  C  C108  1  0.99244500  0.46522800  0.25871800  1
  C  C109  1  0.04550900  0.48199600  0.27105300  1
  C  C110  1  0.54550900  0.98199600  0.27105300  1
  C  C111  1  0.99767800  0.50457800  0.18363700  1
  C  C112  1  0.49767800  0.00457800  0.18363700  1
  C  C113  1  0.00255200  0.54363900  0.22841600  1
  C  C114  1  0.94466500  0.48780900  0.17019200  1
  C  C115  1  0.50255200  0.04363900  0.22841600  1
  C  C116  1  0.44466500  0.98780900  0.17019200  1
  C  C117  1  0.44952700  0.02686700  0.21607800  1
  C  C118  1  0.94952700  0.52686700  0.21607800  1
  C  C119  1  0.49730900  0.00428100  0.30348800  1
  C  C120  1  0.99730900  0.50428100  0.30348800  1
  C  C121  1  0.50686900  0.96553800  0.73274100  1
  C  C122  1  0.53574400  0.03076400  0.76151100  1
  C  C123  1  0.00686900  0.46553800  0.73274100  1
  C  C124  1  0.03574400  0.53076400  0.76151100  1
  C  C125  1  0.04909300  0.49257400  0.81585600  1
  C  C126  1  0.54909300  0.99257400  0.81585600  1
  C  C127  1  0.99290600  0.50387700  0.79916100  1
  C  C128  1  0.49290600  0.00387700  0.79916100  1
  C  C129  1  0.95062900  0.47682800  0.71716300  1
  C  C130  1  0.97957300  0.54205000  0.74597900  1
  C  C131  1  0.45062900  0.97682800  0.71716300  1
  C  C132  1  0.47957300  0.04205000  0.74597900  1
  C  C133  1  0.43728200  0.01497600  0.66279500  1
  C  C134  1  0.93728200  0.51497600  0.66279500  1
  C  C135  1  0.49349300  0.00370400  0.67951500  1
  C  C136  1  0.99349300  0.50370400  0.67951500  1
  C  C137  1  0.28936600  0.48764600  0.15612200  1
  C  C138  1  0.31993200  0.51948500  0.14605100  1
  C  C139  1  0.32968200  0.51004800  0.09310100  1
  C  C140  1  0.35793100  0.53886300  0.08200400  1
  C  C141  1  0.37699800  0.57736200  0.12381300  1
  C  C142  1  0.36794200  0.58699200  0.17701500  1
  C  C143  1  0.33970900  0.55829500  0.18832100  1
  C  C144  1  0.78936600  0.98764600  0.15612200  1
  C  C145  1  0.81993200  0.01948500  0.14605100  1
  C  C146  1  0.82968200  0.01004800  0.09310100  1
  C  C147  1  0.85793100  0.03886300  0.08200400  1
  C  C148  1  0.87699800  0.07736200  0.12381300  1
  C  C149  1  0.86794200  0.08699200  0.17701500  1
  C  C150  1  0.83971000  0.05829500  0.18832100  1
  C  C151  1  0.70588900  0.46204700  0.59419300  1
  C  C152  1  0.67865300  0.41925800  0.56503400  1
  C  C153  1  0.66941800  0.40002100  0.49823200  1
  C  C154  1  0.64608300  0.35955600  0.47156200  1
  C  C155  1  0.63205800  0.33777900  0.51155600  1
  C  C156  1  0.64070900  0.35671200  0.57758100  1
  C  C157  1  0.66314200  0.39738000  0.60361400  1
  C  C158  1  0.20588900  0.96204700  0.59419300  1
  C  C159  1  0.17865300  0.91925800  0.56503400  1
  C  C160  1  0.16941800  0.90002100  0.49823200  1
  C  C161  1  0.14608300  0.85955600  0.47156200  1
  C  C162  1  0.13205800  0.83777900  0.51155600  1
  C  C163  1  0.14070900  0.85671200  0.57758100  1
  C  C164  1  0.16314200  0.89738000  0.60361400  1
  C  C165  1  0.20320200  0.52905100  0.31151000  1
  C  C166  1  0.22032100  0.50943200  0.38873400  1
  C  C167  1  0.22895700  0.53486800  0.44929000  1
  C  C168  1  0.24361500  0.51738100  0.52125100  1
  C  C169  1  0.24891000  0.47431400  0.53261500  1
  C  C170  1  0.23905600  0.44875000  0.47154500  1
  C  C171  1  0.22456900  0.46623400  0.39971400  1
  C  C172  1  0.70320200  0.02905100  0.31151000  1
  C  C173  1  0.72032100  0.00943200  0.38873400  1
  C  C174  1  0.72895700  0.03486800  0.44929000  1
  C  C175  1  0.74361500  0.01738100  0.52125100  1
  C  C176  1  0.74891000  0.97431400  0.53261500  1
  C  C177  1  0.73905700  0.94875000  0.47154500  1
  C  C178  1  0.72456900  0.96623400  0.39971400  1
  C  C179  1  0.20398500  0.42566700  0.15509600  1
  C  C180  1  0.22201500  0.38698000  0.20567100  1
  C  C181  1  0.25831500  0.35733100  0.21157200  1
  C  C182  1  0.27485400  0.32056800  0.25834900  1
  C  C183  1  0.25434400  0.31315500  0.29818200  1
  C  C184  1  0.21682000  0.34233900  0.29051300  1
  C  C185  1  0.20041000  0.37911600  0.24385300  1
  C  C186  1  0.19595100  0.56287600  0.09869000  1
  C  C187  1  0.20026400  0.60897000  0.10842600  1
  C  C188  1  0.20794200  0.63287700  0.06247800  1
  C  C189  1  0.21137800  0.67620100  0.06973000  1
  C  C190  1  0.20622500  0.69592800  0.12188700  1
  C  C191  1  0.19715400  0.67230600  0.16626500  1
  C  C192  1  0.19391400  0.62896500  0.15931500  1
  C  C193  1  0.70398600  0.92566700  0.15509600  1
  C  C194  1  0.72201500  0.88698000  0.20567100  1
  C  C195  1  0.75831500  0.85733100  0.21157200  1
  C  C196  1  0.77485400  0.82056800  0.25834900  1
  C  C197  1  0.75434400  0.81315500  0.29818200  1
  C  C198  1  0.71682000  0.84233900  0.29051300  1
  C  C199  1  0.70041000  0.87911600  0.24385300  1
  C  C200  1  0.69595100  0.06287600  0.09869000  1
  C  C201  1  0.70026400  0.10897000  0.10842600  1
  C  C202  1  0.70794200  0.13287700  0.06247800  1
  C  C203  1  0.71137800  0.17620100  0.06973000  1
  C  C204  1  0.70622500  0.19592800  0.12188800  1
  C  C205  1  0.69715400  0.17230600  0.16626500  1
  C  C206  1  0.69391400  0.12896500  0.15931500  1
  O  O1  1  0.40774800  0.49306700  0.34643100  1
  O  O2  1  0.90774800  0.99306700  0.34643100  1
  O  O3  1  0.40574900  0.51711100  0.44747000  1
  O  O4  1  0.90574900  0.01711100  0.44747000  1
  O  O5  1  0.48175600  0.56392000  0.42152200  1
  O  O6  1  0.51300600  0.44322900  0.45458000  1
  O  O7  1  0.98175600  0.06392000  0.42152200  1
  O  O8  1  0.01300600  0.94322900  0.45458000  1
  O  O9  1  0.51420600  0.56380100  0.55814800  1
  O  O10  1  0.47512400  0.44415700  0.51916600  1
  O  O11  1  0.01420600  0.06380100  0.55814800  1
  O  O12  1  0.97512400  0.94415700  0.51916600  1
  O  O13  1  0.58711800  0.51415100  0.52982700  1
  O  O14  1  0.08711800  0.01415100  0.52982700  1
  O  O15  1  0.58367800  0.49084400  0.62986900  1
  O  O16  1  0.08367800  0.99084400  0.62986900  1
  O  O17  1  0.44198900  0.00491200  0.34633800  1
  O  O18  1  0.94198900  0.50491200  0.34633800  1
  O  O19  1  0.55018300  0.00304800  0.45573400  1
  O  O20  1  0.05018300  0.50304800  0.45573400  1
  O  O21  1  0.44305600  0.94204800  0.43617300  1
  O  O22  1  0.43966000  0.06459200  0.43240500  1
  O  O23  1  0.94305600  0.44204800  0.43617300  1
  O  O24  1  0.93966000  0.56459200  0.43240500  1
  O  O25  1  0.55112000  0.94297100  0.54966000  1
  O  O26  1  0.54762400  0.06552400  0.54759600  1
  O  O27  1  0.05112000  0.44297100  0.54966000  1
  O  O28  1  0.04762400  0.56552400  0.54759600  1
  O  O29  1  0.44059300  0.00518900  0.52721700  1
  O  O30  1  0.94059300  0.50518900  0.52721700  1
  O  O31  1  0.54870900  0.00204100  0.63652900  1
  O  O32  1  0.04870900  0.50204100  0.63652900  1
  O  O33  1  0.99933100  0.54092000  0.08652100  1
  O  O34  1  0.99913500  0.46822400  0.08632400  1
  O  O35  1  0.49933100  0.04092000  0.08652100  1
  O  O36  1  0.49913500  0.96822400  0.08632400  1
  O  O37  1  0.08632300  0.54073600  0.08297300  1
  O  O38  1  0.08654100  0.46800600  0.07849900  1
  O  O39  1  0.58632300  0.04073600  0.08297300  1
  O  O40  1  0.58654100  0.96800600  0.07849900  1
  O  O41  1  0.99564500  0.54024400  0.90060200  1
  O  O42  1  0.99651900  0.46754000  0.90144600  1
  O  O43  1  0.49564500  0.04024400  0.90060200  1
  O  O44  1  0.49651900  0.96754000  0.90144600  1
  O  O45  1  0.90405400  0.54036400  0.90469100  1
  O  O46  1  0.90432000  0.46775400  0.89937900  1
  O  O47  1  0.40405400  0.04036400  0.90469100  1
  O  O48  1  0.40432000  0.96775400  0.89937900  1
  O  O49  1  0.28240700  0.45213300  0.12854700  1
  O  O50  1  0.78240700  0.95213300  0.12854700  1
  O  O51  1  0.71519800  0.48064700  0.55434200  1
  O  O52  1  0.21519800  0.98064700  0.55434200  1
  O  O53  1  0.17257000  0.56148500  0.28201800  1
  O  O54  1  0.67257000  0.06148500  0.28201800  1
  O  O55  1  0.17256200  0.42325800  0.07610500  1
  O  O56  1  0.17106200  0.54773400  0.02757300  1
  O  O57  1  0.67256300  0.92325800  0.07610500  1
  O  O58  1  0.67106200  0.04773400  0.02757300  1
