data_DB0-m3_o21_o1510_f0_fsc.sym.11_repeat
_audit_creation_date              2024-02-20
_audit_creation_method            'Materials Studio'
_symmetry_space_group_name_H-M    'P1'
_symmetry_Int_Tables_number       1
_symmetry_cell_setting            triclinic
loop_
_symmetry_equiv_pos_as_xyz
  x,y,z
_cell_length_a                    12.4593
_cell_length_b                    8.5482
_cell_length_c                    19.3795
_cell_angle_alpha                 90.0000
_cell_angle_beta                  96.2948
_cell_angle_gamma                 90.0000
loop_
_atom_site_label
_atom_site_type_symbol
_atom_site_fract_x
_atom_site_fract_y
_atom_site_fract_z
_atom_site_U_iso_or_equiv
_atom_site_adp_type
_atom_site_occupancy
H1     H     0.04893   0.00054   0.55077   0.00000  Uiso   1.00
H2     H     0.95247   0.99983   0.44953   0.00000  Uiso   1.00
C1     C     0.01844   0.13908   0.63722   0.00000  Uiso   1.00
C2     C     0.98181   0.86109   0.36293   0.00000  Uiso   1.00
C3     C     0.97503   0.14039   0.36222   0.00000  Uiso   1.00
C4     C     0.02567   0.85977   0.63786   0.00000  Uiso   1.00
C5     C     0.00332   0.13919   0.70681   0.00000  Uiso   1.00
C6     C     0.99589   0.86071   0.29322   0.00000  Uiso   1.00
C7     C     0.99009   0.14136   0.29260   0.00000  Uiso   1.00
C8     C     0.01049   0.85861   0.70742   0.00000  Uiso   1.00
H3     H     0.99472   0.24876   0.73350   0.00000  Uiso   1.00
H4     H     0.00565   0.75120   0.26670   0.00000  Uiso   1.00
H5     H     0.99443   0.25137   0.26554   0.00000  Uiso   1.00
H6     H     0.00444   0.74867   0.73430   0.00000  Uiso   1.00
C9     C     0.00423   0.99878   0.74281   0.00000  Uiso   1.00
C10    C     0.99556   0.00097   0.25719   0.00000  Uiso   1.00
O1     O     0.10648   0.66753   0.57055   0.00000  Uiso   1.00
O2     O     0.89406   0.33266   0.42954   0.00000  Uiso   1.00
O3     O     0.90028   0.67151   0.43005   0.00000  Uiso   1.00
O4     O     0.10021   0.32867   0.57004   0.00000  Uiso   1.00
O5     O     0.92207   0.66461   0.57409   0.00000  Uiso   1.00
O6     O     0.07844   0.33565   0.42597   0.00000  Uiso   1.00
O7     O     0.08448   0.66209   0.42624   0.00000  Uiso   1.00
O8     O     0.91603   0.33818   0.57387   0.00000  Uiso   1.00
C11    C     0.03536   0.00002   0.60462   0.00000  Uiso   1.00
C12    C     0.96552   0.00024   0.39559   0.00000  Uiso   1.00
C13    C     0.90838   0.95465   0.06739   0.00000  Uiso   1.00
C14    C     0.09307   0.96387   0.93285   0.00000  Uiso   1.00
C15    C     0.90737   0.03701   0.91851   0.00000  Uiso   1.00
C16    C     0.08961   0.04831   0.08106   0.00000  Uiso   1.00
H7     H     0.83750   0.91473   0.03511   0.00000  Uiso   1.00
H8     H     0.16576   0.93220   0.96540   0.00000  Uiso   1.00
H9     H     0.83394   0.06928   0.93981   0.00000  Uiso   1.00
H10    H     0.16097   0.08863   0.05945   0.00000  Uiso   1.00
C17    C     0.90787   0.95288   0.13862   0.00000  Uiso   1.00
C18    C     0.09383   0.96142   0.86165   0.00000  Uiso   1.00
C19    C     0.90825   0.03671   0.84719   0.00000  Uiso   1.00
C20    C     0.08891   0.04877   0.15238   0.00000  Uiso   1.00
C21    C     0.99804   0.00040   0.18159   0.00000  Uiso   1.00
C22    C     0.00153   0.99843   0.81838   0.00000  Uiso   1.00
Zn1    Zn    0.88078   0.50275   0.50027   0.00000  Uiso   1.00
Zn2    Zn    0.11973   0.49746   0.49982   0.00000  Uiso   1.00
C23    C     0.01882   0.71791   0.59536   0.00000  Uiso   1.00
C24    C     0.98173   0.28235   0.40468   0.00000  Uiso   1.00
C25    C     0.98846   0.71901   0.40526   0.00000  Uiso   1.00
C26    C     0.01200   0.28122   0.59487   0.00000  Uiso   1.00
C27    C     0.99923   0.00186   0.03797   0.00000  Uiso   1.00
C28    C     0.99990   0.00130   0.96192   0.00000  Uiso   1.00
N1     N     0.26074   0.49156   0.50085   0.00000  Uiso   1.00
N2     N     0.73976   0.50864   0.49922   0.00000  Uiso   1.00
C29    C     0.46848   0.45341   0.51610   0.00000  Uiso   1.00
C30    C     0.53203   0.54679   0.48394   0.00000  Uiso   1.00
C31    C     0.64702   0.52445   0.49298   0.00000  Uiso   1.00
C32    C     0.35349   0.47576   0.50708   0.00000  Uiso   1.00
N3     N     0.81256   0.90531   0.16731   0.00000  Uiso   1.00
H11    H     0.83085   0.80654   0.19798   0.00000  Uiso   1.00
H12    H     0.78981   0.99574   0.19888   0.00000  Uiso   1.00
N4     N     0.19133   0.92375   0.83327   0.00000  Uiso   1.00
H13    H     0.17797   0.82327   0.80298   0.00000  Uiso   1.00
H14    H     0.20960   0.01623   0.80135   0.00000  Uiso   1.00
N5     N     0.81167   0.07232   0.80370   0.00000  Uiso   1.00
H15    H     0.82593   0.17074   0.77421   0.00000  Uiso   1.00
H16    H     0.79453   0.97785   0.77014   0.00000  Uiso   1.00
N6     N     0.18336   0.09602   0.19541   0.00000  Uiso   1.00
H17    H     0.16403   0.19362   0.22390   0.00000  Uiso   1.00
H18    H     0.20553   0.00483   0.22990   0.00000  Uiso   1.00
N7     N     0.48625   0.66911   0.44010   0.00000  Uiso   1.00
H19    H     0.54968   0.72633   0.41962   0.00000  Uiso   1.00
H20    H     0.43790   0.61712   0.39896   0.00000  Uiso   1.00
N8     N     0.51425   0.33107   0.55994   0.00000  Uiso   1.00
H21    H     0.45082   0.27391   0.58044   0.00000  Uiso   1.00
H22    H     0.56264   0.38307   0.60105   0.00000  Uiso   1.00
