# Generated by REPEAT Assigner based on pymatgen
data_DB0-m3_o24_o25_f0_pcu.sym.126
_audit_creation_date              2022-05-24
_audit_creation_method            REPEAT_Assigner
_cell_length_a                    16.028662
_cell_length_b                    10.764971
_cell_length_c                    9.714446
_cell_angle_alpha                 90.008068
_cell_angle_beta                  89.992218
_cell_angle_gamma                 89.994192
_cell_volume                      1676.208932
_symmetry_space_group_name_H-M    P1
_symmetry_Int_Tables_number       1
loop_
    _symmetry_equiv_pos_site_id
    _symmetry_equiv_pos_as_xyz
    1  x,y,z
loop_
    _atom_site_type_symbol
    _atom_site_label
    _atom_site_fract_x
    _atom_site_fract_y
    _atom_site_fract_z
    _atom_type_partial_charge
    O   O1   0.500152  0.314716  0.620658  -0.698495
    O   O2   0.500477  0.684341  0.381559  -0.696698
    O   O3   0.500144  0.314183  0.382654  -0.708989
    O   O4   0.500486  0.684874  0.619562  -0.712111
    C   C1   0.500113  0.256818  0.501800  0.688199
    C   C2   0.500513  0.742239  0.500417  0.688513
    O   O5   0.376044  0.500073  0.619889  -0.709748
    O   O6   0.624587  0.498985  0.382329  -0.702442
    O   O7   0.375985  0.499538  0.381891  -0.720820
    O   O8   0.624645  0.499519  0.620325  -0.720956
    C   C3   0.337301  0.499908  0.500942  0.969481
    C   C4   0.663330  0.499149  0.501277  0.965348
    Zn  Zn1  0.500312  0.499892  0.657951  1.060882
    Zn  Zn2  0.500318  0.499165  0.344267  1.038761
    C   C5   0.973256  0.387711  0.541625  -0.330169
    C   C6   0.027390  0.611442  0.460627  -0.302878
    C   C7   0.028035  0.417030  0.419390  0.489005
    C   C8   0.972604  0.582133  0.582860  0.452921
    H   H1   0.950443  0.294080  0.570797  0.123114
    H   H2   0.050191  0.705085  0.431476  0.116114
    H   H3   0.950796  0.539089  0.267269  0.067233
    H   H4   0.049854  0.460056  0.734971  0.060227
    C   C9   0.247775  0.500518  0.501227  -0.306327
    C   C10  0.752858  0.498557  0.500998  -0.307217
    C   C11  0.027268  0.475514  0.628436  -0.072879
    C   C12  0.973371  0.523643  0.373811  -0.101751
    C   C13  0.081316  0.502183  0.503373  0.272779
    C   C14  0.919320  0.496969  0.498880  0.296899
    C   C15  0.172600  0.501198  0.501989  -0.136414
    C   C16  0.828033  0.497904  0.500248  -0.144062
    C   C17  0.500241  0.039341  0.629746  -0.051050
    C   C18  0.500374  0.959716  0.372468  -0.043715
    C   C19  0.567653  0.958835  0.565028  -0.067560
    C   C20  0.432962  0.040223  0.437186  -0.085671
    H   H5   0.623679  0.921908  0.618044  0.035102
    H   H6   0.376931  0.077146  0.384175  0.049349
    H   H7   0.500174  0.074681  0.736990  0.032352
    H   H8   0.500441  0.924376  0.265225  0.031170
    C   C21  0.500429  0.880338  0.500284  0.113075
    C   C22  0.500187  0.118720  0.501931  0.117219
    C   C23  0.433016  0.958569  0.564968  -0.040192
    C   C24  0.567599  0.040488  0.437247  -0.051818
    H   H9   0.377038  0.921415  0.617941  0.019642
    H   H10  0.623578  0.077641  0.384274  0.021649
    C   C25  0.484309  0.392713  0.048430  -0.025939
    C   C26  0.516322  0.606344  0.953787  -0.004020
    C   C27  0.554161  0.425874  0.952246  0.009316
    C   C28  0.446470  0.573183  0.049971  -0.010260
    H   H11  0.601096  0.361717  0.907711  0.069568
    H   H12  0.399535  0.637340  0.094506  0.071514
    H   H13  0.470304  0.299562  0.091306  0.083237
    H   H14  0.530327  0.699495  0.910911  0.079007
    N   N1   0.500149  0.500400  0.863849  0.115850
    N   N2   0.500482  0.498657  0.138368  0.148189
    C   C29  0.430290  0.467272  0.953020  -0.063706
    C   C30  0.570341  0.531785  0.049197  -0.084574
    H   H15  0.369222  0.439100  0.909422  0.093868
    H   H16  0.631408  0.559958  0.092795  0.095491
    N   N3   0.060741  0.325912  0.325348  -0.770311
    C   C31  0.101851  0.228130  0.379544  0.805748
    O   O9   0.119479  0.226126  0.501597  -0.562430
    C   C32  0.126512  0.122272  0.289565  -0.448600
    H   H17  0.040047  0.321715  0.225184  0.322591
    H   H18  0.069972  0.079864  0.243503  0.100769
    H   H19  0.159880  0.051641  0.351804  0.127979
    H   H20  0.168171  0.156229  0.206537  0.128430
    N   N4   0.939977  0.673268  0.676972  -0.752783
    C   C33  0.897514  0.770044  0.623037  0.857963
    O   O10  0.881041  0.772397  0.500554  -0.565065
    C   C34  0.869871  0.874666  0.712888  -0.684315
    H   H21  0.959130  0.675002  0.778040  0.320716
    H   H22  0.888965  0.858295  0.821058  0.162827
    H   H23  0.800962  0.882800  0.708025  0.209143
    H   H24  0.898364  0.962387  0.675851  0.172723
