# generated using pymatgen
data_ZnH18C33N3ClO4
_symmetry_space_group_name_H-M   'P 1'
_cell_length_a   13.27986900
_cell_length_b   13.32663800
_cell_length_c   16.25686400
_cell_angle_alpha   94.72640700
_cell_angle_beta   90.04601800
_cell_angle_gamma   90.61234300
_symmetry_Int_Tables_number   1
_chemical_formula_structural   ZnH18C33N3ClO4
_chemical_formula_sum   'Zn2 H36 C66 N6 Cl2 O8'
_cell_volume   2867.12358595
_cell_formula_units_Z   2
loop_
 _symmetry_equiv_pos_site_id
 _symmetry_equiv_pos_as_xyz
  1  'x, y, z'
loop_
 _atom_site_type_symbol
 _atom_site_label
 _atom_site_symmetry_multiplicity
 _atom_site_fract_x
 _atom_site_fract_y
 _atom_site_fract_z
 _atom_site_occupancy
  Zn  Zn1  1  0.51947000  0.89070300  0.49837100  1
  Zn  Zn2  1  0.48094200  0.11195000  0.51486200  1
  H  H1  1  0.69020600  0.12496800  0.02474100  1
  H  H2  1  0.31086500  0.87662900  0.98855700  1
  H  H3  1  0.00926500  0.02851100  0.72970500  1
  H  H4  1  0.99126900  0.97230500  0.28361300  1
  H  H5  1  0.96623800  0.07385100  0.96347500  1
  H  H6  1  0.03425800  0.92582100  0.04967000  1
  H  H7  1  0.40000400  0.90620800  0.10779100  1
  H  H8  1  0.60105800  0.09710600  0.90526400  1
  H  H9  1  0.16699100  0.99781700  0.33988200  1
  H  H10  1  0.83301600  0.99989400  0.67355200  1
  H  H11  1  0.83172100  0.97777900  0.34252300  1
  H  H12  1  0.16919600  0.02508500  0.67137800  1
  H  H13  1  0.55061300  0.10682300  0.28053500  1
  H  H14  1  0.45090800  0.89708300  0.73330200  1
  H  H15  1  0.61119400  0.13564100  0.14388300  1
  H  H16  1  0.39033500  0.86739100  0.86972800  1
  H  H17  1  0.46398600  0.93241600  0.24882200  1
  H  H18  1  0.53716900  0.07230400  0.76415800  1
  H  H19  1  0.23845000  0.44008700  0.50438100  1
  H  H20  1  0.69224200  0.48861100  0.42352500  1
  H  H21  1  0.31652200  0.57241500  0.59061600  1
  H  H22  1  0.73333100  0.38559100  0.53701100  1
  H  H23  1  0.76104800  0.56112300  0.50413500  1
  H  H24  1  0.30787300  0.47243700  0.41434200  1
  H  H25  1  0.26431100  0.62332100  0.50051800  1
  H  H26  1  0.67427000  0.47572500  0.61022900  1
  H  H27  1  0.62653600  0.24608000  0.54131300  1
  H  H28  1  0.37184900  0.76176500  0.49450400  1
  H  H29  1  0.28913800  0.27502700  0.36281400  1
  H  H30  1  0.01403900  0.16258700  0.45542900  1
  H  H31  1  0.08725100  0.17005100  0.59479000  1
  H  H32  1  0.25996800  0.23352500  0.61886500  1
  H  H33  1  0.70889400  0.69864800  0.34458600  1
  H  H34  1  0.98635900  0.82528900  0.43724100  1
  H  H35  1  0.91636900  0.83947900  0.57772400  1
  H  H36  1  0.74379500  0.78065800  0.60195400  1
  C  C1  1  0.81852900  0.03345200  0.22199300  1
  C  C2  1  0.18240200  0.96837800  0.79152100  1
  C  C3  1  0.75702100  0.07375200  0.16683200  1
  C  C4  1  0.24406200  0.92821100  0.84664400  1
  C  C5  1  0.80819600  0.07356800  0.09340600  1
  C  C6  1  0.19262800  0.92741000  0.91986600  1
  C  C7  1  0.90874900  0.01385800  0.18228700  1
  C  C8  1  0.09185300  0.98677000  0.83098900  1
  C  C9  1  0.76658500  0.09828800  0.02277300  1
  C  C10  1  0.23426400  0.90267100  0.99046400  1
  C  C11  1  0.80917200  0.07626600  0.93985500  1
  C  C12  1  0.19141800  0.92398600  0.07335600  1
  C  C13  1  0.75332600  0.06468000  0.86796400  1
  C  C14  1  0.24725000  0.93591400  0.14524400  1
  C  C15  1  0.81762500  0.03927200  0.80462200  1
  C  C16  1  0.18275300  0.96032800  0.20862900  1
  C  C17  1  0.91326000  0.03719700  0.83963700  1
  C  C18  1  0.08707900  0.96196100  0.17360600  1
  C  C19  1  0.00852800  0.01891700  0.79516700  1
  C  C20  1  0.99188700  0.98112300  0.21802800  1
  C  C21  1  0.34872800  0.92632400  0.15780100  1
  C  C22  1  0.65210500  0.07599000  0.85531400  1
  C  C23  1  0.38456200  0.94152000  0.23753500  1
  C  C24  1  0.61635900  0.06170700  0.77551600  1
  C  C25  1  0.32115400  0.96937800  0.30325700  1
  C  C26  1  0.67943700  0.03253500  0.70987500  1
  C  C27  1  0.21782400  0.97870700  0.28929000  1
  C  C28  1  0.78245700  0.02077100  0.72398800  1
  C  C29  1  0.78487800  0.01307800  0.29915700  1
  C  C30  1  0.21612100  0.98963400  0.71460900  1
  C  C31  1  0.68664600  0.03865400  0.31879400  1
  C  C32  1  0.31448000  0.96456100  0.69502700  1
  C  C33  1  0.62686300  0.08612300  0.26397500  1
  C  C34  1  0.37452700  0.91733100  0.74981200  1
  C  C35  1  0.66067500  0.10233300  0.18647900  1
  C  C36  1  0.34070900  0.90058200  0.82717300  1
  C  C37  1  0.36899900  0.98219500  0.38543200  1
  C  C38  1  0.63149100  0.02019500  0.62773200  1
  C  C39  1  0.64011800  0.02058400  0.39680000  1
  C  C40  1  0.36068800  0.98234300  0.61689300  1
  C  C41  1  0.55993200  0.28938600  0.53295800  1
  C  C42  1  0.43848100  0.71664800  0.49533200  1
  C  C43  1  0.38684300  0.30027300  0.50721400  1
  C  C44  1  0.61354100  0.69886200  0.48827800  1
  C  C45  1  0.39759000  0.40432900  0.50343800  1
  C  C46  1  0.60170200  0.59519900  0.49439700  1
  C  C47  1  0.49147200  0.44868600  0.51368300  1
  C  C48  1  0.50673400  0.55537100  0.50463500  1
  C  C49  1  0.57220400  0.39152800  0.52994200  1
  C  C50  1  0.42525500  0.61607800  0.50446300  1
  C  C51  1  0.31113400  0.46909700  0.48223700  1
  C  C52  1  0.68819200  0.52359600  0.48773200  1
  C  C53  1  0.32409300  0.57481500  0.52286300  1
  C  C54  1  0.67210000  0.44134700  0.54574300  1
  C  C55  1  0.28740100  0.25366200  0.49175200  1
  C  C56  1  0.24565800  0.25003100  0.41361900  1
  C  C57  1  0.14747000  0.21798800  0.40073200  1
  C  C58  1  0.09107400  0.18765200  0.46553100  1
  C  C59  1  0.13222600  0.19163600  0.54360900  1
  C  C60  1  0.22967600  0.22603300  0.55691500  1
  C  C61  1  0.71386400  0.74042000  0.47420700  1
  C  C62  1  0.75379900  0.73136300  0.39563300  1
  C  C63  1  0.85162900  0.76145600  0.38239900  1
  C  C64  1  0.90962000  0.80163900  0.44762000  1
  C  C65  1  0.87029800  0.80977900  0.52633100  1
  C  C66  1  0.77299500  0.77789200  0.53979200  1
  N  N1  1  0.90184600  0.03715400  0.10277400  1
  N  N2  1  0.09866800  0.96296400  0.91037400  1
  N  N3  1  0.90695900  0.06127000  0.92197600  1
  N  N4  1  0.09349900  0.93822300  0.09123300  1
  N  N5  1  0.46856500  0.24374700  0.52240800  1
  N  N6  1  0.53132100  0.75891700  0.49104000  1
  Cl  Cl1  1  0.09335500  0.21944800  0.30260500  1
  Cl  Cl2  1  0.90280200  0.74615200  0.28300600  1
  O  O1  1  0.38539500  0.07361300  0.42052100  1
  O  O2  1  0.61573800  0.92887300  0.59221000  1
  O  O3  1  0.41515800  0.90331600  0.40979700  1
  O  O4  1  0.58468300  0.09908700  0.60388600  1
  O  O5  1  0.62256300  0.92728700  0.41453200  1
  O  O6  1  0.37784800  0.07523100  0.59861600  1
  O  O7  1  0.59333100  0.09829000  0.43204900  1
  O  O8  1  0.40818500  0.90513300  0.58215000  1
