# Generated by REPEAT Assigner based on pymatgen
data_DB0-m2_o22_o25_f0_pcu.sym.17_sqe
_audit_creation_date              2022-05-24
_audit_creation_method            REPEAT_Assigner
_cell_length_a                    15.906496
_cell_length_b                    10.761471
_cell_length_c                    9.259113
_cell_angle_alpha                 89.933298
_cell_angle_beta                  90.032667
_cell_angle_gamma                 89.997258
_cell_volume                      1584.948637
_symmetry_space_group_name_H-M    P1
_symmetry_Int_Tables_number       1
loop_
    _symmetry_equiv_pos_site_id
    _symmetry_equiv_pos_as_xyz
    1  x,y,z
loop_
    _atom_site_type_symbol
    _atom_site_label
    _atom_site_fract_x
    _atom_site_fract_y
    _atom_site_fract_z
    _atom_type_partial_charge
    O   O1   0.510098  0.309602  0.624264  -0.610186
    O   O2   0.508323  0.308419  0.376787  -0.597938
    C   C1   0.505478  0.250326  0.501252  0.593054
    O   O3   0.384684  0.492830  0.624567  -0.647337
    O   O4   0.384237  0.493526  0.376407  -0.682627
    C   C2   0.345289  0.489547  0.500650  0.899865
    Cu  Cu1  0.506935  0.490289  0.643976  0.867028
    Cu  Cu2  0.506293  0.488885  0.354372  0.792689
    O   O5   0.508101  0.671045  0.621776  -0.603523
    O   O6   0.509253  0.669581  0.373862  -0.540164
    O   O7   0.628993  0.495636  0.622117  -0.618449
    O   O8   0.628538  0.492170  0.373695  -0.640422
    C   C3   0.504579  0.729475  0.496811  0.571670
    C   C4   0.667909  0.490388  0.497807  0.832034
    C   C5   0.978976  0.392189  0.567023  -0.254436
    C   C6   0.033905  0.394758  0.433686  0.062145
    H   H1   0.954340  0.308111  0.621919  0.091918
    H   H2   0.955445  0.492708  0.251464  0.095871
    C   C7   0.255082  0.491198  0.500952  -0.215454
    C   C8   0.758120  0.491655  0.497525  -0.177505
    C   C9   0.033456  0.492975  0.634913  -0.156842
    C   C10  0.087359  0.493809  0.500821  0.565327
    C   C11  0.978633  0.593073  0.566465  -0.135457
    C   C12  0.925848  0.492523  0.498332  0.699445
    C   C13  0.034068  0.593900  0.432367  -0.129214
    C   C14  0.979572  0.493417  0.363850  -0.276492
    C   C15  0.179331  0.492471  0.500970  -0.348130
    C   C16  0.833874  0.492272  0.497708  -0.378317
    H   H3   0.058933  0.677818  0.377434  0.063307
    H   H4   0.953144  0.676154  0.622046  0.058387
    H   H5   0.057811  0.493571  0.747162  0.069298
    C   C17  0.568861  0.058170  0.605149  0.018664
    H   H6   0.553791  0.078975  0.718627  -0.020407
    H   H7   0.630991  0.099999  0.580802  0.004543
    C   C18  0.574825  0.918263  0.586961  -0.068826
    H   H8   0.635361  0.894610  0.534370  0.009098
    H   H9   0.573633  0.875021  0.695664  0.018795
    H   H10  0.420717  0.893637  0.675684  0.054270
    C   C19  0.415256  0.059153  0.536623  0.184935
    C   C20  0.526691  0.064008  0.352271  -0.186614
    C   C21  0.503257  0.110519  0.502285  0.058083
    H   H11  0.487952  0.110593  0.269096  0.084294
    H   H12  0.593678  0.085528  0.330334  0.035099
    C   C22  0.502343  0.870461  0.494873  0.050195
    C   C23  0.420687  0.918548  0.560127  -0.160228
    C   C24  0.513647  0.924092  0.341994  0.272265
    H   H13  0.571818  0.883455  0.296136  -0.040908
    H   H14  0.378570  0.074489  0.437424  -0.072281
    H   H15  0.365870  0.872816  0.508707  0.019990
    C   C25  0.514488  0.613632  0.082475  -0.078762
    H   H16  0.567928  0.662430  0.134135  0.057193
    H   H17  0.454528  0.661383  0.103331  0.068185
    C   C26  0.529150  0.614521  0.920609  0.043756
    H   H18  0.487523  0.686946  0.874978  0.021877
    H   H19  0.595653  0.638135  0.897234  0.021408
    H   H20  0.638133  0.469963  0.102265  0.008420
    H   H21  0.632439  0.418659  0.868682  0.056541
    C   C27  0.578955  0.418993  0.080203  0.094218
    C   C28  0.431550  0.433159  0.076754  -0.117333
    N   N1   0.507702  0.487710  0.137628  0.207075
    H   H22  0.430915  0.331523  0.096839  0.018982
    H   H23  0.374594  0.474914  0.124538  0.083547
    N   N2   0.509012  0.493599  0.860453  0.136840
    C   C29  0.569806  0.404367  0.917743  -0.139759
    C   C30  0.426879  0.458318  0.915712  -0.080329
    H   H24  0.381219  0.534527  0.896706  0.033478
    H   H25  0.404228  0.373720  0.860491  0.097871
    H   H26  0.582884  0.325744  0.130594  0.000761
    H   H27  0.548967  0.308388  0.894216  0.048631
    C   C31  0.069656  0.281615  0.358003  0.162565
    C   C32  0.999116  0.199922  0.302373  -0.222291
    H   H28  0.959508  0.168280  0.393778  0.046235
    H   H29  0.960031  0.252692  0.224374  0.042268
    H   H30  0.026336  0.117742  0.247408  0.055887
    H   H31  0.109253  0.312110  0.266011  -0.024913
    H   H32  0.108725  0.227838  0.435153  -0.029092
    C   C33  0.359929  0.127862  0.647178  -0.036352
    C   C34  0.383698  0.116299  0.805431  -0.132104
    H   H33  0.379483  0.019122  0.842299  0.009299
    H   H34  0.446224  0.155951  0.827286  0.091954
    H   H35  0.337226  0.169680  0.869474  0.027359
    H   H36  0.354985  0.227504  0.618549  -0.009550
    H   H37  0.295530  0.089505  0.636282  0.025687
    C   C35  0.440149  0.897684  0.238387  -0.130875
    C   C36  0.468314  0.912177  0.082302  -0.300584
    H   H38  0.473462  0.011863  0.054086  0.054424
    H   H39  0.530168  0.868089  0.063514  0.072862
    H   H40  0.420769  0.868488  0.011144  0.114056
    H   H41  0.413671  0.804322  0.255325  0.030097
    H   H42  0.386636  0.961356  0.253420  0.059960
