# Generated by REPEAT Assigner based on pymatgen
data_DB0-m3_o2_o26_f0_pcu.sym.40
_audit_creation_date              2022-05-24
_audit_creation_method            REPEAT_Assigner
_cell_length_a                    14.010095
_cell_length_b                    15.201538
_cell_length_c                    17.446858
_cell_angle_alpha                 90.003041
_cell_angle_beta                  86.264856
_cell_angle_gamma                 90.004854
_cell_volume                      3707.851705
_symmetry_space_group_name_H-M    P1
_symmetry_Int_Tables_number       1
loop_
    _symmetry_equiv_pos_site_id
    _symmetry_equiv_pos_as_xyz
    1  x,y,z
loop_
    _atom_site_type_symbol
    _atom_site_label
    _atom_site_fract_x
    _atom_site_fract_y
    _atom_site_fract_z
    _atom_type_partial_charge
    O   O1   0.417255  0.601229  0.500829  -0.707294
    O   O2   0.581950  0.339123  0.497978  -0.689828
    O   O3   0.582071  0.601239  0.498786  -0.705502
    O   O4   0.417278  0.339111  0.501744  -0.690800
    C   C1   0.499664  0.642365  0.499789  0.750715
    C   C2   0.499613  0.297928  0.499858  0.763030
    O   O5   0.409779  0.470418  0.615727  -0.715966
    O   O6   0.589512  0.470412  0.383889  -0.717475
    O   O7   0.574541  0.469478  0.612730  -0.683533
    O   O8   0.424755  0.469349  0.386885  -0.682024
    C   C3   0.490310  0.471661  0.650266  0.843559
    C   C4   0.508984  0.471577  0.349346  0.843623
    Zn  Zn1  0.390987  0.470158  0.501544  1.071787
    Zn  Zn2  0.608308  0.470165  0.498071  1.071229
    C   C5   0.485212  0.473200  0.734739  -0.316786
    C   C6   0.514100  0.473108  0.264869  -0.315871
    C   C7   0.551080  0.518170  0.777321  0.151453
    C   C8   0.448225  0.518029  0.222265  0.152052
    C   C9   0.545999  0.508107  0.856521  -0.282576
    C   C10  0.453400  0.508015  0.143060  -0.281614
    C   C11  0.473042  0.460365  0.893892  0.291491
    C   C12  0.526431  0.460365  0.105702  0.291754
    C   C13  0.404417  0.422173  0.851866  -0.297814
    C   C14  0.595049  0.422213  0.147749  -0.297745
    C   C15  0.411499  0.427148  0.772960  0.013935
    C   C16  0.587889  0.427144  0.226660  0.012870
    C   C17  0.462079  0.456623  0.978184  -0.237774
    C   C18  0.537440  0.456676  0.021409  -0.238856
    H   H1   0.640310  0.393268  0.258572  0.097254
    H   H2   0.359087  0.393231  0.741059  0.096113
    H   H3   0.609111  0.451226  0.994541  0.136427
    H   H4   0.390422  0.451042  0.005058  0.136262
    H   H5   0.345938  0.386221  0.880645  0.130823
    H   H6   0.653586  0.386331  0.118983  0.130932
    H   H7   0.402735  0.541625  0.109515  0.141911
    H   H8   0.596670  0.541742  0.890051  0.142531
    C   C19  0.419736  0.875242  0.480098  -0.118676
    C   C20  0.582499  0.064983  0.479444  -0.106702
    H   H9   0.357073  0.908966  0.462248  0.097968
    H   H10  0.647871  0.031259  0.461066  0.094817
    C   C21  0.419468  0.784545  0.480802  -0.129056
    C   C22  0.582675  0.155678  0.480161  -0.137591
    H   H11  0.356353  0.750101  0.464649  0.115078
    H   H12  0.648298  0.190058  0.463551  0.115532
    C   C23  0.499656  0.738730  0.499797  -0.029605
    C   C24  0.499614  0.201528  0.499866  -0.045123
    C   C25  0.579828  0.784570  0.518812  -0.136717
    C   C26  0.416552  0.155663  0.519563  -0.131922
    H   H13  0.642950  0.750149  0.534957  0.119888
    H   H14  0.350925  0.190033  0.536170  0.112484
    C   C27  0.579527  0.875265  0.519553  -0.116676
    C   C28  0.416731  0.064965  0.520260  -0.109622
    H   H15  0.642179  0.909006  0.537420  0.097500
    H   H16  0.351359  0.031224  0.538625  0.095757
    C   C29  0.499625  0.921592  0.499834  0.070808
    C   C30  0.499617  0.018635  0.499847  0.058594
    C   C31  0.895069  0.543132  0.521784  -0.109821
    C   C32  0.099652  0.397634  0.527270  -0.103110
    H   H17  0.930043  0.601098  0.542337  0.107112
    H   H18  0.060653  0.340482  0.548824  0.108295
    C   C33  0.796778  0.541905  0.520958  -0.065995
    C   C34  0.197972  0.399162  0.528626  -0.092813
    H   H19  0.756387  0.599026  0.540573  0.161973
    H   H20  0.234679  0.342846  0.550368  0.175614
    N   N1   0.751227  0.470037  0.496728  0.007714
    N   N2   0.248079  0.470048  0.502896  0.002848
    C   C35  0.801092  0.397907  0.473734  -0.089426
    C   C36  0.202857  0.540642  0.475894  -0.061219
    H   H21  0.764242  0.340547  0.454155  0.171051
    H   H22  0.243560  0.596678  0.454141  0.164383
    C   C37  0.899403  0.396385  0.475159  -0.102510
    C   C38  0.104577  0.541877  0.474982  -0.113544
    H   H23  0.938165  0.338170  0.455836  0.108710
    H   H24  0.069839  0.598757  0.452194  0.106741
    C   C39  0.947374  0.469683  0.499104  0.090198
    C   C40  0.051979  0.469682  0.500500  0.094911
    C   C41  0.623165  0.582257  0.741351  0.375510
    C   C42  0.617670  0.670530  0.782395  -0.408388
    C   C43  0.723573  0.544927  0.742492  -0.327464
    H   H25  0.608705  0.597561  0.681411  0.002703
    H   H26  0.654808  0.668502  0.836538  0.088024
    H   H27  0.541691  0.689327  0.794531  0.066523
    H   H28  0.653066  0.721031  0.744493  0.085542
    H   H29  0.743059  0.534252  0.802354  0.058508
    H   H30  0.775104  0.591551  0.713623  0.063433
    H   H31  0.727203  0.481316  0.711345  0.053546
    C   C44  0.376014  0.582014  0.258203  0.372504
    C   C45  0.381525  0.670335  0.217246  -0.409118
    C   C46  0.275653  0.544602  0.256871  -0.334460
    H   H32  0.390315  0.597269  0.318185  0.003270
    H   H33  0.344502  0.668337  0.163048  0.088668
    H   H34  0.457506  0.689200  0.205226  0.066938
    H   H35  0.346018  0.720769  0.255155  0.086153
    H   H36  0.256345  0.533903  0.196965  0.061093
    H   H37  0.224008  0.591188  0.285644  0.065536
    H   H38  0.271987  0.480992  0.288015  0.055335
