data_DB0-m29_o96_o1470_f0_pts.sym.59_repeat
_audit_creation_date              2024-02-23
_audit_creation_method            'Materials Studio'
_symmetry_space_group_name_H-M    'P1'
_symmetry_Int_Tables_number       1
_symmetry_cell_setting            triclinic
loop_
_symmetry_equiv_pos_as_xyz
  x,y,z
_cell_length_a                    17.2997
_cell_length_b                    12.0765
_cell_length_c                    19.1130
_cell_angle_alpha                 88.7662
_cell_angle_beta                  90.6135
_cell_angle_gamma                 108.5151
loop_
_atom_site_label
_atom_site_type_symbol
_atom_site_fract_x
_atom_site_fract_y
_atom_site_fract_z
_atom_site_U_iso_or_equiv
_atom_site_adp_type
_atom_site_occupancy
C1     C     0.21986   0.01620   0.10785   0.00000  Uiso   1.00
C2     C     0.16403   0.97795   0.15968   0.00000  Uiso   1.00
C3     C     0.08939   0.97491   0.13232   0.00000  Uiso   1.00
N1     N     0.09741   0.00670   0.06394   0.00000  Uiso   1.00
C4     C     0.17739   0.03121   0.04862   0.00000  Uiso   1.00
C5     C     0.02087   0.95219   0.16944   0.00000  Uiso   1.00
C6     C     0.94474   0.96779   0.14292   0.00000  Uiso   1.00
C7     C     0.88829   0.99400   0.18420   0.00000  Uiso   1.00
C8     C     0.82594   0.99988   0.14208   0.00000  Uiso   1.00
C9     C     0.84557   0.97768   0.07489   0.00000  Uiso   1.00
N2     N     0.91799   0.95665   0.07605   0.00000  Uiso   1.00
C10    C     0.79571   0.97853   0.01210   0.00000  Uiso   1.00
C11    C     0.82756   0.00684   0.94827   0.00000  Uiso   1.00
C12    C     0.78526   0.02300   0.88928   0.00000  Uiso   1.00
C13    C     0.84114   0.06232   0.83761   0.00000  Uiso   1.00
C14    C     0.91567   0.06464   0.86482   0.00000  Uiso   1.00
N3     N     0.90755   0.03154   0.93299   0.00000  Uiso   1.00
C15    C     0.98418   0.08768   0.82772   0.00000  Uiso   1.00
C16    C     0.05990   0.07072   0.85408   0.00000  Uiso   1.00
C17    C     0.11584   0.04371   0.81263   0.00000  Uiso   1.00
C18    C     0.17817   0.03722   0.85457   0.00000  Uiso   1.00
C19    C     0.15897   0.05964   0.92188   0.00000  Uiso   1.00
N4     N     0.08686   0.08157   0.92090   0.00000  Uiso   1.00
C20    C     0.20902   0.05868   0.98462   0.00000  Uiso   1.00
H1     H     0.02315   0.93273   0.22470   0.00000  Uiso   1.00
H2     H     0.73176   0.96737   0.01956   0.00000  Uiso   1.00
H3     H     0.98205   0.10806   0.77257   0.00000  Uiso   1.00
H4     H     0.27294   0.06965   0.97707   0.00000  Uiso   1.00
H5     H     0.94573   0.92971   0.03456   0.00000  Uiso   1.00
H6     H     0.05949   0.10903   0.96243   0.00000  Uiso   1.00
C21    C     0.11455   0.02304   0.74228   0.00000  Uiso   1.00
C22    C     0.18012   0.99777   0.71428   0.00000  Uiso   1.00
C23    C     0.24561   0.99341   0.75622   0.00000  Uiso   1.00
C24    C     0.24453   0.01206   0.82787   0.00000  Uiso   1.00
C25    C     0.30192   0.03582   0.12003   0.00000  Uiso   1.00
C26    C     0.32519   0.01115   0.18677   0.00000  Uiso   1.00
C27    C     0.26682   0.96680   0.23852   0.00000  Uiso   1.00
C28    C     0.18563   0.95156   0.22569   0.00000  Uiso   1.00
C29    C     0.88910   0.01447   0.25452   0.00000  Uiso   1.00
C30    C     0.82313   0.03906   0.28223   0.00000  Uiso   1.00
C31    C     0.75774   0.04328   0.24005   0.00000  Uiso   1.00
C32    C     0.75925   0.02474   0.16844   0.00000  Uiso   1.00
C33    C     0.70329   0.00377   0.87727   0.00000  Uiso   1.00
C34    C     0.68018   0.03029   0.81095   0.00000  Uiso   1.00
C35    C     0.73850   0.07583   0.75934   0.00000  Uiso   1.00
C36    C     0.81965   0.09041   0.77191   0.00000  Uiso   1.00
H7     H     0.06444   0.02657   0.70908   0.00000  Uiso   1.00
H8     H     0.29460   0.00902   0.86129   0.00000  Uiso   1.00
H9     H     0.34692   0.07008   0.07967   0.00000  Uiso   1.00
H10    H     0.28453   0.94844   0.29076   0.00000  Uiso   1.00
H11    H     0.14166   0.92005   0.26709   0.00000  Uiso   1.00
H12    H     0.93915   0.01138   0.28793   0.00000  Uiso   1.00
H13    H     0.70926   0.02757   0.13487   0.00000  Uiso   1.00
H14    H     0.65819   0.96862   0.91744   0.00000  Uiso   1.00
H15    H     0.72063   0.09551   0.70741   0.00000  Uiso   1.00
H16    H     0.86367   0.12285   0.73065   0.00000  Uiso   1.00
H17    H     0.17995   0.98327   0.65870   0.00000  Uiso   1.00
H18    H     0.82313   0.05366   0.33778   0.00000  Uiso   1.00
O1     O     0.62107   0.06088   0.23832   0.00000  Uiso   1.00
C37    C     0.68644   0.06023   0.27385   0.00000  Uiso   1.00
O2     O     0.48171   0.80529   0.31545   0.00000  Uiso   1.00
O3     O     0.68474   0.06372   0.34235   0.00000  Uiso   1.00
O4     O     0.52135   0.95139   0.39316   0.00000  Uiso   1.00
C38    C     0.49660   0.83910   0.38028   0.00000  Uiso   1.00
Fe1    Fe    0.53477   0.05081   0.30759   0.00000  Uiso   1.00
O5     O     0.42716   0.97781   0.26004   0.00000  Uiso   1.00
O6     O     0.46694   0.12776   0.18022   0.00000  Uiso   1.00
C39    C     0.41084   0.03600   0.20630   0.00000  Uiso   1.00
O7     O     0.56573   0.21660   0.33937   0.00000  Uiso   1.00
O8     O     0.42990   0.15208   0.35554   0.00000  Uiso   1.00
C40    C     0.50028   0.23265   0.36586   0.00000  Uiso   1.00
C41    C     0.49503   0.23320   0.49071   0.00000  Uiso   1.00
C42    C     0.49171   0.28069   0.55506   0.00000  Uiso   1.00
C43    C     0.50086   0.39976   0.55850   0.00000  Uiso   1.00
C44    C     0.49722   0.45593   0.62701   0.00000  Uiso   1.00
C45    C     0.53936   0.58618   0.62367   0.00000  Uiso   1.00
C46    C     0.50809   0.29892   0.43029   0.00000  Uiso   1.00
C47    C     0.51659   0.41668   0.43302   0.00000  Uiso   1.00
C48    C     0.51089   0.46634   0.49666   0.00000  Uiso   1.00
C49    C     0.50701   0.58612   0.49775   0.00000  Uiso   1.00
C50    C     0.51144   0.63960   0.56172   0.00000  Uiso   1.00
C51    C     0.49745   0.74602   0.56565   0.00000  Uiso   1.00
C52    C     0.53469   0.49174   0.36884   0.00000  Uiso   1.00
C53    C     0.49154   0.58316   0.36712   0.00000  Uiso   1.00
C54    C     0.49553   0.64311   0.43602   0.00000  Uiso   1.00
C55    C     0.49025   0.75653   0.44003   0.00000  Uiso   1.00
C56    C     0.48693   0.80215   0.50509   0.00000  Uiso   1.00
H19    H     0.43277   0.43729   0.64285   0.00000  Uiso   1.00
H20    H     0.52768   0.62355   0.67331   0.00000  Uiso   1.00
H21    H     0.51932   0.44035   0.32050   0.00000  Uiso   1.00
H22    H     0.48580   0.14101   0.48577   0.00000  Uiso   1.00
H23    H     0.48099   0.88803   0.50983   0.00000  Uiso   1.00
H24    H     0.53101   0.42319   0.66761   0.00000  Uiso   1.00
H25    H     0.60591   0.60224   0.61900   0.00000  Uiso   1.00
H26    H     0.60123   0.53836   0.36824   0.00000  Uiso   1.00
H27    H     0.52835   0.64677   0.32849   0.00000  Uiso   1.00
O9     O     0.57804   0.06939   0.74079   0.00000  Uiso   1.00
O10    O     0.53936   0.91013   0.81387   0.00000  Uiso   1.00
C57    C     0.59465   0.00614   0.79172   0.00000  Uiso   1.00
O11    O     0.44375   0.83040   0.65799   0.00000  Uiso   1.00
O12    O     0.57902   0.89713   0.63687   0.00000  Uiso   1.00
C58    C     0.50853   0.81547   0.62916   0.00000  Uiso   1.00
O13    O     0.45400   0.22155   0.67657   0.00000  Uiso   1.00
O14    O     0.38349   0.98260   0.75803   0.00000  Uiso   1.00
C59    C     0.31697   0.97680   0.72243   0.00000  Uiso   1.00
O15    O     0.48786   0.09634   0.60557   0.00000  Uiso   1.00
C60    C     0.47860   0.19863   0.61548   0.00000  Uiso   1.00
O16    O     0.31798   0.96962   0.65407   0.00000  Uiso   1.00
Fe2    Fe    0.47223   0.99554   0.69066   0.00000  Uiso   1.00
C61    C     0.40407   0.53632   0.33827   0.00000  Uiso   1.00
C62    C     0.34660   0.43860   0.38236   0.00000  Uiso   1.00
C63    C     0.26003   0.41372   0.35532   0.00000  Uiso   1.00
C64    C     0.20285   0.31219   0.39621   0.00000  Uiso   1.00
H28    H     0.40609   0.50427   0.28459   0.00000  Uiso   1.00
H29    H     0.37777   0.60864   0.33459   0.00000  Uiso   1.00
H30    H     0.34854   0.46420   0.43781   0.00000  Uiso   1.00
H31    H     0.36336   0.35786   0.37809   0.00000  Uiso   1.00
H32    H     0.25733   0.39135   0.29918   0.00000  Uiso   1.00
H33    H     0.24037   0.49188   0.36153   0.00000  Uiso   1.00
H34    H     0.22082   0.23273   0.38942   0.00000  Uiso   1.00
H35    H     0.13972   0.29562   0.37653   0.00000  Uiso   1.00
H36    H     0.20528   0.33345   0.45251   0.00000  Uiso   1.00
