# generated using pymatgen
data_FeH6C20ClO8
_symmetry_space_group_name_H-M   'P 1'
_cell_length_a   14.44696900
_cell_length_b   9.36136100
_cell_length_c   15.70463700
_cell_angle_alpha   94.18104700
_cell_angle_beta   91.67639200
_cell_angle_gamma   112.68919200
_symmetry_Int_Tables_number   1
_chemical_formula_structural   FeH6C20ClO8
_chemical_formula_sum   'Fe2 H12 C40 Cl2 O16'
_cell_volume   1950.55801679
_cell_formula_units_Z   2
loop_
 _symmetry_equiv_pos_site_id
 _symmetry_equiv_pos_as_xyz
  1  'x, y, z'
loop_
 _atom_site_type_symbol
 _atom_site_label
 _atom_site_symmetry_multiplicity
 _atom_site_fract_x
 _atom_site_fract_y
 _atom_site_fract_z
 _atom_site_occupancy
  Fe  Fe1  1  0.50679000  0.03738700  0.11602800  1
  Fe  Fe2  1  0.47789000  0.91882800  0.76710300  1
  H  H1  1  0.97836300  0.82415500  0.88257100  1
  H  H2  1  0.96990400  0.04908200  0.85756000  1
  H  H3  1  0.80514300  0.01043200  0.79714100  1
  H  H4  1  0.27886700  0.11843800  0.13047700  1
  H  H5  1  0.15392600  0.16161300  0.21194200  1
  H  H6  1  0.99055400  0.14926400  0.22663900  1
  H  H7  1  0.82539600  0.09973000  0.16900800  1
  H  H8  1  0.48871800  0.48573600  0.14408700  1
  H  H9  1  0.45194600  0.77906400  0.34747100  1
  H  H10  1  0.44783600  0.43788800  0.73776200  1
  H  H11  1  0.47223900  0.14354900  0.52763500  1
  H  H12  1  0.48215100  0.22155200  0.39091200  1
  C  C1  1  0.22542400  0.90148000  0.89033500  1
  C  C2  1  0.12571100  0.84583200  0.85986700  1
  C  C3  1  0.05616000  0.88231000  0.90516000  1
  C  C4  1  0.90958900  0.02719700  0.90008700  1
  C  C5  1  0.25132000  0.98204100  0.97073900  1
  C  C6  1  0.18114200  0.01979000  0.01570400  1
  C  C7  1  0.08482300  0.98182900  0.97964000  1
  C  C8  1  0.01664300  0.02856500  0.02410200  1
  C  C9  1  0.81718300  0.01327300  0.86562600  1
  C  C10  1  0.73916100  0.99512400  0.91766400  1
  C  C11  1  0.92526200  0.02290700  0.98744900  1
  C  C12  1  0.85191000  0.03258900  0.04018900  1
  C  C13  1  0.75718400  0.00951900  0.00522600  1
  C  C14  1  0.20612200  0.08998100  0.09848700  1
  C  C15  1  0.13487700  0.11477900  0.14585300  1
  C  C16  1  0.04068100  0.08285800  0.10953400  1
  C  C17  1  0.97119400  0.10747000  0.15988400  1
  C  C18  1  0.87599800  0.07579400  0.12669300  1
  C  C19  1  0.67596800  0.00609600  0.05932900  1
  C  C20  1  0.47583200  0.76072000  0.18133500  1
  C  C21  1  0.35228300  0.02718900  0.00991400  1
  C  C22  1  0.48021100  0.25308900  0.23075200  1
  C  C23  1  0.46662600  0.67712200  0.65408900  1
  C  C24  1  0.63712200  0.95530300  0.88009400  1
  C  C25  1  0.46052400  0.16351700  0.69731800  1
  C  C26  1  0.30224400  0.88208600  0.83572700  1
  C  C27  1  0.47745500  0.39991300  0.26685200  1
  C  C28  1  0.48046700  0.50884000  0.21127000  1
  C  C29  1  0.47104500  0.64458200  0.24059100  1
  C  C30  1  0.45840700  0.67143900  0.32608800  1
  C  C31  1  0.45695700  0.56416500  0.38304000  1
  C  C32  1  0.46780600  0.42888500  0.35349500  1
  C  C33  1  0.44507400  0.59242700  0.46929100  1
  C  C34  1  0.45268500  0.49139000  0.52738900  1
  C  C35  1  0.46219600  0.35573800  0.49699200  1
  C  C36  1  0.47021300  0.32526400  0.41104600  1
  C  C37  1  0.45004700  0.52188400  0.61522500  1
  C  C38  1  0.44831000  0.41165600  0.66964300  1
  C  C39  1  0.45619200  0.27546700  0.63853100  1
  C  C40  1  0.46457300  0.24899500  0.55229300  1
  Cl  Cl1  1  0.08282700  0.72223900  0.76517000  1
  Cl  Cl2  1  0.40597100  0.74337200  0.50115300  1
  O  O1  1  0.61556500  0.07307900  0.03653200  1
  O  O2  1  0.47145800  0.72528100  0.09849600  1
  O  O3  1  0.66020700  0.93007900  0.12790800  1
  O  O4  1  0.49065800  0.90330100  0.21092700  1
  O  O5  1  0.37656400  0.92405300  0.04675000  1
  O  O6  1  0.41107100  0.17510700  0.02319700  1
  O  O7  1  0.53959700  0.25420100  0.16897000  1
  O  O8  1  0.41248300  0.12037700  0.24969300  1
  O  O9  1  0.41889500  0.69408900  0.72143400  1
  O  O10  1  0.54211800  0.79778300  0.63134300  1
  O  O11  1  0.62252900  0.01711600  0.81120800  1
  O  O12  1  0.56041500  0.84940100  0.91218100  1
  O  O13  1  0.28173900  0.84964500  0.75295900  1
  O  O14  1  0.47904900  0.04194000  0.66961900  1
  O  O15  1  0.39508300  0.91631400  0.86566000  1
  O  O16  1  0.44705500  0.18531100  0.77874400  1
