# generated using pymatgen
data_CuH30C54(NO5)2
_symmetry_space_group_name_H-M   'P 1'
_cell_length_a   15.10390100
_cell_length_b   13.85409700
_cell_length_c   23.38267900
_cell_angle_alpha   90.00000000
_cell_angle_beta   90.00859900
_cell_angle_gamma   90.00000000
_symmetry_Int_Tables_number   1
_chemical_formula_structural   CuH30C54(NO5)2
_chemical_formula_sum   'Cu2 H60 C108 N4 O20'
_cell_volume   4892.84679295
_cell_formula_units_Z   2
loop_
 _symmetry_equiv_pos_site_id
 _symmetry_equiv_pos_as_xyz
  1  'x, y, z'
loop_
 _atom_site_type_symbol
 _atom_site_label
 _atom_site_symmetry_multiplicity
 _atom_site_fract_x
 _atom_site_fract_y
 _atom_site_fract_z
 _atom_site_occupancy
  Cu  Cu1  1  0.49977200  0.61494400  0.50078500  1
  Cu  Cu2  1  0.49994600  0.42092800  0.50025100  1
  H  H1  1  0.28667700  0.48053300  0.94017600  1
  H  H2  1  0.71531200  0.48349000  0.06026600  1
  H  H3  1  0.60170100  0.60289600  0.21655500  1
  H  H4  1  0.39746500  0.59710100  0.78422800  1
  H  H5  1  0.60486500  0.59772100  0.32014600  1
  H  H6  1  0.39382900  0.59205500  0.68045100  1
  H  H7  1  0.36459100  0.43359600  0.21808200  1
  H  H8  1  0.63803700  0.43407700  0.78201600  1
  H  H9  1  0.06030800  0.66468400  0.53453700  1
  H  H10  1  0.93698600  0.37092500  0.52280700  1
  H  H11  1  0.93904300  0.66930400  0.47465400  1
  H  H12  1  0.06222800  0.37532200  0.46988300  1
  H  H13  1  0.22105400  0.66380900  0.53603900  1
  H  H14  1  0.77975700  0.36882900  0.51623200  1
  H  H15  1  0.77875600  0.66833600  0.47181800  1
  H  H16  1  0.22216000  0.37438100  0.47557400  1
  H  H17  1  0.54192500  0.08520900  0.58616300  1
  H  H18  1  0.39804100  0.94702200  0.43763100  1
  H  H19  1  0.45580200  0.08700000  0.41430800  1
  H  H20  1  0.59915300  0.94644600  0.56499800  1
  H  H21  1  0.66091500  0.23940300  0.69639500  1
  H  H22  1  0.80980900  0.17832000  0.71288500  1
  H  H23  1  0.90448000  0.13140800  0.63165200  1
  H  H24  1  0.84788000  0.14467400  0.53343400  1
  H  H25  1  0.69924000  0.20419400  0.51576500  1
  H  H26  1  0.27796600  0.75359400  0.33200800  1
  H  H27  1  0.30879700  0.78566300  0.23153000  1
  H  H28  1  0.45899400  0.83046200  0.20065800  1
  H  H29  1  0.57840000  0.84400500  0.27165600  1
  H  H30  1  0.54924400  0.81359500  0.37209100  1
  H  H31  1  0.34345600  0.23849500  0.30025200  1
  H  H32  1  0.19399700  0.17970500  0.28205200  1
  H  H33  1  0.09725100  0.13348600  0.36149000  1
  H  H34  1  0.15050400  0.14705400  0.46041700  1
  H  H35  1  0.29954800  0.20621600  0.48032400  1
  H  H36  1  0.71720900  0.75415000  0.67304800  1
  H  H37  1  0.67986800  0.78056300  0.77353800  1
  H  H38  1  0.52796600  0.82207000  0.80133400  1
  H  H39  1  0.41212300  0.83675500  0.72807500  1
  H  H40  1  0.44710700  0.81043600  0.62740400  1
  H  H41  1  0.10165800  0.46934600  0.11040400  1
  H  H42  1  0.05478200  0.33275300  0.16883100  1
  H  H43  1  0.14826700  0.18807000  0.17621300  1
  H  H44  1  0.28977600  0.18070600  0.12461400  1
  H  H45  1  0.33764100  0.31499600  0.06535900  1
  H  H46  1  0.89816800  0.47184000  0.88881500  1
  H  H47  1  0.94457700  0.33672400  0.82889500  1
  H  H48  1  0.85185900  0.19155300  0.82144500  1
  H  H49  1  0.71186600  0.18180800  0.87462300  1
  H  H50  1  0.66450400  0.31491800  0.93529000  1
  H  H51  1  0.16826700  0.38372700  0.35139200  1
  H  H52  1  0.02399800  0.41599200  0.30830700  1
  H  H53  1  0.00859600  0.53998200  0.23375500  1
  H  H54  1  0.13899700  0.63252100  0.20285900  1
  H  H55  1  0.28306200  0.60210500  0.24580900  1
  H  H56  1  0.83193300  0.38488500  0.64732400  1
  H  H57  1  0.97652000  0.41858400  0.68904700  1
  H  H58  1  0.99194200  0.54098800  0.76448300  1
  H  H59  1  0.86164000  0.63270900  0.79632500  1
  H  H60  1  0.71694400  0.60156100  0.75419200  1
  C  C1  1  0.32992500  0.51753300  0.50592000  1
  C  C2  1  0.66981700  0.51839200  0.49502100  1
  C  C3  1  0.49002800  0.51929000  0.39073700  1
  C  C4  1  0.51020500  0.51832200  0.61006200  1
  C  C5  1  0.58663300  0.51481000  0.88468700  1
  C  C6  1  0.41501200  0.51579600  0.11545400  1
  C  C7  1  0.43429700  0.48565400  0.87941700  1
  C  C8  1  0.56764200  0.48877800  0.12108700  1
  C  C9  1  0.42837700  0.48974200  0.93828600  1
  C  C10  1  0.57363200  0.49171300  0.06213500  1
  C  C11  1  0.50393500  0.49431200  0.97067200  1
  C  C12  1  0.49807200  0.49484400  0.02965900  1
  C  C13  1  0.58495800  0.49956200  0.94367000  1
  C  C14  1  0.41692600  0.49978300  0.05656700  1
  C  C15  1  0.34688600  0.48655000  0.96484800  1
  C  C16  1  0.65509000  0.48868600  0.03552700  1
  C  C17  1  0.34015100  0.49254200  0.02348800  1
  C  C18  1  0.66175000  0.49356200  0.97680600  1
  C  C19  1  0.54976200  0.56441300  0.23869700  1
  C  C20  1  0.44982200  0.55973500  0.76184500  1
  C  C21  1  0.55056900  0.56391500  0.29761800  1
  C  C22  1  0.44844100  0.55901500  0.70299800  1
  C  C23  1  0.48294100  0.52118700  0.32806400  1
  C  C24  1  0.51693400  0.51870600  0.67249800  1
  C  C25  1  0.40955800  0.48621400  0.29844600  1
  C  C26  1  0.59109500  0.48504100  0.70168300  1
  C  C27  1  0.41607800  0.47343500  0.23979300  1
  C  C28  1  0.58554000  0.47243800  0.76040100  1
  C  C29  1  0.48551400  0.51355800  0.20896200  1
  C  C30  1  0.51559500  0.51102200  0.79137400  1
  C  C31  1  0.09482400  0.60077900  0.52019100  1
  C  C32  1  0.90408900  0.43653700  0.50999400  1
  C  C33  1  0.90467200  0.60329800  0.48507200  1
  C  C34  1  0.09561200  0.43878400  0.48600100  1
  C  C35  1  0.18637600  0.60016400  0.52171000  1
  C  C36  1  0.81338200  0.43534600  0.50675500  1
  C  C37  1  0.81333500  0.60255600  0.48296400  1
  C  C38  1  0.18682600  0.43798800  0.48874600  1
  C  C39  1  0.23279800  0.51840700  0.50610500  1
  C  C40  1  0.76702900  0.51861500  0.49415900  1
  C  C41  1  0.04845500  0.52019100  0.50183700  1
  C  C42  1  0.95088900  0.52032800  0.49911800  1
  C  C43  1  0.52376500  0.12173300  0.54699500  1
  C  C44  1  0.44451000  0.91082300  0.46528900  1
  C  C45  1  0.47423700  0.12221900  0.45353400  1
  C  C46  1  0.55315800  0.91097300  0.53663300  1
  C  C47  1  0.53071500  0.22126000  0.54535800  1
  C  C48  1  0.44686300  0.81102200  0.46435300  1
  C  C49  1  0.46838700  0.22162800  0.45464500  1
  C  C50  1  0.55143800  0.81146200  0.53781600  1
  C  C51  1  0.49869400  0.06984900  0.50020900  1
  C  C52  1  0.49888600  0.96275100  0.50057200  1
  C  C53  1  0.57685500  0.25841800  0.59559700  1
  C  C54  1  0.66909600  0.22743100  0.60487000  1
  C  C55  1  0.70147200  0.22007400  0.66004500  1
  C  C56  1  0.78564500  0.18519800  0.66958200  1
  C  C57  1  0.83850000  0.15860900  0.62420600  1
  C  C58  1  0.80680900  0.16606900  0.56917600  1
  C  C59  1  0.72228700  0.19972300  0.55945500  1
  C  C60  1  0.39079500  0.76598300  0.42068800  1
  C  C61  1  0.41085600  0.78192900  0.35966800  1
  C  C62  1  0.34440900  0.77296900  0.31941700  1
  C  C63  1  0.36158800  0.79090400  0.26253300  1
  C  C64  1  0.44559000  0.81619500  0.24525200  1
  C  C65  1  0.51243600  0.82401900  0.28501400  1
  C  C66  1  0.49533200  0.80732000  0.34201700  1
  C  C67  1  0.42517800  0.25825700  0.40301600  1
  C  C68  1  0.33309200  0.22695500  0.39181700  1
  C  C69  1  0.30231400  0.21885900  0.33616100  1
  C  C70  1  0.21796300  0.18514900  0.32546700  1
  C  C71  1  0.16354100  0.15932400  0.37006800  1
  C  C72  1  0.19352700  0.16687900  0.42547100  1
  C  C73  1  0.27798600  0.20002500  0.43642600  1
  C  C74  1  0.60747300  0.76752800  0.58186400  1
  C  C75  1  0.58503800  0.78112600  0.64264500  1
  C  C76  1  0.64975800  0.77207900  0.68428200  1
  C  C77  1  0.62919900  0.78762600  0.74106900  1
  C  C78  1  0.54402700  0.81118900  0.75673500  1
  C  C79  1  0.47920300  0.81946200  0.71562500  1
  C  C80  1  0.49945700  0.80460800  0.65876300  1
  C  C81  1  0.25053700  0.48523900  0.04772200  1
  C  C82  1  0.22363400  0.40304900  0.08390900  1
  C  C83  1  0.14379100  0.40643200  0.11294300  1
  C  C84  1  0.11706100  0.32950100  0.14613900  1
  C  C85  1  0.16947300  0.24850600  0.15040200  1
  C  C86  1  0.24879300  0.24444000  0.12150200  1
  C  C87  1  0.27585600  0.32115100  0.08826900  1
  C  C88  1  0.75124700  0.48593400  0.95255800  1
  C  C89  1  0.77753800  0.40406400  0.91597400  1
  C  C90  1  0.85655500  0.40853000  0.88624400  1
  C  C91  1  0.88293500  0.33252000  0.85224100  1
  C  C92  1  0.83092600  0.25123100  0.84796000  1
  C  C93  1  0.75242100  0.24589600  0.87773900  1
  C  C94  1  0.72566900  0.32182400  0.91174900  1
  C  C95  1  0.32367400  0.46760400  0.32727100  1
  C  C96  1  0.23763700  0.48634900  0.29928700  1
  C  C97  1  0.16328000  0.43713400  0.31787700  1
  C  C98  1  0.08153800  0.45551900  0.29391100  1
  C  C99  1  0.07283200  0.52491200  0.25213600  1
  C  C100  1  0.14590800  0.57655300  0.23476200  1
  C  C101  1  0.22772300  0.55801600  0.25850600  1
  C  C102  1  0.67664300  0.46769700  0.67214500  1
  C  C103  1  0.76281500  0.48735800  0.69957100  1
  C  C104  1  0.83715900  0.43885200  0.68042600  1
  C  C105  1  0.91907200  0.45783300  0.70382300  1
  C  C106  1  0.92777000  0.52661300  0.74592100  1
  C  C107  1  0.85465100  0.57752900  0.76396000  1
  C  C108  1  0.77262700  0.55865000  0.74059400  1
  N  N1  1  0.51234200  0.50301300  0.85284100  1
  N  N2  1  0.48932900  0.50541300  0.14746300  1
  N  N3  1  0.50008300  0.27533200  0.50008900  1
  N  N4  1  0.49964800  0.75993000  0.50080600  1
  O  O1  1  0.37160600  0.60052900  0.50778200  1
  O  O2  1  0.62847400  0.43481900  0.49529600  1
  O  O3  1  0.62832400  0.60130900  0.49750300  1
  O  O4  1  0.37128700  0.43465200  0.50140600  1
  O  O5  1  0.49520800  0.60155200  0.41760500  1
  O  O6  1  0.50213800  0.43558600  0.58335500  1
  O  O7  1  0.51038200  0.60102000  0.58346500  1
  O  O8  1  0.49290400  0.43591300  0.41737500  1
  O  O9  1  0.66057400  0.54837800  0.85977000  1
  O  O10  1  0.34056900  0.54849500  0.14015700  1
  O  O11  1  0.36154100  0.46385000  0.84890600  1
  O  O12  1  0.64042500  0.46874200  0.15195000  1
  O  O13  1  0.53278500  0.28072600  0.63713700  1
  O  O14  1  0.31896600  0.73285200  0.43412000  1
  O  O15  1  0.47153200  0.28006500  0.36219300  1
  O  O16  1  0.68080100  0.73842000  0.56885000  1
  O  O17  1  0.19550700  0.54540100  0.03410900  1
  O  O18  1  0.80665900  0.54555900  0.96636400  1
  O  O19  1  0.32249700  0.44116400  0.37683700  1
  O  O20  1  0.67730500  0.44120800  0.62255300  1
