# generated using pymatgen
data_ZnH15C24N3O5
_symmetry_space_group_name_H-M   'P 1'
_cell_length_a   9.09758100
_cell_length_b   13.42826400
_cell_length_c   16.20520300
_cell_angle_alpha   90.04763000
_cell_angle_beta   94.76327400
_cell_angle_gamma   90.58917600
_symmetry_Int_Tables_number   1
_chemical_formula_structural   ZnH15C24N3O5
_chemical_formula_sum   'Zn2 H30 C48 N6 O10'
_cell_volume   1972.75962954
_cell_formula_units_Z   2
loop_
 _symmetry_equiv_pos_site_id
 _symmetry_equiv_pos_as_xyz
  1  'x, y, z'
loop_
 _atom_site_type_symbol
 _atom_site_label
 _atom_site_symmetry_multiplicity
 _atom_site_fract_x
 _atom_site_fract_y
 _atom_site_fract_z
 _atom_site_occupancy
  Zn  Zn1  1  0.16765400  0.49125500  0.50252200  1
  Zn  Zn2  1  0.83918000  0.50321200  0.49881000  1
  H  H1  1  0.81973100  0.30572800  0.97921900  1
  H  H2  1  0.92094600  0.98631800  0.27472600  1
  H  H3  1  0.15949800  0.69049200  0.01832100  1
  H  H4  1  0.04119000  0.00592800  0.72164600  1
  H  H5  1  0.87579100  0.03677800  0.04154600  1
  H  H6  1  0.08882000  0.96234000  0.95729200  1
  H  H7  1  0.16124100  0.60765700  0.89646800  1
  H  H8  1  0.98526000  0.83044900  0.66539700  1
  H  H9  1  0.05237000  0.16446400  0.66427500  1
  H  H10  1  0.93561100  0.45633200  0.73853800  1
  H  H11  1  0.87466100  0.39631700  0.87259900  1
  H  H12  1  0.97865100  0.15910700  0.33525100  1
  H  H13  1  0.91526100  0.82439900  0.33084700  1
  H  H14  1  0.12930700  0.55367700  0.27196700  1
  H  H15  1  0.17124500  0.61390300  0.13628400  1
  H  H16  1  0.14101800  0.54683100  0.75409100  1
  H  H17  1  0.93025100  0.45741700  0.24663700  1
  H  H18  1  0.40374000  0.35479300  0.56075000  1
  H  H19  1  0.39064700  0.46120300  0.62835000  1
  H  H20  1  0.63593000  0.37059400  0.57471800  1
  H  H21  1  0.37058600  0.37281500  0.41456300  1
  H  H22  1  0.60793600  0.36465600  0.43507300  1
  H  H23  1  0.35958600  0.64417800  0.46549400  1
  H  H24  1  0.40738700  0.62131600  0.57288600  1
  H  H25  1  0.64005500  0.65360400  0.53398600  1
  H  H26  1  0.58599200  0.62635300  0.42860200  1
  H  H27  1  0.37181000  0.49686200  0.37101800  1
  H  H28  1  0.61730200  0.47438200  0.37077800  1
  H  H29  1  0.90087200  0.49649300  0.09740500  1
  H  H30  1  0.68815400  0.44752200  0.70448500  1
  C  C1  1  0.97623500  0.18163100  0.78621500  1
  C  C2  1  0.92564400  0.24501100  0.84250700  1
  C  C3  1  0.90873800  0.19211500  0.91338100  1
  C  C4  1  0.98538600  0.08950000  0.82347600  1
  C  C5  1  0.86745400  0.23272800  0.98299800  1
  C  C6  1  0.90173000  0.19131800  0.06607800  1
  C  C7  1  0.92566200  0.24587200  0.13875400  1
  C  C8  1  0.94124400  0.17938000  0.20270300  1
  C  C9  1  0.93050700  0.08478600  0.16675500  1
  C  C10  1  0.94007400  0.98821300  0.20968700  1
  C  C11  1  0.98359600  0.90510500  0.17304700  1
  C  C12  1  0.00403300  0.81390600  0.21148200  1
  C  C13  1  0.06847600  0.75453300  0.15715900  1
  C  C14  1  0.07787000  0.80690100  0.08521700  1
  C  C15  1  0.12265600  0.76648900  0.01588500  1
  C  C16  1  0.09818800  0.80867600  0.93245800  1
  C  C17  1  0.08873100  0.75397900  0.86007000  1
  C  C18  1  0.04855100  0.81673800  0.79646700  1
  C  C19  1  0.04055900  0.91088700  0.83169400  1
  C  C20  1  0.02248600  0.00529800  0.78674300  1
  C  C21  1  0.12071100  0.65616100  0.84677100  1
  C  C22  1  0.10719900  0.62180800  0.76628000  1
  C  C23  1  0.04888000  0.68061500  0.70121100  1
  C  C24  1  0.02280000  0.78153100  0.71555400  1
  C  C25  1  0.01549500  0.21451900  0.71033400  1
  C  C26  1  0.00361300  0.31570200  0.69513000  1
  C  C27  1  0.95166500  0.37892300  0.75339300  1
  C  C28  1  0.91291100  0.34479200  0.82816000  1
  C  C29  1  0.93094900  0.34724400  0.15317100  1
  C  C30  1  0.93721000  0.37911000  0.23408600  1
  C  C31  1  0.96078400  0.31434100  0.29999900  1
  C  C32  1  0.96346100  0.21160400  0.28482100  1
  C  C33  1  0.96858600  0.77853700  0.28761700  1
  C  C34  1  0.00776400  0.68113100  0.30700000  1
  C  C35  1  0.08732500  0.62600200  0.25378700  1
  C  C36  1  0.11323700  0.66023200  0.17694400  1
  C  C37  1  0.02764400  0.63131300  0.61933100  1
  C  C38  1  0.01276200  0.35968400  0.61425100  1
  C  C39  1  0.97958700  0.36233700  0.38244100  1
  C  C40  1  0.99482900  0.63508400  0.38712900  1
  C  C41  1  0.43009000  0.43516600  0.56917400  1
  C  C42  1  0.59588000  0.44809700  0.57347200  1
  C  C43  1  0.41167300  0.45009900  0.42448100  1
  C  C44  1  0.41896900  0.59321500  0.50965800  1
  C  C45  1  0.57918000  0.44450300  0.42923800  1
  C  C46  1  0.58005100  0.59865300  0.49266500  1
  C  C47  1  0.94425400  0.42264300  0.08885000  1
  C  C48  1  0.64794600  0.49558100  0.65446900  1
  N  N1  1  0.94700000  0.09644100  0.90243400  1
  N  N2  1  0.90402300  0.09357600  0.08377000  1
  N  N3  1  0.02633400  0.90008200  0.09468700  1
  N  N4  1  0.07209000  0.90470900  0.91468600  1
  N  N5  1  0.36125400  0.49109900  0.50056400  1
  N  N6  1  0.64539700  0.50037200  0.50035900  1
  O  O1  1  0.89378200  0.60291600  0.59000900  1
  O  O2  1  0.14646200  0.59461100  0.59084600  1
  O  O3  1  0.14170500  0.38786800  0.59057300  1
  O  O4  1  0.88826500  0.39650700  0.58325200  1
  O  O5  1  0.11291400  0.39168100  0.41134200  1
  O  O6  1  0.86060600  0.39926600  0.41082800  1
  O  O7  1  0.86526600  0.60636700  0.41041100  1
  O  O8  1  0.11868000  0.59803700  0.41829100  1
  O  O9  1  0.02415600  0.40856000  0.03326700  1
  O  O10  1  0.62544600  0.58279200  0.66935800  1
