# generated using pymatgen
data_Cu2H24C39N2O9
_symmetry_space_group_name_H-M   'P 1'
_cell_length_a   10.83764200
_cell_length_b   12.98103000
_cell_length_c   11.52049500
_cell_angle_alpha   99.72335700
_cell_angle_beta   94.30053500
_cell_angle_gamma   89.99280300
_symmetry_Int_Tables_number   1
_chemical_formula_structural   Cu2H24C39N2O9
_chemical_formula_sum   'Cu2 H24 C39 N2 O9'
_cell_volume   1592.83658918
_cell_formula_units_Z   1
loop_
 _symmetry_equiv_pos_site_id
 _symmetry_equiv_pos_as_xyz
  1  'x, y, z'
loop_
 _atom_site_type_symbol
 _atom_site_label
 _atom_site_symmetry_multiplicity
 _atom_site_fract_x
 _atom_site_fract_y
 _atom_site_fract_z
 _atom_site_occupancy
  Cu  Cu1  1  0.51345700  0.51982100  0.62098300  1
  Cu  Cu2  1  0.49417500  0.50161400  0.38534700  1
  H  H1  1  0.10723500  0.61259900  0.38594600  1
  H  H2  1  0.23791700  0.35473800  0.61722500  1
  H  H3  1  0.13329400  0.23966000  0.72093400  1
  H  H4  1  0.90724600  0.24041200  0.72136700  1
  H  H5  1  0.78670700  0.35593000  0.61797200  1
  H  H6  1  0.88245100  0.61242700  0.38497600  1
  H  H7  1  0.49798000  0.82650800  0.34798500  1
  H  H8  1  0.50898400  0.85127100  0.72392500  1
  H  H9  1  0.49546600  0.98106300  0.26183100  1
  H  H10  1  0.50970000  0.04042900  0.74426100  1
  H  H11  1  0.49657600  0.17022700  0.28222400  1
  H  H12  1  0.50767200  0.19492800  0.65815800  1
  H  H13  1  0.39018500  0.41790600  0.79219900  1
  H  H14  1  0.31882300  0.36280600  0.96757400  1
  H  H15  1  0.68562000  0.65613600  0.04500800  1
  H  H16  1  0.33555500  0.37592200  0.18323000  1
  H  H17  1  0.61853100  0.60245000  0.21369200  1
  H  H18  1  0.84101800  0.68725700  0.92526000  1
  H  H19  1  0.72493000  0.78871500  0.94042700  1
  H  H20  1  0.74723400  0.71966800  0.63397900  1
  H  H21  1  0.86279300  0.81990300  0.51747200  1
  H  H22  1  0.02186200  0.94738900  0.61412100  1
  H  H23  1  0.06431800  0.97395400  0.82989500  1
  H  H24  1  0.94815700  0.87335300  0.94846800  1
  C  C1  1  0.50293900  0.31054700  0.48410300  1
  C  C2  1  0.26691700  0.50749000  0.50340400  1
  C  C3  1  0.50363400  0.71090200  0.52213200  1
  C  C4  1  0.74059300  0.50776900  0.50219700  1
  C  C5  1  0.13922500  0.36250900  0.61982600  1
  C  C6  1  0.08019100  0.29485600  0.67781600  1
  C  C7  1  0.95378000  0.29525800  0.67802600  1
  C  C8  1  0.88587100  0.36313400  0.62001600  1
  C  C9  1  0.94411200  0.43416400  0.56344000  1
  C  C10  1  0.07247400  0.43402500  0.56366200  1
  C  C11  1  0.13166100  0.50134200  0.50256100  1
  C  C12  1  0.06208200  0.56198600  0.43566900  1
  C  C13  1  0.93515900  0.56186800  0.43507500  1
  C  C14  1  0.87567100  0.50126300  0.50155700  1
  C  C15  1  0.50351900  0.82518600  0.53416800  1
  C  C16  1  0.50226400  0.19627600  0.47199400  1
  C  C17  1  0.49814200  0.02781000  0.34906000  1
  C  C18  1  0.49877800  0.13520900  0.36101700  1
  C  C19  1  0.50500700  0.14861500  0.57075200  1
  C  C20  1  0.50434400  0.04096000  0.55842500  1
  C  C21  1  0.50096800  0.98049700  0.44768100  1
  C  C22  1  0.50051700  0.87283400  0.43538100  1
  C  C23  1  0.50668300  0.88627300  0.64511600  1
  C  C24  1  0.50710400  0.99366500  0.65704500  1
  C  C25  1  0.38591400  0.41587000  0.02068300  1
  C  C26  1  0.39534400  0.42341600  0.14219000  1
  C  C27  1  0.55277200  0.54931200  0.15894100  1
  C  C28  1  0.54506700  0.54360900  0.03798600  1
  C  C29  1  0.46202400  0.47652700  0.96816900  1
  C  C30  1  0.45538500  0.47130800  0.84713900  1
  C  C31  1  0.61190800  0.59979200  0.86493700  1
  C  C32  1  0.62083800  0.60487100  0.98686400  1
  C  C33  1  0.77170700  0.73049600  0.87696900  1
  C  C34  1  0.83972100  0.78932900  0.80006000  1
  C  C35  1  0.81619800  0.77472800  0.67871100  1
  C  C36  1  0.88160100  0.83150600  0.61228800  1
  C  C37  1  0.97073700  0.90300200  0.66637000  1
  C  C38  1  0.99449000  0.91785200  0.78717000  1
  C  C39  1  0.92914900  0.86122100  0.85364300  1
  N  N1  1  0.52758100  0.53380600  0.79727600  1
  N  N2  1  0.47989400  0.48822900  0.20923900  1
  O  O1  1  0.50706500  0.36715600  0.59011600  1
  O  O2  1  0.49934800  0.35165800  0.38770400  1
  O  O3  1  0.33283300  0.52115200  0.60500600  1
  O  O4  1  0.31626700  0.50546200  0.40275200  1
  O  O5  1  0.50813700  0.66975900  0.61851100  1
  O  O6  1  0.50025100  0.65427600  0.41626800  1
  O  O7  1  0.69126500  0.52153100  0.60388400  1
  O  O8  1  0.67489600  0.50630500  0.40178000  1
  O  O9  1  0.68509100  0.66108300  0.81348000  1
