# Generated by REPEAT Assigner based on pymatgen
data_DB0-m23_o11_o152_f0_pcu
_audit_creation_date              2022-05-24
_audit_creation_method            REPEAT_Assigner
_cell_length_a                    6.696952
_cell_length_b                    14.279706
_cell_length_c                    16.459758
_cell_angle_alpha                 75.314081
_cell_angle_beta                  91.144523
_cell_angle_gamma                 90.812196
_cell_volume                      1522.259368
_symmetry_space_group_name_H-M    P1
_symmetry_Int_Tables_number       1
loop_
    _symmetry_equiv_pos_site_id
    _symmetry_equiv_pos_as_xyz
    1  x,y,z
loop_
    _atom_site_type_symbol
    _atom_site_label
    _atom_site_fract_x
    _atom_site_fract_y
    _atom_site_fract_z
    _atom_type_partial_charge
    C   C1   0.011326  0.788390  0.261153  0.541278
    O   O1   0.010221  0.777440  0.184662  -0.621090
    O   O2   0.005510  0.875693  0.272487  -0.638342
    C   C2   0.009739  0.211885  0.740084  0.573362
    O   O3   0.000600  0.221758  0.816562  -0.577680
    O   O4   0.014180  0.124838  0.728098  -0.599786
    C   C3   0.985080  0.143307  0.073867  0.564680
    O   O5   0.983203  0.094311  0.152640  -0.591473
    O   O6   0.989662  0.096854  0.014698  -0.800915
    Cd  Cd1  0.996156  0.941355  0.120403  1.316506
    Cd  Cd2  0.999875  0.058319  0.880743  1.314581
    C   C4   0.995038  0.856406  0.927342  0.643067
    O   O7   0.002016  0.905573  0.848686  -0.646468
    O   O8   0.995193  0.902659  0.986625  -0.793019
    C   C5   0.393882  0.136071  0.875182  0.159082
    N   N1   0.285440  0.059067  0.887859  -0.449759
    H   H1   0.321759  0.205980  0.860667  0.069022
    H   H2   0.363485  0.995786  0.907636  0.267717
    C   C6   0.613738  0.132967  0.883031  0.205036
    N   N2   0.713937  0.058989  0.877365  -0.501203
    H   H3   0.693299  0.197240  0.889871  0.072219
    H   H4   0.629178  0.004248  0.863864  0.293333
    C   C7   0.601933  0.982678  0.154342  0.166217
    N   N3   0.710859  0.932702  0.117979  -0.437262
    H   H5   0.673793  0.030995  0.187438  0.112925
    H   H6   0.633703  0.882792  0.094107  0.261454
    C   C8   0.382218  0.973186  0.156669  0.108197
    N   N4   0.281813  0.938044  0.103898  -0.381070
    H   H7   0.303019  0.000288  0.202678  0.109941
    H   H8   0.365918  0.921368  0.058148  0.249197
    C   C9   0.967459  0.697550  0.029715  -0.331093
    C   C10  0.992982  0.750844  0.948187  0.046617
    C   C11  0.015518  0.704245  0.885421  -0.205335
    C   C12  0.015380  0.604625  0.903855  -0.128566
    C   C13  0.990413  0.550321  0.985782  -0.171897
    C   C14  0.964586  0.597635  0.048498  0.560885
    C   C15  0.020243  0.398264  0.946944  -0.329703
    C   C16  0.989930  0.449724  0.006443  0.258930
    C   C17  0.959948  0.399571  0.088867  0.019607
    C   C18  0.932049  0.449478  0.149105  0.123802
    N   N5   0.935786  0.546840  0.128306  -0.539010
    C   C19  0.018664  0.298633  0.970023  -0.027999
    C   C20  0.986030  0.248997  0.051746  -0.004970
    C   C21  0.957903  0.299526  0.111586  -0.219787
    H   H9   0.034644  0.746015  0.821352  0.150290
    H   H10  0.933894  0.260949  0.176229  0.138719
    H   H11  0.907586  0.410067  0.213446  0.095770
    H   H12  0.033703  0.571648  0.852590  0.127353
    H   H13  0.047731  0.433372  0.882169  0.158454
    H   H14  0.947788  0.734047  0.078990  0.167028
    H   H15  0.046426  0.258879  0.924082  0.121740
    C   C22  0.026087  0.290089  0.588294  -0.378350
    C   C23  0.014095  0.297811  0.669735  0.082882
    C   C24  0.005657  0.387786  0.685448  -0.260319
    C   C25  0.008064  0.470165  0.620213  -0.057298
    C   C26  0.019195  0.463207  0.537961  -0.310047
    C   C27  0.028708  0.372398  0.522564  0.742049
    C   C28  0.010064  0.637811  0.481806  -0.275695
    C   C29  0.020019  0.544925  0.470654  0.308847
    C   C30  0.030246  0.533068  0.390165  -0.031723
    C   C31  0.041472  0.441551  0.377666  0.258885
    N   N6   0.040154  0.363301  0.443413  -0.702336
    C   C32  0.008803  0.716852  0.413270  -0.115040
    C   C33  0.016966  0.704302  0.333237  0.100303
    C   C34  0.028446  0.612343  0.321711  -0.270180
    H   H16  0.996425  0.393867  0.749401  0.125472
    H   H17  0.035175  0.602213  0.258932  0.153656
    H   H18  0.050931  0.432621  0.314633  0.078294
    H   H19  0.000527  0.538755  0.635759  0.103970
    H   H20  0.002407  0.651271  0.543054  0.154927
    H   H21  0.033003  0.219482  0.575752  0.166570
    H   H22  0.999908  0.789000  0.422428  0.124553
