# generated using pymatgen
data_CuH5C16N(OF3)4
_symmetry_space_group_name_H-M   'P 1'
_cell_length_a   17.43545000
_cell_length_b   11.08928700
_cell_length_c   10.11062900
_cell_angle_alpha   110.75081200
_cell_angle_beta   95.69839200
_cell_angle_gamma   90.82049200
_symmetry_Int_Tables_number   1
_chemical_formula_structural   CuH5C16N(OF3)4
_chemical_formula_sum   'Cu2 H10 C32 N2 O8 F24'
_cell_volume   1816.43654752
_cell_formula_units_Z   2
loop_
 _symmetry_equiv_pos_site_id
 _symmetry_equiv_pos_as_xyz
  1  'x, y, z'
loop_
 _atom_site_type_symbol
 _atom_site_label
 _atom_site_symmetry_multiplicity
 _atom_site_fract_x
 _atom_site_fract_y
 _atom_site_fract_z
 _atom_site_occupancy
  Cu  Cu1  1  0.50578700  0.51872200  0.63831200  1
  Cu  Cu2  1  0.49364100  0.48325600  0.36138500  1
  H  H1  1  0.71793900  0.43095400  0.27367000  1
  H  H2  1  0.28166900  0.56866200  0.72654600  1
  H  H3  1  0.98967800  0.55786100  0.38434500  1
  H  H4  1  0.01053000  0.44245700  0.61692900  1
  H  H5  1  0.90730400  0.55791600  0.69634000  1
  H  H6  1  0.09237600  0.44561800  0.30408300  1
  H  H7  1  0.46611100  0.86453500  0.39706500  1
  H  H8  1  0.53698300  0.13782900  0.60035700  1
  H  H9  1  0.55714400  0.61402900  0.89590100  1
  H  H10  1  0.44237800  0.38685100  0.10446300  1
  C  C1  1  0.48343100  0.25502100  0.43684300  1
  C  C2  1  0.51557000  0.74665500  0.56271500  1
  C  C3  1  0.35176400  0.51607100  0.49579600  1
  C  C4  1  0.64746000  0.48590300  0.50400300  1
  C  C5  1  0.26692800  0.51643700  0.49997000  1
  C  C6  1  0.73250500  0.48574200  0.50049700  1
  C  C7  1  0.21271200  0.48498000  0.37960400  1
  C  C8  1  0.78693800  0.51798100  0.62093800  1
  C  C9  1  0.13489900  0.47633000  0.39593400  1
  C  C10  1  0.86488300  0.52602300  0.60445500  1
  C  C11  1  0.10992200  0.49951000  0.52796800  1
  C  C12  1  0.88994000  0.50124700  0.47230900  1
  C  C13  1  0.16332700  0.53442400  0.64744700  1
  C  C14  1  0.83642100  0.46621100  0.35293800  1
  C  C15  1  0.24079300  0.54294400  0.63241100  1
  C  C16  1  0.75881700  0.45795100  0.36805000  1
  C  C17  1  0.02727600  0.48289500  0.54063300  1
  C  C18  1  0.97274500  0.51634400  0.45952600  1
  C  C19  1  0.47407000  0.11501800  0.40627300  1
  C  C20  1  0.52588000  0.88673700  0.59386200  1
  C  C21  1  0.50435400  0.06980900  0.50673400  1
  C  C22  1  0.49654200  0.93246600  0.49326400  1
  C  C23  1  0.51534200  0.51611000  0.07768600  1
  C  C24  1  0.48580900  0.48330000  0.92119400  1
  C  C25  1  0.23557900  0.45774400  0.23253100  1
  C  C26  1  0.76423200  0.54569500  0.76818400  1
  C  C27  1  0.13770100  0.56387100  0.79257100  1
  C  C28  1  0.86213500  0.43628000  0.20771000  1
  C  C29  1  0.57158200  0.97312900  0.72955200  1
  C  C30  1  0.42822900  0.02859000  0.27165500  1
  C  C31  1  0.41808100  0.38657000  0.85973400  1
  C  C32  1  0.58309500  0.61387500  0.14004700  1
  N  N1  1  0.48524100  0.45685500  0.15359200  1
  N  N2  1  0.51398600  0.54421800  0.84579500  1
  O  O1  1  0.49549800  0.33012200  0.57030300  1
  O  O2  1  0.50359600  0.67168700  0.42916500  1
  O  O3  1  0.47969400  0.30039400  0.33268500  1
  O  O4  1  0.51949600  0.70146000  0.66700200  1
  O  O5  1  0.39386800  0.53281200  0.61610200  1
  O  O6  1  0.60530800  0.46893200  0.38371800  1
  O  O7  1  0.38294700  0.49342500  0.37679800  1
  O  O8  1  0.61624200  0.50833800  0.62276800  1
  F  F1  1  0.17130100  0.43546700  0.13373100  1
  F  F2  1  0.27836600  0.34899000  0.19320400  1
  F  F3  1  0.27781900  0.56315600  0.22964900  1
  F  F4  1  0.82866300  0.56737900  0.86668800  1
  F  F5  1  0.72157100  0.44096100  0.77173500  1
  F  F6  1  0.72195900  0.65497000  0.80732100  1
  F  F7  1  0.08075800  0.65216000  0.81309100  1
  F  F8  1  0.19832100  0.61590800  0.89816500  1
  F  F9  1  0.10946000  0.45140800  0.80421800  1
  F  F10  1  0.89043600  0.54858200  0.19559300  1
  F  F11  1  0.80150300  0.38405300  0.10223700  1
  F  F12  1  0.91917200  0.34797400  0.18702600  1
  F  F13  1  0.60031600  0.90311300  0.81078000  1
  F  F14  1  0.52497400  0.06494100  0.80801600  1
  F  F15  1  0.63338900  0.03293400  0.69722100  1
  F  F16  1  0.39908600  0.09808100  0.19023100  1
  F  F17  1  0.36678800  0.96843300  0.30465600  1
  F  F18  1  0.47504600  0.93721100  0.19324900  1
  F  F19  1  0.43906700  0.26802200  0.86323300  1
  F  F20  1  0.39145900  0.36949200  0.72229100  1
  F  F21  1  0.35714600  0.42870100  0.93969300  1
  F  F22  1  0.64511800  0.57317400  0.06262600  1
  F  F23  1  0.60785800  0.63100400  0.27809100  1
  F  F24  1  0.56206900  0.73209400  0.13599200  1
