# generated using pymatgen
data_Fe2H21C52Br(N3O8)2
_symmetry_space_group_name_H-M   'P 1'
_cell_length_a   14.10278500
_cell_length_b   13.97122200
_cell_length_c   13.08528300
_cell_angle_alpha   93.11919400
_cell_angle_beta   92.25819600
_cell_angle_gamma   110.17561000
_symmetry_Int_Tables_number   1
_chemical_formula_structural   Fe2H21C52Br(N3O8)2
_chemical_formula_sum   'Fe2 H21 C52 Br1 N6 O16'
_cell_volume   2411.78989993
_cell_formula_units_Z   1
loop_
 _symmetry_equiv_pos_site_id
 _symmetry_equiv_pos_as_xyz
  1  'x, y, z'
loop_
 _atom_site_type_symbol
 _atom_site_label
 _atom_site_symmetry_multiplicity
 _atom_site_fract_x
 _atom_site_fract_y
 _atom_site_fract_z
 _atom_site_occupancy
  Fe  Fe1  1  0.51030900  0.00089000  0.27768100  1
  Fe  Fe2  1  0.44559900  0.95823800  0.72899000  1
  H  H1  1  0.67742500  0.77261300  0.74370300  1
  H  H2  1  0.84787500  0.75152100  0.73889300  1
  H  H3  1  0.04035300  0.81950400  0.68320500  1
  H  H4  1  0.28042100  0.93210300  0.99867300  1
  H  H5  1  0.28278400  0.19538600  0.25628500  1
  H  H6  1  0.11327500  0.21801800  0.25967700  1
  H  H7  1  0.67566300  0.02559400  0.01098000  1
  H  H8  1  0.99409800  0.87545600  0.99598800  1
  H  H9  1  0.96100600  0.08252500  0.01210700  1
  H  H10  1  0.53985900  0.64461000  0.30481100  1
  H  H11  1  0.41328300  0.65299900  0.64774500  1
  H  H12  1  0.41083700  0.48573500  0.66960000  1
  H  H13  1  0.41532200  0.32074900  0.69733200  1
  H  H14  1  0.54400400  0.29845800  0.35744000  1
  H  H15  1  0.41205300  0.40622700  0.22391800  1
  H  H16  1  0.66269000  0.46185200  0.04294800  1
  H  H17  1  0.71187200  0.53593900  0.36089600  1
  H  H18  1  0.00761600  0.05546800  0.38343600  1
  H  H19  1  0.04964300  0.11828000  0.56418800  1
  H  H20  1  0.89377200  0.32758700  0.52618700  1
  H  H21  1  0.85210700  0.26560400  0.34494500  1
  C  C1  1  0.67952300  0.89107500  0.86218000  1
  C  C2  1  0.71554700  0.82501300  0.80850400  1
  C  C3  1  0.81281800  0.84507700  0.84784200  1
  C  C4  1  0.75530400  0.94638300  0.93463000  1
  C  C5  1  0.87563300  0.80347300  0.80673800  1
  C  C6  1  0.98454400  0.83815200  0.83463200  1
  C  C7  1  0.05536900  0.84084300  0.76447800  1
  C  C8  1  0.14854500  0.88037800  0.81714800  1
  C  C9  1  0.13082200  0.89932300  0.91853000  1
  C  C10  1  0.20919400  0.94484500  0.00218100  1
  C  C11  1  0.20142000  0.01295500  0.07363700  1
  C  C12  1  0.27856100  0.07149200  0.14321200  1
  C  C13  1  0.24364000  0.14023100  0.19379800  1
  C  C14  1  0.14542000  0.11799700  0.15618600  1
  C  C15  1  0.08318000  0.16107600  0.19601300  1
  C  C16  1  0.97311300  0.12156000  0.17294600  1
  C  C17  1  0.90307500  0.12015400  0.24403900  1
  C  C18  1  0.80842300  0.07878300  0.19304500  1
  C  C19  1  0.82531000  0.05797800  0.09156400  1
  C  C20  1  0.74665200  0.01231800  0.00803200  1
  C  C21  1  0.71116500  0.05156100  0.24222800  1
  C  C22  1  0.51514100  0.81872600  0.35219700  1
  C  C23  1  0.37716000  0.06352300  0.16928100  1
  C  C24  1  0.49290300  0.12658000  0.43879200  1
  C  C25  1  0.51251000  0.64508100  0.38055900  1
  C  C26  1  0.49563400  0.73208100  0.41769700  1
  C  C27  1  0.46058600  0.73521500  0.51525600  1
  C  C28  1  0.43845300  0.64991700  0.57110700  1
  C  C29  1  0.45714700  0.56413200  0.53447100  1
  C  C30  1  0.49536600  0.56141000  0.43941500  1
  C  C31  1  0.44048800  0.48262500  0.59505700  1
  C  C32  1  0.46152900  0.39728100  0.56122900  1
  C  C33  1  0.49997900  0.39361800  0.46640400  1
  C  C34  1  0.51665600  0.47550200  0.40480000  1
  C  C35  1  0.44351200  0.31559000  0.62238800  1
  C  C36  1  0.46030100  0.22753300  0.58812000  1
  C  C37  1  0.49559300  0.22274100  0.49097900  1
  C  C38  1  0.51839700  0.30637500  0.43288800  1
  C  C39  1  0.49309800  0.43362700  0.21771400  1
  C  C40  1  0.63264000  0.46460600  0.11734700  1
  C  C41  1  0.66030800  0.50591500  0.29410800  1
  C  C42  1  0.55732100  0.47161900  0.30395600  1
  C  C43  1  0.58041600  0.89835600  0.83747000  1
  C  C44  1  0.46354100  0.83109600  0.56897100  1
  C  C45  1  0.24434700  0.90466000  0.76683300  1
  C  C46  1  0.44127700  0.14170500  0.65500000  1
  C  C47  1  0.92682500  0.15626300  0.35255100  1
  C  C48  1  0.98269900  0.11550800  0.41433900  1
  C  C49  1  0.00613000  0.15052500  0.51598900  1
  C  C50  1  0.97416700  0.22664200  0.55620100  1
  C  C51  1  0.91864000  0.26771400  0.49472500  1
  C  C52  1  0.89505600  0.23267100  0.39305500  1
  Br  Br1  1  0.00689600  0.27517500  0.69668900  1
  N  N1  1  0.83727100  0.91825300  0.92566500  1
  N  N2  1  0.03021300  0.87302900  0.92844400  1
  N  N3  1  0.11945800  0.04115800  0.08197700  1
  N  N4  1  0.92578000  0.08469100  0.08028300  1
  N  N5  1  0.53173700  0.43070100  0.12573900  1
  N  N6  1  0.69639400  0.50191900  0.20096500  1
  O  O1  1  0.62449400  0.02370500  0.18770000  1
  O  O2  1  0.57759800  0.82872200  0.27859000  1
  O  O3  1  0.71054700  0.05082000  0.34236200  1
  O  O4  1  0.46649800  0.88324800  0.36420500  1
  O  O5  1  0.38489100  0.97444800  0.18635800  1
  O  O6  1  0.45129100  0.14725100  0.20261300  1
  O  O7  1  0.56131700  0.12763100  0.37321100  1
  O  O8  1  0.40944900  0.04657400  0.43699100  1
  O  O9  1  0.57192000  0.98696700  0.81968300  1
  O  O10  1  0.50646500  0.81415100  0.80499600  1
  O  O11  1  0.39529300  0.83034800  0.63479600  1
  O  O12  1  0.54638800  0.91161600  0.56956700  1
  O  O13  1  0.38113800  0.13394600  0.73046400  1
  O  O14  1  0.33198300  0.93512500  0.81987500  1
  O  O15  1  0.48741300  0.07497800  0.64115500  1
  O  O16  1  0.24173800  0.89795100  0.66634100  1
