# Generated by REPEAT Assigner based on pymatgen
data_DB0-m2_o6_o24_f0_nbo.sym.57_sqe
_audit_creation_date              2022-05-24
_audit_creation_method            REPEAT_Assigner
_cell_length_a                    37.873569
_cell_length_b                    32.071589
_cell_length_c                    21.196052
_cell_angle_alpha                 90.000000
_cell_angle_beta                  122.325135
_cell_angle_gamma                 90.000000
_cell_volume                      21756.170642
_symmetry_space_group_name_H-M    P1
_symmetry_Int_Tables_number       1
loop_
    _symmetry_equiv_pos_site_id
    _symmetry_equiv_pos_as_xyz
    1  x,y,z
loop_
    _atom_site_type_symbol
    _atom_site_label
    _atom_site_fract_x
    _atom_site_fract_y
    _atom_site_fract_z
    _atom_type_partial_charge
    O   O1    0.939755  0.043156  0.431206  -0.539952
    O   O2    0.060245  0.043156  0.568794  -0.539958
    O   O3    0.439755  0.543156  0.431206  -0.540010
    O   O4    0.560245  0.543156  0.568794  -0.540011
    O   O5    0.941414  0.974449  0.467944  -0.609415
    O   O6    0.058586  0.974449  0.532056  -0.609413
    O   O7    0.441414  0.474449  0.467944  -0.609435
    O   O8    0.558586  0.474449  0.532056  -0.609440
    C   C1    0.921050  0.008674  0.432466  0.785671
    C   C2    0.078950  0.008674  0.567534  0.785693
    C   C3    0.421050  0.508674  0.432466  0.785767
    C   C4    0.578950  0.508674  0.567534  0.785819
    O   O9    0.992521  0.043240  0.583803  -0.630233
    O   O10   0.007479  0.043240  0.416197  -0.630241
    O   O11   0.492521  0.543240  0.583803  -0.630255
    O   O12   0.507479  0.543240  0.416197  -0.630276
    O   O13   0.015947  0.974525  0.603608  -0.602477
    O   O14   0.984053  0.974525  0.396391  -0.602477
    O   O15   0.515947  0.474525  0.603608  -0.602511
    O   O16   0.484053  0.474525  0.396391  -0.602492
    C   C5    0.005907  0.008991  0.624545  0.674887
    C   C6    0.994093  0.008991  0.375455  0.674898
    C   C7    0.505907  0.508991  0.624545  0.674863
    C   C8    0.494093  0.508991  0.375455  0.674785
    Cu  Cu1   0.000000  0.049567  0.500000  0.925065
    Cu  Cu2   0.500000  0.549567  0.500000  0.925048
    Cu  Cu3   0.000000  0.968152  0.500000  0.992083
    Cu  Cu4   0.500000  0.468152  0.500000  0.992177
    C   C9    0.966864  0.006182  0.695555  -0.009110
    C   C10   0.033136  0.006182  0.304445  -0.009128
    C   C11   0.466864  0.506182  0.695555  -0.009130
    C   C12   0.533136  0.506182  0.304445  -0.009077
    C   C13   0.985150  0.970361  0.751065  -0.092598
    C   C14   0.014850  0.970361  0.248935  -0.092585
    C   C15   0.485150  0.470361  0.751065  -0.092576
    C   C16   0.514850  0.470361  0.248935  -0.092631
    H   H1    0.968372  0.941740  0.749846  0.049373
    H   H2    0.031628  0.941740  0.250154  0.049371
    H   H3    0.468372  0.441740  0.749846  0.049368
    H   H4    0.531628  0.441740  0.250154  0.049370
    H   H5    0.934841  0.007618  0.645113  0.050894
    H   H6    0.065159  0.007618  0.354887  0.050895
    H   H7    0.434841  0.507618  0.645113  0.050895
    H   H8    0.565159  0.507618  0.354887  0.050863
    C   C17   0.004254  0.001669  0.813692  0.327699
    C   C18   0.995746  0.001669  0.186307  0.327701
    C   C19   0.504254  0.501669  0.813692  0.327641
    C   C20   0.495746  0.501669  0.186307  0.327674
    C   C21   0.985900  0.037402  0.759378  -0.209120
    C   C22   0.014100  0.037402  0.240621  -0.209100
    C   C23   0.485900  0.537402  0.759378  -0.209110
    C   C24   0.514100  0.537402  0.240621  -0.209054
    C   C25   0.025526  0.038646  0.758209  0.312672
    C   C26   0.974474  0.038646  0.241791  0.312650
    C   C27   0.525526  0.538646  0.758209  0.312624
    C   C28   0.474474  0.538646  0.241791  0.313036
    C   C29   0.044071  0.003166  0.813943  -0.270965
    C   C30   0.955929  0.003166  0.186057  -0.270963
    C   C31   0.544071  0.503166  0.813943  -0.270933
    C   C32   0.455929  0.503166  0.186057  -0.271336
    C   C33   0.024830  0.971923  0.749672  -0.024132
    C   C34   0.975170  0.971923  0.250328  -0.024146
    C   C35   0.524830  0.471923  0.749672  -0.024172
    C   C36   0.475170  0.471923  0.250328  -0.024009
    C   C37   0.006521  0.007785  0.695008  -0.003403
    C   C38   0.993479  0.007785  0.304992  -0.003379
    C   C39   0.506521  0.507785  0.695008  -0.003310
    C   C40   0.493479  0.507785  0.304992  -0.003371
    H   H9    0.969878  0.064709  0.765146  0.077955
    H   H10   0.030122  0.064709  0.234854  0.077950
    H   H11   0.469878  0.564709  0.765146  0.077953
    H   H12   0.530122  0.564709  0.234854  0.077872
    H   H13   0.075754  0.000135  0.864657  0.093628
    H   H14   0.924246  0.000135  0.135343  0.093627
    H   H15   0.575754  0.500135  0.864657  0.093622
    H   H16   0.424246  0.500135  0.135343  0.093716
    H   H17   0.041174  0.944628  0.744749  0.054910
    H   H18   0.958826  0.944628  0.255251  0.054915
    H   H19   0.541174  0.444628  0.744749  0.054920
    H   H20   0.458826  0.444628  0.255251  0.054897
    C   C41   0.730724  0.980170  0.196453  -0.427908
    C   C42   0.269276  0.980170  0.803547  -0.427929
    C   C43   0.230724  0.480170  0.196453  -0.427928
    C   C44   0.769276  0.480170  0.803547  -0.427964
    H   H21   0.713812  0.961808  0.146137  0.207228
    H   H22   0.286188  0.961808  0.853863  0.207229
    H   H23   0.213812  0.461808  0.146137  0.207228
    H   H24   0.786188  0.461808  0.853863  0.207232
    C   C45   0.707414  0.002204  0.217553  0.330899
    C   C46   0.292586  0.002204  0.782447  0.330930
    C   C47   0.207414  0.502204  0.217553  0.330902
    C   C48   0.792586  0.502204  0.782447  0.330953
    C   C49   0.727040  0.025515  0.282114  -0.283332
    C   C50   0.272960  0.025515  0.717886  -0.283338
    C   C51   0.227040  0.525515  0.282114  -0.283322
    C   C52   0.772960  0.525515  0.717886  -0.283352
    H   H25   0.708718  0.042815  0.298520  0.167134
    H   H26   0.291282  0.042815  0.701480  0.167133
    H   H27   0.208718  0.542815  0.298520  0.167133
    H   H28   0.791282  0.542815  0.701480  0.167137
    C   C53   0.770038  0.026585  0.325974  -0.094421
    C   C54   0.229962  0.026585  0.674026  -0.094416
    C   C55   0.270038  0.526585  0.325974  -0.094432
    C   C56   0.729962  0.526585  0.674026  -0.094400
    H   H29   0.785400  0.044681  0.376879  0.128752
    H   H30   0.214600  0.044681  0.623121  0.128751
    H   H31   0.285400  0.544681  0.376879  0.128751
    H   H32   0.714600  0.544681  0.623121  0.128749
    C   C57   0.793585  0.004761  0.305129  -0.007580
    C   C58   0.206415  0.004761  0.694871  -0.007597
    C   C59   0.293585  0.504761  0.305129  -0.007600
    C   C60   0.706415  0.504761  0.694871  -0.007647
    C   C61   0.774157  0.981791  0.239524  0.339298
    C   C62   0.225843  0.981791  0.760476  0.339309
    C   C63   0.274157  0.481791  0.239524  0.339338
    C   C64   0.725843  0.481791  0.760476  0.339364
    C   C65   0.662533  0.001117  0.171456  -0.080924
    C   C66   0.337467  0.001117  0.828544  -0.080965
    C   C67   0.162533  0.501117  0.171456  -0.080917
    C   C68   0.837467  0.501117  0.828544  -0.080971
    C   C69   0.838464  0.006370  0.351879  0.046156
    C   C70   0.161536  0.006370  0.648121  0.046176
    C   C71   0.338464  0.506370  0.351879  0.046180
    C   C72   0.661536  0.506370  0.648121  0.046234
    C   C73   0.876140  0.007565  0.389674  -0.260745
    C   C74   0.123860  0.007565  0.610326  -0.260770
    C   C75   0.376140  0.507565  0.389674  -0.260794
    C   C76   0.623860  0.507565  0.610326  -0.260847
    C   C77   0.624883  0.000431  0.132214  -0.222097
    C   C78   0.375117  0.000431  0.867786  -0.222037
    C   C79   0.124883  0.500431  0.132214  -0.222110
    C   C80   0.875117  0.500431  0.867786  -0.222037
    O   O17   0.036023  0.938906  0.033467  -0.636638
    O   O18   0.963977  0.938906  0.966533  -0.636645
    O   O19   0.536023  0.438906  0.033467  -0.636654
    O   O20   0.463977  0.438906  0.966533  -0.636637
    C   C81   0.000000  0.919507  0.000000  0.872130
    C   C82   0.500000  0.419507  0.000000  0.872171
    O   O21   0.038226  0.001102  0.946569  -0.591887
    O   O22   0.961774  0.001102  0.053430  -0.591891
    O   O23   0.538226  0.501102  0.946569  -0.591913
    O   O24   0.461774  0.501102  0.053430  -0.591903
    O   O25   0.966178  0.001108  0.874358  -0.620866
    O   O26   0.033822  0.001108  0.125642  -0.620848
    O   O27   0.466178  0.501108  0.874358  -0.620872
    O   O28   0.533822  0.501108  0.125642  -0.620888
    C   C83   0.002805  0.999431  0.881910  0.522643
    C   C84   0.997195  0.999431  0.118090  0.522605
    C   C85   0.502805  0.499431  0.881910  0.522686
    C   C86   0.497195  0.499431  0.118090  0.522697
    Cu  Cu5   0.041649  0.999508  0.041756  1.019006
    Cu  Cu6   0.958351  0.999508  0.958244  1.018958
    Cu  Cu7   0.541649  0.499508  0.041756  1.018989
    Cu  Cu8   0.458351  0.499508  0.958244  1.019002
    O   O29   0.036116  0.060127  0.033650  -0.616965
    O   O30   0.963884  0.060127  0.966350  -0.616972
    O   O31   0.536116  0.560127  0.033650  -0.616991
    O   O32   0.463884  0.560127  0.966350  -0.616986
    C   C87   0.000000  0.079510  0.000000  0.899865
    C   C88   0.500000  0.579510  0.000000  0.899793
    O   O33   0.499275  0.939009  0.053805  -0.603364
    O   O34   0.500725  0.939009  0.946195  -0.603387
    O   O35   0.999275  0.439009  0.053805  -0.603382
    O   O36   0.000725  0.439009  0.946195  -0.603354
    C   C89   0.500000  0.919615  0.000000  0.831892
    C   C90   0.000000  0.419615  0.000000  0.831817
    O   O37   0.558235  0.998037  0.116456  -0.596671
    O   O38   0.441765  0.998037  0.883544  -0.596670
    O   O39   0.058235  0.498037  0.116456  -0.596670
    O   O40   0.941765  0.498037  0.883544  -0.596647
    O   O41   0.562967  0.998113  0.012460  -0.624113
    O   O42   0.437033  0.998113  0.987540  -0.624035
    O   O43   0.062967  0.498113  0.012460  -0.624047
    O   O44   0.937033  0.498113  0.987540  -0.624054
    C   C91   0.580031  0.000047  0.084967  0.812525
    C   C92   0.419969  0.000047  0.915033  0.812422
    C   C93   0.080031  0.500047  0.084967  0.812486
    C   C94   0.919969  0.500047  0.915033  0.812427
    Cu  Cu9   0.497236  0.999629  0.060081  1.024360
    Cu  Cu10  0.502764  0.999629  0.939919  1.024241
    Cu  Cu11  0.997236  0.499629  0.060081  1.024285
    Cu  Cu12  0.002764  0.499629  0.939919  1.024327
    O   O45   0.499392  0.060233  0.053797  -0.619144
    O   O46   0.500608  0.060233  0.946203  -0.619145
    O   O47   0.999392  0.560233  0.053797  -0.619191
    O   O48   0.000608  0.560233  0.946203  -0.619154
    C   C95   0.500000  0.079638  0.000000  0.759183
    C   C96   0.000000  0.579638  0.000000  0.759255
    H   H33   0.952710  0.787930  0.025532  0.151592
    H   H34   0.047290  0.787930  0.974468  0.151591
    H   H35   0.452710  0.287930  0.025532  0.151587
    H   H36   0.547290  0.287930  0.974468  0.151583
    C   C97   0.473487  0.228082  0.014316  -0.182746
    C   C98   0.526513  0.228082  0.985684  -0.182750
    C   C99   0.973487  0.728082  0.014316  -0.182734
    C   C100  0.026513  0.728082  0.985684  -0.182734
    H   H37   0.452711  0.211215  0.025535  0.145203
    H   H38   0.547289  0.211215  0.974465  0.145200
    H   H39   0.952711  0.711215  0.025535  0.145199
    H   H40   0.047289  0.711215  0.974465  0.145196
    C   C101  0.500000  0.206609  0.000000  0.272482
    C   C102  0.000000  0.706609  0.000000  0.272478
    C   C103  0.026514  0.771063  0.985685  -0.174975
    C   C104  0.973486  0.771063  0.014315  -0.174982
    C   C105  0.526514  0.271063  0.985685  -0.174953
    C   C106  0.473486  0.271063  0.014315  -0.174965
    C   C107  0.000000  0.792536  0.000000  0.226624
    C   C108  0.500000  0.292536  0.000000  0.226598
    C   C109  0.500000  0.161900  0.000000  -0.122602
    C   C110  0.000000  0.661900  0.000000  -0.122594
    C   C111  0.000000  0.837245  0.000000  -0.060379
    C   C112  0.500000  0.337245  0.000000  -0.060351
    C   C113  0.000000  0.874798  0.000000  -0.252634
    C   C114  0.500000  0.374798  0.000000  -0.252684
    C   C115  0.500000  0.124347  0.000000  -0.149511
    C   C116  0.000000  0.624347  0.000000  -0.149543
    H   H41   0.955683  0.211205  0.882688  0.149873
    H   H42   0.044317  0.211205  0.117312  0.149838
    H   H43   0.455683  0.711205  0.882688  0.149873
    H   H44   0.544317  0.711205  0.117312  0.149842
    C   C117  0.475156  0.771059  0.934235  -0.175923
    C   C118  0.524844  0.771059  0.065764  -0.175968
    C   C119  0.975156  0.271059  0.934235  -0.175924
    C   C120  0.024844  0.271059  0.065764  -0.175969
    H   H45   0.455683  0.787916  0.882688  0.146423
    H   H46   0.544317  0.787916  0.117312  0.146428
    H   H47   0.955683  0.287916  0.882688  0.146422
    H   H48   0.044317  0.287916  0.117312  0.146427
    C   C121  0.500000  0.792557  0.000000  0.262505
    C   C122  0.000000  0.292557  0.000000  0.262534
    C   C123  0.024844  0.228063  0.065764  -0.188932
    C   C124  0.975156  0.228063  0.934235  -0.189027
    C   C125  0.524844  0.728063  0.065764  -0.188943
    C   C126  0.475156  0.728063  0.934235  -0.189032
    C   C127  0.000000  0.206565  0.000000  0.239555
    C   C128  0.500000  0.706565  0.000000  0.239597
    C   C129  0.500000  0.837299  0.000000  -0.091125
    C   C130  0.000000  0.337299  0.000000  -0.091178
    C   C131  0.000000  0.161823  0.000000  -0.039940
    C   C132  0.500000  0.661823  0.000000  -0.040010
    C   C133  0.000000  0.124251  0.000000  -0.296690
    C   C134  0.500000  0.624251  0.000000  -0.296606
    C   C135  0.500000  0.874872  0.000000  -0.219398
    C   C136  0.000000  0.374872  0.000000  -0.219323
    C   C137  0.045525  0.080575  0.762415  -0.262916
    C   C138  0.088268  0.076263  0.775947  0.214478
    C   C139  0.095518  0.087419  0.720972  -0.227996
    C   C140  0.135310  0.085197  0.734285  -0.061209
    C   C141  0.168107  0.072266  0.802874  -0.051421
    C   C142  0.161224  0.062486  0.858716  -0.168097
    C   C143  0.121493  0.064906  0.845545  -0.199740
    H   H49   0.047704  0.099040  0.808599  0.062334
    H   H50   0.024982  0.097621  0.709539  0.071231
    H   H51   0.070173  0.098320  0.667442  0.136314
    H   H52   0.140807  0.093766  0.690926  0.080768
    H   H53   0.199283  0.070436  0.813217  0.066530
    H   H54   0.187055  0.053430  0.913221  0.109865
    H   H55   0.116763  0.058696  0.890574  0.137088
    C   C144  0.954476  0.080575  0.237585  -0.262873
    C   C145  0.911733  0.076263  0.224052  0.214482
    C   C146  0.904482  0.087419  0.279028  -0.228104
    C   C147  0.864690  0.085197  0.265715  -0.061161
    C   C148  0.831893  0.072266  0.197126  -0.051411
    C   C149  0.838776  0.062486  0.141284  -0.168108
    C   C150  0.878507  0.064906  0.154455  -0.199719
    H   H56   0.952296  0.099040  0.191401  0.062327
    H   H57   0.975018  0.097621  0.290461  0.071218
    H   H58   0.929827  0.098320  0.332557  0.136368
    H   H59   0.859193  0.093766  0.309074  0.080753
    H   H60   0.800717  0.070437  0.186783  0.066525
    H   H61   0.812945  0.053430  0.086779  0.109867
    H   H62   0.883237  0.058696  0.109426  0.137072
    C   C151  0.545525  0.580575  0.762415  -0.262895
    C   C152  0.588268  0.576263  0.775947  0.214456
    C   C153  0.595518  0.587419  0.720972  -0.227979
    C   C154  0.635310  0.585197  0.734285  -0.061217
    C   C155  0.668107  0.572266  0.802874  -0.051421
    C   C156  0.661224  0.562486  0.858716  -0.168095
    C   C157  0.621493  0.564906  0.845545  -0.199732
    H   H63   0.547704  0.599040  0.808599  0.062335
    H   H64   0.524982  0.597621  0.709539  0.071229
    H   H65   0.570173  0.598320  0.667442  0.136310
    H   H66   0.640807  0.593766  0.690926  0.080773
    H   H67   0.699283  0.570436  0.813217  0.066529
    H   H68   0.687055  0.553430  0.913221  0.109865
    H   H69   0.616763  0.558696  0.890574  0.137085
    C   C158  0.454476  0.580575  0.237585  -0.262912
    C   C159  0.411733  0.576263  0.224052  0.214322
    C   C160  0.404482  0.587419  0.279028  -0.227900
    C   C161  0.364690  0.585197  0.265715  -0.061372
    C   C162  0.331893  0.572266  0.197126  -0.051308
    C   C163  0.338776  0.562486  0.141284  -0.168164
    C   C164  0.378507  0.564906  0.154455  -0.199610
    H   H70   0.452296  0.599040  0.191401  0.062319
    H   H71   0.475018  0.597621  0.290461  0.071202
    H   H72   0.429827  0.598320  0.332557  0.136328
    H   H73   0.359193  0.593766  0.309074  0.080833
    H   H74   0.300717  0.570437  0.186783  0.066502
    H   H75   0.312945  0.553430  0.086779  0.109873
    H   H76   0.383237  0.558696  0.109426  0.137038
    C   C165  0.800985  0.958568  0.218688  -0.450431
    C   C166  0.776808  0.940537  0.141998  0.360138
    C   C167  0.771368  0.897931  0.132030  -0.265208
    C   C168  0.749601  0.881423  0.060965  -0.067307
    C   C169  0.733479  0.907360  0.999778  -0.149232
    C   C170  0.739188  0.949853  0.009610  -0.033571
    C   C171  0.760938  0.966417  0.080598  -0.314120
    H   H77   0.817660  0.933292  0.259908  0.120791
    H   H78   0.824539  0.980009  0.220695  0.148580
    H   H79   0.783857  0.877293  0.179586  0.131760
    H   H80   0.745200  0.848090  0.053227  0.104137
    H   H81   0.716424  0.894370  0.944103  0.106267
    H   H82   0.726609  0.970200  0.961654  0.091717
    H   H83   0.765200  0.999750  0.088059  0.166767
    C   C172  0.199015  0.958568  0.781312  -0.450432
    C   C173  0.223192  0.940537  0.858001  0.360147
    C   C174  0.228632  0.897931  0.867970  -0.265208
    C   C175  0.250399  0.881423  0.939035  -0.067308
    C   C176  0.266521  0.907360  0.000222  -0.149235
    C   C177  0.260812  0.949853  0.990389  -0.033571
    C   C178  0.239062  0.966417  0.919402  -0.314116
    H   H84   0.182340  0.933292  0.740092  0.120787
    H   H85   0.175461  0.980009  0.779305  0.148582
    H   H86   0.216143  0.877293  0.820413  0.131755
    H   H87   0.254800  0.848090  0.946773  0.104138
    H   H88   0.283576  0.894370  0.055897  0.106270
    H   H89   0.273391  0.970200  0.038346  0.091712
    H   H90   0.234801  0.999750  0.911940  0.166764
    C   C179  0.300985  0.458568  0.218688  -0.450456
    C   C180  0.276808  0.440537  0.141998  0.360135
    C   C181  0.271368  0.397931  0.132030  -0.265199
    C   C182  0.249601  0.381423  0.060965  -0.067315
    C   C183  0.233479  0.407360  0.999778  -0.149231
    C   C184  0.239188  0.449853  0.009610  -0.033572
    C   C185  0.260938  0.466417  0.080598  -0.314111
    H   H91   0.317660  0.433292  0.259908  0.120797
    H   H92   0.324539  0.480009  0.220695  0.148585
    H   H93   0.283857  0.377293  0.179586  0.131757
    H   H94   0.245200  0.348090  0.053227  0.104139
    H   H95   0.216424  0.394370  0.944103  0.106267
    H   H96   0.226609  0.470200  0.961654  0.091715
    H   H97   0.265200  0.499750  0.088059  0.166764
    C   C186  0.699015  0.458568  0.781312  -0.450481
    C   C187  0.723192  0.440537  0.858001  0.360171
    C   C188  0.728632  0.397931  0.867970  -0.265213
    C   C189  0.750399  0.381423  0.939035  -0.067314
    C   C190  0.766521  0.407360  0.000222  -0.149238
    C   C191  0.760812  0.449853  0.990389  -0.033574
    C   C192  0.739062  0.466417  0.919402  -0.314114
    H   H98   0.682340  0.433292  0.740092  0.120795
    H   H99   0.675461  0.480009  0.779305  0.148589
    H   H100  0.716143  0.377293  0.820413  0.131756
    H   H101  0.754800  0.348090  0.946773  0.104141
    H   H102  0.783576  0.394370  0.055897  0.106272
    H   H103  0.773391  0.470200  0.038346  0.091714
    H   H104  0.734801  0.499750  0.911940  0.166763
