# Generated by REPEAT Assigner based on pymatgen
data_DB0-m9_o18_o20_f0_sra.sym.2
_audit_creation_date              2022-05-24
_audit_creation_method            REPEAT_Assigner
_cell_length_a                    6.316254
_cell_length_b                    17.121409
_cell_length_c                    22.457577
_cell_angle_alpha                 90.326363
_cell_angle_beta                  90.767818
_cell_angle_gamma                 89.006438
_cell_volume                      2428.014093
_symmetry_space_group_name_H-M    P1
_symmetry_Int_Tables_number       1
loop_
    _symmetry_equiv_pos_site_id
    _symmetry_equiv_pos_as_xyz
    1  x,y,z
loop_
    _atom_site_type_symbol
    _atom_site_label
    _atom_site_fract_x
    _atom_site_fract_y
    _atom_site_fract_z
    _atom_type_partial_charge
    O  O1   0.571279  0.771978  0.822943  -0.456741
    O  O2   0.429047  0.228098  0.177103  -0.456752
    O  O3   0.375143  0.681729  0.807886  -0.252351
    O  O4   0.625185  0.318348  0.192164  -0.251712
    O  O5   0.155726  0.657910  0.702740  -0.518030
    O  O6   0.844592  0.342150  0.297315  -0.517483
    C  C1   0.490786  0.625003  0.783881  0.554041
    C  C2   0.509400  0.375064  0.216134  0.552349
    O  O7   0.271747  0.842366  0.801702  -0.533035
    O  O8   0.728580  0.157708  0.198336  -0.533072
    O  O9   0.059441  0.818219  0.696970  -0.225619
    O  O10  0.940881  0.181843  0.303073  -0.225147
    C  C3   0.449300  0.834201  0.831641  0.759977
    C  C4   0.551023  0.165875  0.168400  0.760091
    O  O11  0.652885  0.640083  0.750154  -0.517305
    O  O12  0.347443  0.359979  0.249910  -0.516293
    O  O13  0.460578  0.767536  0.705660  -0.576677
    O  O14  0.539748  0.232520  0.294386  -0.576717
    V  V1   0.189665  0.747903  0.756731  0.997231
    V  V2   0.810656  0.252165  0.243315  0.996383
    O  O15  0.774280  0.863872  0.745090  -0.528260
    O  O16  0.226033  0.136190  0.254952  -0.528114
    C  C5   0.945419  0.876773  0.716182  0.569220
    C  C6   0.054856  0.123289  0.283843  0.568749
    O  O17  0.862929  0.731789  0.671712  -0.487581
    O  O18  0.137397  0.268265  0.328338  -0.487030
    C  C7   0.985189  0.667080  0.668280  0.771288
    C  C8   0.015132  0.332974  0.331774  0.770257
    V  V3   0.688883  0.753514  0.742923  1.384749
    V  V4   0.311443  0.246547  0.257125  1.384771
    O  O19  0.966666  0.731190  0.793395  -0.520460
    O  O20  0.033660  0.268881  0.206655  -0.520250
    C  C9   0.979002  0.618557  0.614526  -0.309342
    C  C10  0.021321  0.381492  0.385530  -0.309410
    C  C11  0.983443  0.575243  0.571153  0.134535
    C  C12  0.016878  0.424804  0.428904  0.135262
    C  C13  0.994684  0.522576  0.521136  -0.044243
    C  C14  0.005636  0.477470  0.478921  -0.045141
    C  C15  0.940110  0.945222  0.679708  -0.100353
    C  C16  0.060037  0.054812  0.320287  -0.099776
    C  C17  0.784062  0.066382  0.651919  -0.161038
    C  C18  0.215855  0.933603  0.348051  -0.161474
    C  C19  0.820799  0.010162  0.694356  -0.093102
    C  C20  0.179278  0.989858  0.305630  -0.092870
    C  C21  0.024249  0.936170  0.624564  -0.163716
    C  C22  0.975791  0.063839  0.375420  -0.164735
    C  C23  0.974793  0.988734  0.580414  0.192716
    C  C24  0.025062  0.011232  0.419553  0.192609
    C  C25  0.854856  0.054241  0.594745  0.010337
    C  C26  0.144966  0.945720  0.405219  0.010915
    C  C27  0.032351  0.974131  0.521942  0.006905
    C  C28  0.967413  0.025813  0.478021  0.007507
    C  C29  0.849392  0.092081  0.493390  -0.351984
    C  C30  0.150283  0.907844  0.506566  -0.351679
    C  C31  0.795675  0.106225  0.551412  0.182032
    C  C32  0.204020  0.893706  0.448544  0.181523
    H  H1   0.892290  0.117856  0.383224  0.081017
    H  H2   0.107874  0.882175  0.616774  0.080531
    H  H3   0.249582  0.984425  0.262153  0.108387
    H  H4   0.750573  0.015610  0.737842  0.108470
    H  H5   0.687581  0.117334  0.662191  0.121626
    H  H6   0.312296  0.882642  0.337775  0.121778
    H  H7   0.791647  0.134129  0.461652  0.213821
    H  H8   0.207901  0.865764  0.538297  0.213893
    C  C33  0.515389  0.556324  0.819649  -0.131021
    C  C34  0.484418  0.443667  0.180298  -0.130176
    C  C35  0.697741  0.439083  0.844737  -0.289915
    C  C36  0.301409  0.560749  0.155149  -0.287395
    C  C37  0.642738  0.494396  0.802983  -0.012939
    C  C38  0.356839  0.505540  0.196940  -0.015048
    C  C39  0.440373  0.563062  0.875992  -0.115163
    C  C40  0.559194  0.436868  0.123931  -0.113170
    C  C41  0.507062  0.511658  0.919218  0.067960
    C  C42  0.491992  0.488137  0.080666  0.065885
    C  C43  0.635996  0.449338  0.902988  0.268290
    C  C44  0.362934  0.550430  0.096885  0.268197
    C  C45  0.457818  0.524741  0.978501  0.025665
    C  C46  0.541001  0.474985  0.021374  0.028652
    C  C47  0.668555  0.411963  0.004197  -0.142629
    C  C48  0.330011  0.587697  0.995662  -0.139614
    C  C49  0.713122  0.399016  0.945372  -0.282886
    C  C50  0.285461  0.600658  0.054486  -0.284796
    H  H9   0.815490  0.350626  0.932737  0.143119
    H  H10  0.182913  0.649000  0.067111  0.143543
    H  H11  0.650381  0.384943  0.114766  0.068627
    H  H12  0.349576  0.615068  0.885197  0.069639
    H  H13  0.294366  0.509123  0.241464  0.095810
    H  H14  0.705389  0.490853  0.758478  0.095384
    H  H15  0.801250  0.390661  0.832909  0.144265
    H  H16  0.197765  0.609136  0.166966  0.143508
    H  H17  0.740872  0.371731  0.035046  0.158540
    H  H18  0.257347  0.627826  0.964795  0.157786
    C  C51  0.475500  0.882832  0.884838  -0.292695
    C  C52  0.524809  0.117247  0.115202  -0.292422
    C  C53  0.488113  0.925805  0.928265  0.125019
    C  C54  0.512188  0.074275  0.071774  0.124408
    C  C55  0.497055  0.977801  0.978693  -0.038708
    C  C56  0.503243  0.022279  0.021346  -0.037788
    C  C57  0.665681  0.176447  0.566842  -0.295452
    H  H19  0.630965  0.210666  0.525974  0.081472
    H  H20  0.515025  0.158029  0.586829  0.082158
    H  H21  0.754050  0.213058  0.599242  0.090064
    C  C58  0.333937  0.823467  0.433109  -0.295416
    H  H22  0.368571  0.789228  0.473973  0.081572
    H  H23  0.245551  0.786883  0.400695  0.090019
    H  H24  0.484638  0.841865  0.413137  0.082170
