# Generated by REPEAT Assigner based on pymatgen
data_DB0-m3_o10_o25_f0_pcu.sym.23_sqe
_audit_creation_date              2022-05-24
_audit_creation_method            REPEAT_Assigner
_cell_length_a                    7.736329
_cell_length_b                    8.897151
_cell_length_c                    15.993569
_cell_angle_alpha                 89.997513
_cell_angle_beta                  83.938732
_cell_angle_gamma                 91.443805
_cell_volume                      1094.352108
_symmetry_space_group_name_H-M    P1
_symmetry_Int_Tables_number       1
loop_
    _symmetry_equiv_pos_site_id
    _symmetry_equiv_pos_as_xyz
    1  x,y,z
loop_
    _atom_site_type_symbol
    _atom_site_label
    _atom_site_fract_x
    _atom_site_fract_y
    _atom_site_fract_z
    _atom_type_partial_charge
    O   O1   0.383780  0.736262  0.505544  -0.659373
    O   O2   0.616220  0.263738  0.494456  -0.659310
    O   O3   0.681876  0.709436  0.491243  -0.674006
    O   O4   0.318124  0.290564  0.508758  -0.673927
    C   C1   0.543244  0.792270  0.497887  0.817952
    C   C2   0.456756  0.207729  0.502113  0.817833
    O   O5   0.348244  0.513394  0.631794  -0.697687
    O   O6   0.651756  0.486606  0.368206  -0.697687
    O   O7   0.646383  0.486808  0.617615  -0.690228
    O   O8   0.353617  0.513192  0.382385  -0.690240
    C   C3   0.496767  0.500110  0.663535  0.871819
    C   C4   0.503233  0.499889  0.336466  0.871748
    Zn  Zn1  0.303543  0.517592  0.509261  1.050473
    Zn  Zn2  0.696457  0.482408  0.490739  1.050402
    C   C5   0.568293  0.955689  0.496696  -0.226270
    C   C6   0.431707  0.044310  0.503304  -0.226264
    C   C7   0.438527  0.628072  0.030773  -0.167788
    C   C8   0.561473  0.371927  0.969227  -0.167730
    C   C9   0.598031  0.613410  0.967282  -0.151773
    C   C10  0.401969  0.386590  0.032718  -0.151739
    H   H1   0.679309  0.707583  0.937851  0.069507
    H   H2   0.320691  0.292417  0.062149  0.069496
    H   H3   0.387604  0.734403  0.058587  0.070665
    H   H4   0.612396  0.265597  0.941413  0.070666
    H   H5   0.795466  0.472992  0.035419  0.071711
    H   H6   0.204534  0.527008  0.964581  0.071700
    C   C11  0.495905  0.500184  0.753303  -0.141646
    C   C12  0.504095  0.499816  0.246697  -0.141595
    C   C13  0.338567  0.514758  0.981876  -0.176377
    C   C14  0.661433  0.485241  0.018124  -0.176407
    C   C15  0.498096  0.500095  0.920008  0.701902
    C   C16  0.501904  0.499905  0.079993  0.701961
    N   N1   0.954401  0.459589  0.478842  0.161398
    N   N2   0.045599  0.540410  0.521158  0.161282
    H   H7   0.698857  0.004418  0.490408  0.141663
    H   H8   0.301143  0.995582  0.509592  0.141672
    C   C17  0.496411  0.500173  0.828621  -0.396361
    C   C18  0.503589  0.499827  0.171379  -0.396389
    F   F1   0.043360  0.360572  0.429655  0.024453
    F   F2   0.956640  0.639428  0.570345  0.024495
