# Generated by REPEAT Assigner based on pymatgen
data_DB0-m3_o11_o27_f0_pcu.sym.23
_audit_creation_date              2022-05-24
_audit_creation_method            REPEAT_Assigner
_cell_length_a                    19.352357
_cell_length_b                    11.138916
_cell_length_c                    9.910807
_cell_angle_alpha                 89.997368
_cell_angle_beta                  89.978650
_cell_angle_gamma                 90.004380
_cell_volume                      2136.415787
_symmetry_space_group_name_H-M    P1
_symmetry_Int_Tables_number       1
loop_
    _symmetry_equiv_pos_site_id
    _symmetry_equiv_pos_as_xyz
    1  x,y,z
loop_
    _atom_site_type_symbol
    _atom_site_label
    _atom_site_fract_x
    _atom_site_fract_y
    _atom_site_fract_z
    _atom_type_partial_charge
    O   O1   0.502561  0.321147  0.612238  -0.701945
    O   O2   0.500686  0.321728  0.379837  -0.685747
    C   C1   0.501506  0.265393  0.496236  0.814114
    O   O3   0.399133  0.499139  0.621308  -0.628391
    O   O4   0.397217  0.500369  0.389245  -0.675189
    C   C2   0.365611  0.499589  0.506269  0.743427
    Zn  Zn1  0.502564  0.499171  0.653023  1.057176
    Zn  Zn2  0.499544  0.501288  0.346168  1.097112
    O   O5   0.502107  0.678586  0.619645  -0.659235
    O   O6   0.500338  0.679663  0.386407  -0.634873
    O   O7   0.604933  0.500092  0.610493  -0.618548
    O   O8   0.603056  0.501114  0.377373  -0.599990
    C   C3   0.500981  0.735059  0.503372  0.729766
    C   C4   0.636333  0.500689  0.493057  0.624597
    C   C5   0.252217  0.498855  0.626412  0.338776
    C   C6   0.180930  0.498935  0.623586  -0.020774
    H   H1   0.153354  0.498505  0.718384  0.066063
    C   C7   0.145807  0.499597  0.502092  -0.472832
    C   C8   0.182982  0.500114  0.383089  0.088568
    H   H2   0.157177  0.500628  0.286448  0.039010
    C   C9   0.254184  0.500041  0.385559  -0.126513
    H   H3   0.281531  0.500504  0.290513  0.134874
    C   C10  0.289543  0.499444  0.506923  -0.159709
    N   N1   0.035843  0.500446  0.381182  -0.330612
    N   N2   0.967518  0.500678  0.379052  -0.323809
    C   C11  0.931582  0.500283  0.495295  0.881876
    N   N3   0.965680  0.499643  0.613570  -0.327708
    N   N4   0.033962  0.499409  0.615699  -0.320808
    C   C12  0.069919  0.499806  0.499547  0.905521
    C   C13  0.819215  0.500130  0.613536  0.149150
    H   H4   0.845520  0.499699  0.709656  0.024666
    C   C14  0.748051  0.500251  0.612825  -0.170530
    H   H5   0.721195  0.499901  0.708411  0.114210
    C   C15  0.712174  0.500758  0.492234  0.048750
    C   C16  0.748507  0.501194  0.372112  -0.180998
    H   H6   0.721772  0.501587  0.276414  0.121776
    C   C17  0.819855  0.501075  0.372770  0.153724
    H   H7   0.846885  0.501389  0.277364  0.023471
    C   C18  0.855690  0.500514  0.493598  -0.505804
    C   C19  0.500457  0.932463  0.393297  -0.009569
    C   C20  0.500964  0.866620  0.506651  -0.297138
    H   H8   0.499936  0.887269  0.296515  0.096145
    H   H9   0.501257  0.906877  0.605615  0.154813
    C   C21  0.500329  0.065563  0.390498  -0.021087
    C   C22  0.501901  0.133982  0.501374  -0.323695
    H   H10  0.498916  0.108396  0.292375  0.099195
    H   H11  0.503506  0.095588  0.601189  0.164290
    C   C23  0.530062  0.583158  0.926005  -0.045387
    N   N5   0.506056  0.496324  0.854712  -0.214480
    H   H12  0.548972  0.663301  0.876241  0.159400
    H   H13  0.497278  0.416458  0.903536  0.233731
    C   C24  0.536589  0.574103  0.074508  0.472384
    N   N6   0.496990  0.505298  0.144436  -0.463294
    H   H14  0.456367  0.465681  0.094862  0.321853
    F   F1   0.284327  0.498244  0.747917  -0.210238
    F   F2   0.583311  0.645022  0.138228  -0.129536
