# generated using pymatgen
data_Zn2H36C49(NO4)2
_symmetry_space_group_name_H-M   'P 1'
_cell_length_a   9.96225700
_cell_length_b   11.20501600
_cell_length_c   16.04116600
_cell_angle_alpha   90.00162300
_cell_angle_beta   72.33159800
_cell_angle_gamma   89.99743800
_symmetry_Int_Tables_number   1
_chemical_formula_structural   Zn2H36C49(NO4)2
_chemical_formula_sum   'Zn2 H36 C49 N2 O8'
_cell_volume   1706.16537648
_cell_formula_units_Z   1
loop_
 _symmetry_equiv_pos_site_id
 _symmetry_equiv_pos_as_xyz
  1  'x, y, z'
loop_
 _atom_site_type_symbol
 _atom_site_label
 _atom_site_symmetry_multiplicity
 _atom_site_fract_x
 _atom_site_fract_y
 _atom_site_fract_z
 _atom_site_occupancy
  Zn  Zn1  1  0.36477000  0.49872400  0.49396500  1
  Zn  Zn2  1  0.66965900  0.49695800  0.49389300  1
  H  H1  1  0.15541600  0.57774400  0.06231600  1
  H  H2  1  0.44363300  0.51157400  0.21807600  1
  H  H3  1  0.87507800  0.40881900  0.92247600  1
  H  H4  1  0.10286800  0.57480800  0.92949600  1
  H  H5  1  0.17463000  0.55451200  0.77158500  1
  H  H6  1  0.58958900  0.47121700  0.76898400  1
  H  H7  1  0.31022600  0.55327600  0.14670900  1
  H  H8  1  0.71874500  0.42459900  0.84030800  1
  H  H9  1  0.93155300  0.42650200  0.04964800  1
  H  H10  1  0.72033000  0.11297400  0.48965100  1
  H  H11  1  0.40644800  0.09322500  0.51196300  1
  H  H12  1  0.43189000  0.90664400  0.47438800  1
  H  H13  1  0.09758700  0.55570500  0.53348100  1
  H  H14  1  0.88982600  0.32060500  0.50016900  1
  H  H15  1  0.92926800  0.57763200  0.47236200  1
  H  H16  1  0.82970800  0.95573800  0.51681600  1
  H  H17  1  0.80749600  0.81913400  0.46924600  1
  H  H18  1  0.92707500  0.75640800  0.58054200  1
  H  H19  1  0.89025600  0.67507400  0.72762500  1
  H  H20  1  0.66456200  0.70643200  0.84197000  1
  H  H21  1  0.47467700  0.81735900  0.80839600  1
  H  H22  1  0.50828000  0.89958300  0.66421700  1
  H  H23  1  0.18039300  0.22975600  0.47044900  1
  H  H24  1  0.29103100  0.32777600  0.38874000  1
  H  H25  1  0.27863700  0.33884300  0.24752000  1
  H  H26  1  0.19777400  0.24651400  0.13325700  1
  H  H27  1  0.99848800  0.10642000  0.17239300  1
  H  H28  1  0.88603200  0.05323900  0.32660700  1
  H  H29  1  0.97419200  0.13778100  0.44080900  1
  H  H30  1  0.00528400  0.42528700  0.16416600  1
  H  H31  1  0.89006300  0.39607300  0.26889000  1
  H  H32  1  0.08944900  0.50716000  0.30244400  1
  H  H33  1  0.17003400  0.70016100  0.33975300  1
  H  H34  1  0.07877800  0.88507100  0.29614100  1
  H  H35  1  0.90384200  0.87664500  0.21578200  1
  H  H36  1  0.82355600  0.68730900  0.17728500  1
  C  C1  1  0.51647300  0.73235900  0.49055100  1
  C  C2  1  0.43560800  0.50501500  0.66526700  1
  C  C3  1  0.51746900  0.26410000  0.49956200  1
  C  C4  1  0.59994000  0.49129900  0.32169100  1
  C  C5  1  0.38878800  0.51104200  0.76134900  1
  C  C6  1  0.64894000  0.48322300  0.22437300  1
  C  C7  1  0.21042500  0.55018100  0.89531700  1
  C  C8  1  0.25097500  0.53854400  0.80590100  1
  C  C9  1  0.48393600  0.49154700  0.80736800  1
  C  C10  1  0.44354100  0.50041900  0.89860000  1
  C  C11  1  0.30585600  0.53253300  0.94110100  1
  C  C12  1  0.53704100  0.48135100  0.94807000  1
  C  C13  1  0.49178900  0.49885800  0.03901400  1
  C  C14  1  0.35313900  0.53433800  0.07823600  1
  C  C15  1  0.26214700  0.54953900  0.02986100  1
  C  C16  1  0.67532600  0.44530400  0.90849500  1
  C  C17  1  0.76747900  0.43418800  0.95590600  1
  C  C18  1  0.72488500  0.45415500  0.04420300  1
  C  C19  1  0.58700900  0.48298400  0.08799900  1
  C  C20  1  0.82392800  0.44531300  0.08741300  1
  C  C21  1  0.78993300  0.46296300  0.17621900  1
  C  C22  1  0.54997400  0.49430400  0.17927300  1
  C  C23  1  0.62278400  0.06650100  0.49588000  1
  C  C24  1  0.50882000  0.13299900  0.50263600  1
  C  C25  1  0.62460000  0.93408900  0.50128000  1
  C  C26  1  0.52031100  0.86489600  0.48849800  1
  C  C27  1  0.10006200  0.40710500  0.46793600  1
  C  C28  1  0.94398000  0.40521600  0.48963300  1
  C  C29  1  0.75221000  0.88365800  0.52043000  1
  C  C30  1  0.72040100  0.83069500  0.61018900  1
  C  C31  1  0.82655100  0.76855200  0.62997700  1
  C  C32  1  0.80632000  0.72323200  0.71274100  1
  C  C33  1  0.67986100  0.74059500  0.77675700  1
  C  C34  1  0.57348900  0.80283300  0.75784100  1
  C  C35  1  0.59318500  0.84838500  0.67509100  1
  C  C36  1  0.18165700  0.30060800  0.42195000  1
  C  C37  1  0.12559300  0.25043400  0.35276500  1
  C  C38  1  0.19132800  0.27714300  0.26577500  1
  C  C39  1  0.14629900  0.22490700  0.20114700  1
  C  C40  1  0.03478500  0.14631700  0.22302000  1
  C  C41  1  0.97149600  0.11691600  0.30942600  1
  C  C42  1  0.01958900  0.16608000  0.37380800  1
  C  C43  1  0.91052600  0.46007300  0.21386800  1
  C  C44  1  0.94875200  0.58136700  0.23930400  1
  C  C45  1  0.04677900  0.58781500  0.28416500  1
  C  C46  1  0.09268800  0.69644400  0.30493900  1
  C  C47  1  0.04117900  0.80016500  0.28059900  1
  C  C48  1  0.94335300  0.79512100  0.23569900  1
  C  C49  1  0.89715400  0.68641800  0.21467500  1
  N  N1  1  0.16334500  0.49360500  0.49448700  1
  N  N2  1  0.87205500  0.50062800  0.49082700  1
  O  O1  1  0.39952600  0.67741900  0.49019400  1
  O  O2  1  0.62920800  0.67371300  0.49168100  1
  O  O3  1  0.33984500  0.50656300  0.62404200  1
  O  O4  1  0.57160400  0.50037900  0.62449600  1
  O  O5  1  0.40367800  0.32189900  0.49917400  1
  O  O6  1  0.63536300  0.31836000  0.49787100  1
  O  O7  1  0.46393900  0.49464100  0.36324300  1
  O  O8  1  0.69319900  0.49175500  0.36409700  1
