data_DB0-m3_o11_o25_f0_pcu.sym.16_repeat
_audit_creation_date              2024-02-23
_audit_creation_method            'Materials Studio'
_symmetry_space_group_name_H-M    'P1'
_symmetry_Int_Tables_number       1
_symmetry_cell_setting            triclinic
loop_
_symmetry_equiv_pos_as_xyz
  x,y,z
_cell_length_a                    16.0091
_cell_length_b                    11.1377
_cell_length_c                    9.9455
_cell_angle_alpha                 89.9974
_cell_angle_beta                  89.9946
_cell_angle_gamma                 90.0034
loop_
_atom_site_label
_atom_site_type_symbol
_atom_site_fract_x
_atom_site_fract_y
_atom_site_fract_z
_atom_site_U_iso_or_equiv
_atom_site_adp_type
_atom_site_occupancy
O1     O     0.50377   0.32084   0.60909   0.00000  Uiso   1.00
O2     O     0.50002   0.32163   0.37718   0.00000  Uiso   1.00
C1     C     0.50197   0.26525   0.49330   0.00000  Uiso   1.00
O3     O     0.37917   0.49758   0.62212   0.00000  Uiso   1.00
O4     O     0.37463   0.49977   0.39008   0.00000  Uiso   1.00
C2     C     0.33812   0.49837   0.50795   0.00000  Uiso   1.00
Zn1    Zn    0.50454   0.49877   0.65029   0.00000  Uiso   1.00
Zn2    Zn    0.49789   0.50130   0.34420   0.00000  Uiso   1.00
O5     O     0.50242   0.67827   0.61752   0.00000  Uiso   1.00
O6     O     0.49883   0.67955   0.38503   0.00000  Uiso   1.00
O7     O     0.62784   0.49985   0.60468   0.00000  Uiso   1.00
O8     O     0.62329   0.50176   0.37220   0.00000  Uiso   1.00
C3     C     0.50032   0.73484   0.50166   0.00000  Uiso   1.00
C4     C     0.66429   0.50117   0.48658   0.00000  Uiso   1.00
C5     C     0.97107   0.40948   0.55931   0.00000  Uiso   1.00
C6     C     0.02925   0.39844   0.44048   0.00000  Uiso   1.00
H1     H     0.05277   0.31278   0.39807   0.00000  Uiso   1.00
H2     H     0.95865   0.49583   0.26100   0.00000  Uiso   1.00
C7     C     0.24851   0.49741   0.51107   0.00000  Uiso   1.00
C8     C     0.75391   0.50185   0.48345   0.00000  Uiso   1.00
C9     C     0.02430   0.50394   0.62650   0.00000  Uiso   1.00
C10    C     0.08190   0.49574   0.50565   0.00000  Uiso   1.00
C11    C     0.97317   0.60059   0.55403   0.00000  Uiso   1.00
C12    C     0.92052   0.50328   0.48887   0.00000  Uiso   1.00
C13    C     0.03134   0.58955   0.43521   0.00000  Uiso   1.00
C14    C     0.97812   0.49509   0.36801   0.00000  Uiso   1.00
C15    C     0.17324   0.49664   0.51006   0.00000  Uiso   1.00
C16    C     0.82917   0.50247   0.48446   0.00000  Uiso   1.00
H3     H     0.94964   0.68624   0.59644   0.00000  Uiso   1.00
H4     H     0.04376   0.50320   0.73351   0.00000  Uiso   1.00
C17    C     0.49880   0.93210   0.39168   0.00000  Uiso   1.00
C18    C     0.49999   0.86645   0.50482   0.00000  Uiso   1.00
H5     H     0.49752   0.88675   0.29538   0.00000  Uiso   1.00
H6     H     0.50064   0.90687   0.60336   0.00000  Uiso   1.00
C19    C     0.49869   0.06520   0.38840   0.00000  Uiso   1.00
C20    C     0.50254   0.13384   0.49854   0.00000  Uiso   1.00
H7     H     0.49550   0.10782   0.29060   0.00000  Uiso   1.00
H8     H     0.50616   0.09556   0.59795   0.00000  Uiso   1.00
C21    C     0.52809   0.58625   0.92589   0.00000  Uiso   1.00
N1     N     0.51083   0.49544   0.85115   0.00000  Uiso   1.00
H9     H     0.53623   0.67380   0.88025   0.00000  Uiso   1.00
C22    C     0.54052   0.57417   0.07249   0.00000  Uiso   1.00
N2     N     0.49288   0.50599   0.14325   0.00000  Uiso   1.00
H10    H     0.44311   0.46842   0.09331   0.00000  Uiso   1.00
O9     O     0.52642   0.38858   0.90746   0.00000  Uiso   1.00
H11    H     0.47381   0.34287   0.89632   0.00000  Uiso   1.00
O10    O     0.59833   0.64569   0.13469   0.00000  Uiso   1.00
H12    H     0.57294   0.72673   0.13431   0.00000  Uiso   1.00
O11    O     0.93543   0.31204   0.62605   0.00000  Uiso   1.00
H13    H     0.98368   0.26611   0.66116   0.00000  Uiso   1.00
O12    O     0.06698   0.68698   0.36847   0.00000  Uiso   1.00
H14    H     0.01874   0.73291   0.33335   0.00000  Uiso   1.00
