# Generated by REPEAT Assigner based on pymatgen
data_DB0-m3_o18_o22_f0_pcu.sym.60_sqe
_audit_creation_date              2022-05-24
_audit_creation_method            REPEAT_Assigner
_cell_length_a                    10.772370
_cell_length_b                    14.750266
_cell_length_c                    15.964600
_cell_angle_alpha                 86.054915
_cell_angle_beta                  90.006941
_cell_angle_gamma                 103.451142
_cell_volume                      2460.939507
_symmetry_space_group_name_H-M    P1
_symmetry_Int_Tables_number       1
loop_
    _symmetry_equiv_pos_site_id
    _symmetry_equiv_pos_as_xyz
    1  x,y,z
loop_
    _atom_site_type_symbol
    _atom_site_label
    _atom_site_fract_x
    _atom_site_fract_y
    _atom_site_fract_z
    _atom_type_partial_charge
    O   O1   0.469832  0.377506  0.605580  -0.677542
    O   O2   0.517476  0.530935  0.639317  -0.683779
    C   C1   0.489303  0.440987  0.660883  0.779621
    O   O3   0.666338  0.418640  0.482727  -0.714459
    O   O4   0.715533  0.572136  0.515447  -0.720762
    C   C2   0.749375  0.495606  0.498792  0.641537
    Zn  Zn1  0.473640  0.397226  0.478637  1.105799
    Zn  Zn2  0.540550  0.599752  0.524013  1.098607
    O   O5   0.494967  0.465688  0.363280  -0.661504
    O   O6   0.542961  0.619650  0.397045  -0.646639
    O   O7   0.298282  0.424404  0.486191  -0.708151
    O   O8   0.347955  0.578838  0.519520  -0.687494
    C   C3   0.522435  0.555709  0.341829  0.748163
    C   C4   0.265071  0.501426  0.503175  0.588961
    C   C5   0.912914  0.421715  0.563054  -0.056041
    H   H1   0.864436  0.351656  0.543598  0.012886
    H   H2   0.875198  0.431396  0.625629  -0.016322
    C   C6   0.055137  0.427935  0.568451  -0.008520
    H   H3   0.088589  0.448152  0.631713  -0.014278
    H   H4   0.073076  0.358385  0.558518  -0.021813
    H   H5   0.876178  0.411766  0.393078  -0.014023
    H   H6   0.081069  0.404404  0.403808  0.014169
    C   C7   0.933177  0.479205  0.413225  -0.011487
    C   C8   0.964542  0.591616  0.523662  0.042214
    C   C9   0.888767  0.496772  0.499486  0.193735
    H   H7   0.945445  0.648327  0.479824  -0.012929
    H   H8   0.938368  0.602693  0.588638  0.001914
    C   C10  0.125907  0.500379  0.502178  0.356248
    C   C11  0.072754  0.475818  0.416278  -0.081603
    C   C12  0.105974  0.595522  0.520369  -0.214126
    H   H9   0.147337  0.616103  0.581818  0.020488
    H   H10  0.151634  0.648504  0.470124  0.031969
    H   H11  0.921286  0.536291  0.367210  -0.004198
    H   H12  0.127165  0.526194  0.367064  -0.004247
    C   C13  0.477265  0.410190  0.750756  -0.124918
    C   C14  0.523132  0.585400  0.252003  -0.129784
    C   C15  0.452001  0.289052  0.859946  -0.277096
    C   C16  0.459612  0.316835  0.775880  -0.053524
    C   C17  0.483728  0.474840  0.810590  -0.118209
    C   C18  0.475195  0.447607  0.896440  -0.009434
    C   C19  0.461308  0.353693  0.919554  0.291713
    C   C20  0.483149  0.511264  0.959516  0.033449
    C   C21  0.485365  0.480098  0.044307  0.067190
    C   C22  0.469983  0.384641  0.064218  -0.158040
    C   C23  0.456874  0.322962  0.002670  -0.293049
    C   C24  0.487450  0.605376  0.939910  -0.124560
    C   C25  0.501379  0.667379  0.001164  -0.286496
    C   C26  0.510128  0.638243  0.083801  0.294624
    C   C27  0.501278  0.544838  0.107004  -0.021799
    C   C28  0.526150  0.703874  0.142919  -0.287984
    C   C29  0.532562  0.677876  0.226725  -0.029780
    C   C30  0.509202  0.519659  0.192531  -0.101340
    H   H13  0.444978  0.249377  0.020524  0.137467
    H   H14  0.506020  0.449240  0.215587  0.089406
    H   H15  0.543043  0.730470  0.271765  0.083005
    H   H16  0.505211  0.740056  0.983461  0.127131
    H   H17  0.440139  0.215758  0.879054  0.130431
    H   H18  0.453692  0.264828  0.730643  0.091642
    H   H19  0.498297  0.546435  0.787552  0.122991
    H   H20  0.465296  0.353333  0.127171  0.138885
    H   H21  0.477265  0.634544  0.877576  0.128227
    H   H22  0.532589  0.776556  0.123693  0.131865
    N   N1   0.588614  0.732571  0.555480  -0.184625
    N   N2   0.426867  0.264626  0.447477  -0.112193
    C   C31  0.720878  0.860770  0.616927  -0.446818
    C   C32  0.683686  0.766485  0.608966  0.265264
    C   C33  0.525691  0.791405  0.514517  -0.035381
    C   C34  0.556919  0.887726  0.525078  -0.061495
    C   C35  0.657880  0.920715  0.576286  0.367596
    C   C36  0.492889  0.952265  0.485904  0.076839
    C   C37  0.531484  0.047227  0.500985  0.032290
    C   C38  0.638047  0.076690  0.549894  -0.124231
    C   C39  0.699180  0.013907  0.587237  -0.283943
    C   C40  0.391379  0.924755  0.432135  -0.146530
    C   C41  0.331011  0.988894  0.394529  -0.268277
    C   C42  0.366311  0.081253  0.411425  0.286690
    C   C43  0.464493  0.111349  0.465738  -0.003238
    C   C44  0.301847  0.143633  0.374283  -0.282852
    C   C45  0.334137  0.235872  0.392432  0.040264
    C   C46  0.490834  0.204981  0.484387  -0.032440
    H   H23  0.780845  0.038910  0.625770  0.148574
    H   H24  0.559544  0.233351  0.529980  0.130423
    H   H25  0.283524  0.284763  0.363452  0.119125
    H   H26  0.253331  0.965509  0.352424  0.151264
    H   H27  0.801340  0.888555  0.655405  0.185862
    H   H28  0.452083  0.760532  0.472876  0.138959
    H   H29  0.680215  0.148397  0.560095  0.144218
    H   H30  0.355678  0.853822  0.416539  0.154519
    H   H31  0.225502  0.120480  0.331156  0.144297
    C   C47  0.756380  0.706642  0.658406  -0.185857
    C   C48  0.742693  0.715390  0.752159  0.289122
    C   C49  0.803385  0.645490  0.800944  -0.277038
    H   H32  0.756532  0.573370  0.786018  0.070674
    H   H33  0.906409  0.659904  0.784312  0.056217
    H   H34  0.792543  0.652160  0.869170  0.054044
    H   H35  0.791107  0.786195  0.769566  -0.059323
    H   H36  0.640165  0.701789  0.769361  -0.061841
    H   H37  0.722496  0.632884  0.647002  0.121134
    H   H38  0.858724  0.729621  0.640073  0.060300
