# generated using pymatgen
data_ZnH22C37NO4
_symmetry_space_group_name_H-M   'P 1'
_cell_length_a   8.52547200
_cell_length_b   13.01402000
_cell_length_c   17.54106700
_cell_angle_alpha   90.60714500
_cell_angle_beta   93.28320000
_cell_angle_gamma   86.46547000
_symmetry_Int_Tables_number   1
_chemical_formula_structural   ZnH22C37NO4
_chemical_formula_sum   'Zn2 H44 C74 N2 O8'
_cell_volume   1939.25395945
_cell_formula_units_Z   2
loop_
 _symmetry_equiv_pos_site_id
 _symmetry_equiv_pos_as_xyz
  1  'x, y, z'
loop_
 _atom_site_type_symbol
 _atom_site_label
 _atom_site_symmetry_multiplicity
 _atom_site_fract_x
 _atom_site_fract_y
 _atom_site_fract_z
 _atom_site_occupancy
  Zn  Zn1  1  0.48424600  0.48637900  0.91533500  1
  Zn  Zn2  1  0.49987700  0.51409700  0.08473600  1
  H  H1  1  0.00091900  0.56936400  0.96804800  1
  H  H2  1  0.98391600  0.43063400  0.03415200  1
  H  H3  1  0.69890400  0.82913700  0.00135400  1
  H  H4  1  0.28380100  0.17153500  0.99410600  1
  H  H5  1  0.67027700  0.98382200  0.99780700  1
  H  H6  1  0.31430100  0.01683200  0.00394700  1
  H  H7  1  0.64222600  0.16358100  0.00694200  1
  H  H8  1  0.34198200  0.83698200  0.99385800  1
  H  H9  1  0.48660200  0.26620100  0.29402600  1
  H  H10  1  0.42950900  0.73509000  0.70295500  1
  H  H11  1  0.47187200  0.24851400  0.42655000  1
  H  H12  1  0.43013200  0.75247200  0.56957200  1
  H  H13  1  0.50871900  0.23711100  0.54079500  1
  H  H14  1  0.49220900  0.76205900  0.46059300  1
  H  H15  1  0.45394300  0.63562300  0.81316500  1
  H  H16  1  0.50205000  0.36544400  0.18561900  1
  H  H17  1  0.77745000  0.37598500  0.79481000  1
  H  H18  1  0.86878500  0.25528700  0.76396300  1
  H  H19  1  0.88201500  0.29111100  0.86284900  1
  H  H20  1  0.79116500  0.09954200  0.85288800  1
  H  H21  1  0.55709700  0.00558100  0.87627800  1
  H  H22  1  0.29425600  0.09379000  0.86411600  1
  H  H23  1  0.26338100  0.27336300  0.82143700  1
  H  H24  1  0.80408500  0.60085300  0.20952200  1
  H  H25  1  0.90211100  0.71503300  0.23844100  1
  H  H26  1  0.89464700  0.67538100  0.14034400  1
  H  H27  1  0.80600400  0.87351600  0.14483500  1
  H  H28  1  0.56847100  0.98820300  0.12180500  1
  H  H29  1  0.30776700  0.92517600  0.14028500  1
  H  H30  1  0.28423300  0.74833800  0.18322500  1
  H  H31  1  0.20448500  0.28867900  0.66867900  1
  H  H32  1  0.12269300  0.18923500  0.72170500  1
  H  H33  1  0.13834300  0.17455100  0.62034300  1
  H  H34  1  0.25201300  0.00969100  0.71582200  1
  H  H35  1  0.50610700  0.91105400  0.73319000  1
  H  H36  1  0.75069000  0.99200900  0.70811900  1
  H  H37  1  0.74066200  0.17229100  0.66761700  1
  H  H38  1  0.21206200  0.74523600  0.34006900  1
  H  H39  1  0.12822800  0.84395900  0.27639100  1
  H  H40  1  0.15766500  0.87155500  0.37681600  1
  H  H41  1  0.26797200  0.01623000  0.28473400  1
  H  H42  1  0.52403100  0.08483700  0.26441500  1
  H  H43  1  0.76733000  0.97576100  0.28761600  1
  H  H44  1  0.75354600  0.79699500  0.32900300  1
  C  C1  1  0.11604500  0.70782200  0.98400700  1
  C  C2  1  0.86821400  0.29264700  0.01635200  1
  C  C3  1  0.98599400  0.65129600  0.97618500  1
  C  C4  1  0.99851900  0.34888500  0.02493900  1
  C  C5  1  0.83938300  0.69661200  0.98549600  1
  C  C6  1  0.14479200  0.30377500  0.01427600  1
  C  C7  1  0.81811000  0.80104300  0.99460700  1
  C  C8  1  0.16547700  0.19962400  0.00318300  1
  C  C9  1  0.94563400  0.86291800  0.99426500  1
  C  C10  1  0.03821900  0.13774100  0.00427700  1
  C  C11  1  0.09593000  0.81452600  0.99149800  1
  C  C12  1  0.88810900  0.18610000  0.00786700  1
  C  C13  1  0.92627100  0.97107800  0.99831600  1
  C  C14  1  0.05770800  0.02962600  0.00011900  1
  C  C15  1  0.20637700  0.97851800  0.99954500  1
  C  C16  1  0.77779900  0.02222200  0.99987100  1
  C  C17  1  0.22453800  0.87301400  0.99504700  1
  C  C18  1  0.75954200  0.12765600  0.00462300  1
  C  C19  1  0.27619200  0.36862500  0.00888600  1
  C  C20  1  0.70785400  0.63188100  0.99104800  1
  C  C21  1  0.26854000  0.64786500  0.98926400  1
  C  C22  1  0.71576200  0.35271200  0.01092900  1
  C  C23  1  0.48495600  0.38593000  0.77375000  1
  C  C24  1  0.51423100  0.61386900  0.22703200  1
  C  C25  1  0.46007000  0.56539500  0.77988300  1
  C  C26  1  0.50347400  0.43526800  0.21935900  1
  C  C27  1  0.47131500  0.48404600  0.65765000  1
  C  C28  1  0.49685300  0.51612500  0.34185800  1
  C  C29  1  0.48156400  0.38943600  0.69361300  1
  C  C30  1  0.50420000  0.61043500  0.30672700  1
  C  C31  1  0.49103500  0.30130100  0.64799500  1
  C  C32  1  0.50020000  0.69826500  0.35276200  1
  C  C33  1  0.45870800  0.57151200  0.70178500  1
  C  C34  1  0.49804200  0.42899100  0.29716600  1
  C  C35  1  0.48564000  0.41179400  0.45424800  1
  C  C36  1  0.46791800  0.58846100  0.54456100  1
  C  C37  1  0.48114200  0.59604900  0.46562600  1
  C  C38  1  0.48511200  0.40397500  0.53382700  1
  C  C39  1  0.48807500  0.50802800  0.42075800  1
  C  C40  1  0.47456000  0.49210600  0.57849900  1
  C  C41  1  0.48302100  0.32530500  0.40691000  1
  C  C42  1  0.44744400  0.67536400  0.59073800  1
  C  C43  1  0.48939800  0.33444500  0.32949700  1
  C  C44  1  0.44404400  0.66640800  0.66832800  1
  C  C45  1  0.49521600  0.30940700  0.57021700  1
  C  C46  1  0.48930800  0.69025700  0.43020500  1
  C  C47  1  0.50958900  0.28767900  0.81314700  1
  C  C48  1  0.65899400  0.23946200  0.82324700  1
  C  C49  1  0.80408600  0.29419600  0.81004200  1
  C  C50  1  0.67536200  0.13834400  0.84677400  1
  C  C51  1  0.54446400  0.08582300  0.86066800  1
  C  C52  1  0.39689500  0.13519000  0.85363700  1
  C  C53  1  0.37969500  0.23609300  0.83018200  1
  C  C54  1  0.53166100  0.71126800  0.18890000  1
  C  C55  1  0.67939400  0.74612800  0.17767800  1
  C  C56  1  0.82751100  0.67994400  0.19268500  1
  C  C57  1  0.69138100  0.84538300  0.15269700  1
  C  C58  1  0.55821700  0.90961900  0.13920100  1
  C  C59  1  0.41193300  0.87422000  0.14908900  1
  C  C60  1  0.39877500  0.77494900  0.17315700  1
  C  C61  1  0.49277600  0.19624800  0.67687300  1
  C  C62  1  0.35389500  0.14902200  0.68695700  1
  C  C63  1  0.19634300  0.20445400  0.67354000  1
  C  C64  1  0.35977600  0.04668600  0.70748800  1
  C  C65  1  0.50221500  0.99100800  0.71686500  1
  C  C66  1  0.63930400  0.03652300  0.70329000  1
  C  C67  1  0.63399300  0.13829300  0.68197700  1
  C  C68  1  0.50287800  0.80311000  0.32419100  1
  C  C69  1  0.36576400  0.86613200  0.31475500  1
  C  C70  1  0.20744000  0.82867600  0.32790500  1
  C  C71  1  0.37444500  0.96713100  0.29299400  1
  C  C72  1  0.51808500  0.00591900  0.28186200  1
  C  C73  1  0.65433900  0.94462800  0.29439800  1
  C  C74  1  0.64653900  0.84391700  0.31648800  1
  N  N1  1  0.47445200  0.47399900  0.81533200  1
  N  N2  1  0.50956200  0.52640500  0.18474900  1
  O  O1  1  0.33062200  0.41310200  0.07138500  1
  O  O2  1  0.65295500  0.58773600  0.92853200  1
  O  O3  1  0.32503500  0.38582100  0.94087500  1
  O  O4  1  0.65951200  0.61431300  0.05914000  1
  O  O5  1  0.31329600  0.59860400  0.92752000  1
  O  O6  1  0.67046500  0.40163300  0.07267000  1
  O  O7  1  0.33142200  0.62557700  0.05790500  1
  O  O8  1  0.65326600  0.37530500  0.94225800  1
