# generated using pymatgen
data_ZnH14C27N3(ClO2)2
_symmetry_space_group_name_H-M   'P 1'
_cell_length_a   15.08192300
_cell_length_b   15.90790700
_cell_length_c   17.11447500
_cell_angle_alpha   89.12059100
_cell_angle_beta   90.00492600
_cell_angle_gamma   92.75992300
_symmetry_Int_Tables_number   1
_chemical_formula_structural   ZnH14C27N3(ClO2)2
_chemical_formula_sum   'Zn2 H28 C54 N6 Cl4 O8'
_cell_volume   4100.88930690
_cell_formula_units_Z   2
loop_
 _symmetry_equiv_pos_site_id
 _symmetry_equiv_pos_as_xyz
  1  'x, y, z'
loop_
 _atom_site_type_symbol
 _atom_site_label
 _atom_site_symmetry_multiplicity
 _atom_site_fract_x
 _atom_site_fract_y
 _atom_site_fract_z
 _atom_site_occupancy
  Zn  Zn1  1  0.49553300  0.40453000  0.49471900  1
  Zn  Zn2  1  0.50499100  0.59524300  0.50519800  1
  H  H1  1  0.21113000  0.36562500  0.48967500  1
  H  H2  1  0.78942100  0.63407300  0.51087800  1
  H  H3  1  0.22498700  0.63426200  0.50203700  1
  H  H4  1  0.77553400  0.36548100  0.49795000  1
  H  H5  1  0.09209700  0.70889100  0.50790700  1
  H  H6  1  0.90843600  0.29082300  0.49240500  1
  H  H7  1  0.93006400  0.70880600  0.51143900  1
  H  H8  1  0.07047300  0.29089400  0.48903800  1
  H  H9  1  0.44630900  0.39618300  0.24691400  1
  H  H10  1  0.55508400  0.60317700  0.75305100  1
  H  H11  1  0.44793000  0.40095500  0.10712200  1
  H  H12  1  0.55299500  0.59848400  0.89285400  1
  H  H13  1  0.41994700  0.35471200  0.88841200  1
  H  H14  1  0.58011100  0.64506600  0.11135300  1
  H  H15  1  0.59009600  0.26688200  0.57269300  1
  H  H16  1  0.41129800  0.73288700  0.42638400  1
  H  H17  1  0.58566800  0.11508700  0.56943500  1
  H  H18  1  0.41607700  0.88470700  0.42923900  1
  H  H19  1  0.62122900  0.87768700  0.60230100  1
  H  H20  1  0.37897700  0.12211700  0.39780900  1
  H  H21  1  0.61221100  0.72344800  0.59597500  1
  H  H22  1  0.38770000  0.27633300  0.40448500  1
  H  H23  1  0.21965900  0.29295300  0.63382000  1
  H  H24  1  0.43292600  0.13885600  0.69507900  1
  H  H25  1  0.50642400  0.25726500  0.76404500  1
  H  H26  1  0.57551900  0.86171100  0.30698800  1
  H  H27  1  0.78086800  0.69841200  0.36824400  1
  H  H28  1  0.70271200  0.58307600  0.29864300  1
  C  C1  1  0.49365900  0.48836100  0.65284700  1
  C  C2  1  0.50689000  0.51143200  0.34706800  1
  C  C3  1  0.67385300  0.49987100  0.50425100  1
  C  C4  1  0.32667400  0.49990100  0.49566100  1
  C  C5  1  0.17934700  0.42491000  0.49280600  1
  C  C6  1  0.82119500  0.57480200  0.50753400  1
  C  C7  1  0.22942800  0.49994500  0.49552100  1
  C  C8  1  0.77109900  0.49980000  0.50451800  1
  C  C9  1  0.18709800  0.57496300  0.49974800  1
  C  C10  1  0.81342700  0.42477100  0.50033800  1
  C  C11  1  0.09562600  0.57484200  0.50153100  1
  C  C12  1  0.90490700  0.42487500  0.49873500  1
  C  C13  1  0.04600800  0.49987800  0.49912300  1
  C  C14  1  0.95453000  0.49983200  0.50120400  1
  C  C15  1  0.08788000  0.42496300  0.49469700  1
  C  C16  1  0.91266100  0.57474400  0.50568300  1
  C  C17  1  0.05369200  0.64981500  0.50598700  1
  C  C18  1  0.94684200  0.34989700  0.49435400  1
  C  C19  1  0.96236000  0.64976800  0.50804000  1
  C  C20  1  0.03817900  0.34993600  0.49239800  1
  C  C21  1  0.48889900  0.48213500  0.73868600  1
  C  C22  1  0.51131700  0.51778200  0.26122200  1
  C  C23  1  0.52448200  0.54828100  0.78192000  1
  C  C24  1  0.47626600  0.45136100  0.21801900  1
  C  C25  1  0.52361000  0.54499200  0.86246300  1
  C  C26  1  0.47692500  0.45464800  0.13747600  1
  C  C27  1  0.48656000  0.47460700  0.90116200  1
  C  C28  1  0.51371500  0.52510000  0.09873200  1
  C  C29  1  0.45029700  0.40895800  0.85828700  1
  C  C30  1  0.54953500  0.59097600  0.14155700  1
  C  C31  1  0.44983600  0.41234900  0.77771600  1
  C  C32  1  0.54880800  0.58826500  0.22219900  1
  C  C33  1  0.45724100  0.76528600  0.46541900  1
  C  C34  1  0.54384800  0.23449200  0.53392200  1
  C  C35  1  0.46051000  0.85202300  0.46737000  1
  C  C36  1  0.54077900  0.14776800  0.53174000  1
  C  C37  1  0.51994900  0.89349800  0.51703600  1
  C  C38  1  0.48098700  0.10629800  0.48238500  1
  C  C39  1  0.57432800  0.84653800  0.56327700  1
  C  C40  1  0.42613700  0.15325800  0.43660600  1
  C  C41  1  0.56919600  0.75994900  0.55971500  1
  C  C42  1  0.43107000  0.23983500  0.44039700  1
  C  C43  1  0.40511300  0.34228800  0.73664500  1
  C  C44  1  0.32389200  0.35189700  0.70084900  1
  C  C45  1  0.28297800  0.28536900  0.66200200  1
  C  C46  1  0.32238300  0.20906000  0.65948400  1
  C  C47  1  0.40228500  0.19884900  0.69666600  1
  C  C48  1  0.44342000  0.26526800  0.73544900  1
  C  C49  1  0.59488300  0.65746900  0.26350600  1
  C  C50  1  0.55961000  0.73604600  0.26542300  1
  C  C51  1  0.60365000  0.80057200  0.30468400  1
  C  C52  1  0.68293000  0.78703300  0.34177200  1
  C  C53  1  0.71854300  0.70895400  0.33939800  1
  C  C54  1  0.67465300  0.64428600  0.30029500  1
  N  N1  1  0.48359600  0.46810900  0.98368200  1
  N  N2  1  0.51680000  0.53150100  0.01621200  1
  N  N3  1  0.51105000  0.72078300  0.51119500  1
  N  N4  1  0.48948500  0.27899200  0.48868600  1
  N  N5  1  0.52677300  0.98227900  0.52181800  1
  N  N6  1  0.47419500  0.01751900  0.47754900  1
  Cl  Cl1  1  0.27096700  0.44735500  0.70603600  1
  Cl  Cl2  1  0.27040000  0.12481100  0.60988200  1
  Cl  Cl3  1  0.45704400  0.75369300  0.22154300  1
  Cl  Cl4  1  0.73817000  0.86891400  0.39218800  1
  O  O1  1  0.49228900  0.41917600  0.61202500  1
  O  O2  1  0.50811200  0.58057700  0.38790300  1
  O  O3  1  0.49949800  0.56369400  0.62030800  1
  O  O4  1  0.50105200  0.43609700  0.37960900  1
  O  O5  1  0.62868800  0.42762800  0.49923300  1
  O  O6  1  0.37183100  0.57214600  0.50074800  1
  O  O7  1  0.63592800  0.57223100  0.50746300  1
  O  O8  1  0.36459600  0.42754100  0.49240900  1
