# Generated by REPEAT Assigner based on pymatgen
data_DB0-m2_o21_o22_f0_pcu.sym.90_sqe
_audit_creation_date              2022-05-24
_audit_creation_method            REPEAT_Assigner
_cell_length_a                    10.676025
_cell_length_b                    12.597011
_cell_length_c                    14.002574
_cell_angle_alpha                 98.221978
_cell_angle_beta                  90.014558
_cell_angle_gamma                 93.722668
_cell_volume                      1859.774922
_symmetry_space_group_name_H-M    P1
_symmetry_Int_Tables_number       1
loop_
    _symmetry_equiv_pos_site_id
    _symmetry_equiv_pos_as_xyz
    1  x,y,z
loop_
    _atom_site_type_symbol
    _atom_site_label
    _atom_site_fract_x
    _atom_site_fract_y
    _atom_site_fract_z
    _atom_type_partial_charge
    O   O1   0.494623  0.401762  0.368446  -0.623527
    O   O2   0.498503  0.585918  0.378622  -0.609581
    C   C1   0.496067  0.489715  0.328653  0.873730
    O   O3   0.309567  0.414461  0.511981  -0.548217
    O   O4   0.322821  0.597967  0.516020  -0.611454
    C   C2   0.257277  0.506125  0.514687  0.456280
    Cu  Cu1  0.490415  0.399092  0.507520  0.899961
    Cu  Cu2  0.506034  0.613398  0.519408  1.115489
    O   O5   0.497237  0.426495  0.648324  -0.627689
    O   O6   0.502541  0.610818  0.658506  -0.668131
    O   O7   0.673624  0.414538  0.511548  -0.581021
    O   O8   0.686852  0.597991  0.514418  -0.623339
    C   C3   0.500399  0.522781  0.698278  0.951848
    C   C4   0.738991  0.506452  0.512897  0.474369
    C   C5   0.063622  0.432938  0.426427  -0.052544
    H   H1   0.092103  0.349707  0.425462  0.012365
    H   H2   0.099417  0.463173  0.360319  0.016557
    C   C6   0.921673  0.431845  0.426689  -0.068501
    H   H3   0.888531  0.458373  0.359392  0.009569
    H   H4   0.882646  0.348623  0.429600  0.015341
    H   H5   0.881639  0.386566  0.609284  0.057868
    C   C7   0.064610  0.467891  0.606433  0.493690
    C   C8   0.077975  0.619280  0.511166  -0.168117
    C   C9   0.116962  0.505934  0.514875  0.209126
    H   H6   0.114361  0.674286  0.575604  0.032783
    H   H7   0.114865  0.648892  0.445050  0.063620
    C   C10  0.878995  0.506779  0.513504  0.396526
    C   C11  0.922766  0.468921  0.605259  -0.275313
    C   C12  0.936269  0.619600  0.509572  -0.114547
    H   H8   0.906348  0.648197  0.442295  0.031964
    H   H9   0.906579  0.675392  0.572880  0.037410
    H   H10  0.101458  0.524668  0.669362  -0.036949
    H   H11  0.892142  0.523668  0.668892  0.030749
    C   C13  0.501658  0.532318  0.801634  -0.332604
    C   C14  0.503990  0.550054  0.992009  -0.052874
    C   C15  0.492525  0.462439  0.034921  -0.079643
    C   C16  0.493781  0.472115  0.138502  0.062697
    C   C17  0.502720  0.540380  0.888428  0.060000
    C   C18  0.494827  0.480178  0.225296  -0.330909
    H   H12  0.482220  0.383671  0.991844  0.146948
    H   H13  0.514292  0.628822  0.035086  0.136771
    N   N1   0.478454  0.238845  0.498330  -0.137717
    C   C19  0.462917  0.030508  0.480660  0.417839
    C   C20  0.536524  0.981137  0.534986  -0.407981
    C   C21  0.526026  0.866128  0.531725  0.422220
    C   C22  0.471493  0.145983  0.490917  0.098969
    N   N2   0.518001  0.773628  0.528391  -0.349678
    H   H14  0.603116  0.028808  0.584682  0.232869
    O   O9   0.377224  0.974578  0.418885  -0.361700
    C   C23  0.411058  0.907543  0.340553  0.783239
    O   O10  0.521220  0.903483  0.318211  -0.510038
    C   C24  0.312942  0.841193  0.279065  -0.545009
    H   H15  0.219052  0.856669  0.309827  0.140812
    H   H16  0.329565  0.754856  0.276596  0.192440
    H   H17  0.317125  0.862638  0.204975  0.181168
    O   O11  0.096549  0.364676  0.611583  -0.496532
    C   C25  0.155422  0.335052  0.688198  0.796207
    O   O12  0.181025  0.399518  0.760188  -0.555735
    C   C26  0.188109  0.221480  0.684995  -0.472724
    H   H18  0.157668  0.174775  0.614705  0.113159
    H   H19  0.139904  0.186087  0.744314  0.133213
    H   H20  0.291092  0.218990  0.693606  0.144279
