# Generated by REPEAT Assigner based on pymatgen
data_DB0-m2_o2_o24_f0_nbo.sym.44
_audit_creation_date              2022-05-24
_audit_creation_method            REPEAT_Assigner
_cell_length_a                    36.558500
_cell_length_b                    30.087910
_cell_length_c                    21.311784
_cell_angle_alpha                 90.000000
_cell_angle_beta                  55.519262
_cell_angle_gamma                 90.000000
_cell_volume                      19323.874837
_symmetry_space_group_name_H-M    P1
_symmetry_Int_Tables_number       1
loop_
    _symmetry_equiv_pos_site_id
    _symmetry_equiv_pos_as_xyz
    1  x,y,z
loop_
    _atom_site_type_symbol
    _atom_site_label
    _atom_site_fract_x
    _atom_site_fract_y
    _atom_site_fract_z
    _atom_type_partial_charge
    O   O1    0.936623  0.463260  0.044605  -0.569122
    O   O2    0.063377  0.463260  0.955394  -0.569120
    O   O3    0.436623  0.963260  0.044605  -0.569062
    O   O4    0.563377  0.963260  0.955394  -0.569131
    O   O5    0.936703  0.536562  0.078965  -0.498009
    O   O6    0.063297  0.536562  0.921035  -0.497997
    O   O7    0.436703  0.036562  0.078965  -0.497929
    O   O8    0.563297  0.036562  0.921035  -0.497912
    C   C1    0.915669  0.499892  0.082384  0.714428
    C   C2    0.084331  0.499892  0.917616  0.714433
    C   C3    0.415669  0.999892  0.082384  0.714251
    C   C4    0.584331  0.999892  0.917616  0.714269
    O   O9    0.988012  0.463239  0.101193  -0.535878
    O   O10   0.011988  0.463239  0.898807  -0.535905
    O   O11   0.488012  0.963239  0.101193  -0.535964
    O   O12   0.511988  0.963239  0.898807  -0.535900
    O   O13   0.012384  0.536588  0.077407  -0.504680
    O   O14   0.987616  0.536588  0.922593  -0.504682
    O   O15   0.512384  0.036588  0.077407  -0.504620
    O   O16   0.487616  0.036588  0.922593  -0.504615
    C   C5    0.999857  0.500055  0.118794  0.475422
    C   C6    0.000143  0.500055  0.881205  0.475327
    C   C7    0.499857  0.000055  0.118794  0.475780
    C   C8    0.500143  0.000055  0.881205  0.475454
    Cu  Cu1   0.000000  0.456488  0.000000  0.956114
    Cu  Cu2   0.500000  0.956488  0.000000  0.956029
    Cu  Cu3   0.000000  0.543323  0.000000  0.919637
    Cu  Cu4   0.500000  0.043323  0.000000  0.919566
    C   C9    0.960887  0.343222  0.529211  -0.049546
    C   C10   0.039113  0.343222  0.470789  -0.049532
    C   C11   0.460887  0.843222  0.529211  -0.049456
    C   C12   0.539113  0.843222  0.470789  -0.049467
    C   C13   0.522907  0.702408  0.523386  -0.151961
    C   C14   0.477093  0.702408  0.476614  -0.152075
    C   C15   0.022907  0.202408  0.523386  -0.151982
    C   C16   0.977093  0.202408  0.476614  -0.152095
    C   C17   0.960993  0.297412  0.528456  -0.201247
    C   C18   0.039007  0.297412  0.471543  -0.201253
    C   C19   0.460993  0.797412  0.528456  -0.201383
    C   C20   0.539007  0.797412  0.471543  -0.201341
    C   C21   0.975709  0.532778  0.253153  0.059225
    C   C22   0.024291  0.532778  0.746847  0.058307
    C   C23   0.475709  0.032778  0.253153  0.059362
    C   C24   0.524291  0.032778  0.746847  0.059149
    C   C25   0.016840  0.537573  0.252749  0.055632
    C   C26   0.983160  0.537573  0.747251  0.056636
    C   C27   0.516840  0.037573  0.252749  0.055631
    C   C28   0.483160  0.037573  0.747251  0.055654
    C   C29   0.001034  0.499991  0.309140  0.062972
    C   C30   0.998966  0.499991  0.690859  0.062326
    C   C31   0.501034  0.999991  0.309140  0.062920
    C   C32   0.498966  0.999991  0.690859  0.063001
    C   C33   0.959381  0.495113  0.310250  -0.194542
    C   C34   0.040619  0.495113  0.689750  -0.194014
    C   C35   0.459381  0.995113  0.310250  -0.194530
    C   C36   0.540619  0.995113  0.689750  -0.194540
    C   C37   0.983636  0.462034  0.244375  -0.089002
    C   C38   0.016364  0.462034  0.755625  -0.089476
    C   C39   0.483636  0.962034  0.244375  -0.088886
    C   C40   0.516364  0.962034  0.755625  -0.088985
    C   C41   0.024863  0.467345  0.244273  0.091993
    C   C42   0.975137  0.467345  0.755727  0.092544
    C   C43   0.524863  0.967345  0.244273  0.092011
    C   C44   0.475137  0.967345  0.755727  0.091990
    C   C45   0.041463  0.504987  0.186930  -0.294444
    C   C46   0.958537  0.504987  0.813070  -0.295243
    C   C47   0.541463  0.004987  0.186930  -0.294392
    C   C48   0.458537  0.004987  0.813070  -0.294423
    C   C49   0.999723  0.500199  0.188433  0.291899
    C   C50   0.000277  0.500199  0.811566  0.292628
    C   C51   0.499723  0.000199  0.188433  0.291418
    C   C52   0.500277  0.000199  0.811566  0.291847
    H   H1    0.925038  0.491426  0.361527  0.116833
    H   H2    0.074962  0.491426  0.638473  0.116766
    H   H3    0.425038  0.991426  0.361527  0.116832
    H   H4    0.574962  0.991426  0.638473  0.116833
    H   H5    0.970175  0.429987  0.240192  0.083901
    H   H6    0.029825  0.429987  0.759808  0.083964
    H   H7    0.470175  0.929987  0.240192  0.083889
    H   H8    0.529825  0.929987  0.759808  0.083899
    H   H9    0.075694  0.508874  0.135427  0.172768
    H   H10   0.924306  0.508874  0.864573  0.172901
    H   H11   0.575694  0.008874  0.135427  0.172783
    H   H12   0.424306  0.008874  0.864573  0.172767
    C   C53   0.796883  0.533923  0.172011  -0.165172
    C   C54   0.203117  0.533923  0.827989  -0.165347
    C   C55   0.296883  0.033923  0.172011  -0.165254
    C   C56   0.703117  0.033923  0.827989  -0.165388
    H   H13   0.778756  0.560744  0.167806  0.136846
    H   H14   0.221244  0.560744  0.832194  0.136900
    H   H15   0.278756  0.060744  0.167806  0.136865
    H   H16   0.721244  0.060744  0.832194  0.136918
    C   C57   0.842720  0.533756  0.124775  0.078372
    C   C58   0.157280  0.533756  0.875225  0.078442
    C   C59   0.342720  0.033756  0.124775  0.078432
    C   C60   0.657280  0.033756  0.875225  0.078517
    C   C61   0.866668  0.499820  0.130763  -0.210072
    C   C62   0.133332  0.499820  0.869237  -0.210115
    C   C63   0.366668  0.999820  0.130763  -0.210058
    C   C64   0.633332  0.999820  0.869237  -0.210022
    C   C65   0.843379  0.465931  0.183741  0.077982
    C   C66   0.156621  0.465931  0.816259  0.078054
    C   C67   0.343379  0.965931  0.183741  0.078006
    C   C68   0.656621  0.965931  0.816259  0.078002
    C   C69   0.797532  0.465930  0.228031  -0.152436
    C   C70   0.202468  0.465930  0.771969  -0.152590
    C   C71   0.297532  0.965930  0.228031  -0.152494
    C   C72   0.702468  0.965930  0.771969  -0.152602
    H   H17   0.779956  0.439188  0.267978  0.131333
    H   H18   0.220044  0.439188  0.732022  0.131355
    H   H19   0.279956  0.939188  0.267978  0.131333
    H   H20   0.720044  0.939188  0.732022  0.131359
    C   C73   0.774024  0.500012  0.223293  0.035548
    C   C74   0.225976  0.500012  0.776707  0.035752
    C   C75   0.274024  0.000012  0.223293  0.035624
    C   C76   0.725976  0.000012  0.776707  0.035757
    C   C77   0.702866  0.487515  0.348030  -0.160091
    C   C78   0.297134  0.487515  0.651970  -0.160014
    C   C79   0.202866  0.987515  0.348030  -0.159982
    C   C80   0.797134  0.987515  0.651970  -0.160032
    H   H21   0.720944  0.478191  0.372229  0.110736
    H   H22   0.279056  0.478191  0.627771  0.110710
    H   H23   0.220944  0.978191  0.372229  0.110714
    H   H24   0.779056  0.978191  0.627771  0.110716
    C   C81   0.657105  0.487677  0.394291  -0.090652
    C   C82   0.342895  0.487677  0.605709  -0.090715
    C   C83   0.157105  0.987677  0.394291  -0.090778
    C   C84   0.842895  0.987677  0.605709  -0.090728
    H   H25   0.640698  0.477777  0.453072  0.129649
    H   H26   0.359302  0.477777  0.546928  0.129659
    H   H27   0.140698  0.977777  0.453072  0.129676
    H   H28   0.859302  0.977777  0.546928  0.129666
    C   C85   0.632889  0.500474  0.365760  -0.073205
    C   C86   0.367111  0.500474  0.634240  -0.073131
    C   C87   0.132889  0.000474  0.365760  -0.073112
    C   C88   0.867111  0.000474  0.634240  -0.073079
    C   C89   0.655127  0.513198  0.290330  -0.077023
    C   C90   0.344873  0.513198  0.709670  -0.077012
    C   C91   0.155127  0.013198  0.290330  -0.077036
    C   C92   0.844873  0.013198  0.709670  -0.077010
    H   H29   0.637127  0.523182  0.266299  0.113413
    H   H30   0.362873  0.523182  0.733701  0.113438
    H   H31   0.137127  0.023182  0.266299  0.113419
    H   H32   0.862873  0.023182  0.733701  0.113442
    C   C93   0.700905  0.513132  0.244156  -0.167602
    C   C94   0.299095  0.513132  0.755843  -0.167820
    C   C95   0.200905  0.013132  0.244156  -0.167639
    C   C96   0.799095  0.013132  0.755843  -0.167853
    H   H33   0.717414  0.522386  0.185061  0.121432
    H   H34   0.282586  0.522386  0.814939  0.121506
    H   H35   0.217414  0.022386  0.185061  0.121446
    H   H36   0.782586  0.022386  0.814939  0.121516
    C   C97   0.725170  0.500232  0.272572  0.152062
    C   C98   0.274830  0.500232  0.727428  0.152086
    C   C99   0.225170  0.000232  0.272572  0.152040
    C   C100  0.774830  0.000232  0.727428  0.152111
    C   C101  0.000000  0.366382  0.500000  -0.036270
    C   C102  0.500000  0.866382  0.500000  -0.036331
    H   H37   0.929879  0.360542  0.552269  0.108793
    H   H38   0.070121  0.360542  0.447731  0.108791
    H   H39   0.429879  0.860542  0.552269  0.108783
    H   H40   0.570121  0.860542  0.447731  0.108783
    C   C103  0.000000  0.274268  0.500000  0.121049
    C   C104  0.500000  0.774268  0.500000  0.121179
    C   C105  0.500000  0.275510  0.500000  0.119083
    C   C106  0.000000  0.775510  0.500000  0.119576
    H   H41   0.540502  0.719951  0.542892  0.117706
    H   H42   0.459498  0.719951  0.457108  0.117761
    H   H43   0.040502  0.219951  0.542892  0.117709
    H   H44   0.959498  0.219951  0.457108  0.117763
    O   O17   0.038268  0.565112  0.460760  -0.570192
    O   O18   0.961732  0.565112  0.539240  -0.570200
    O   O19   0.538268  0.065112  0.460760  -0.570206
    O   O20   0.461732  0.065112  0.539240  -0.570213
    C   C107  0.000000  0.585933  0.500000  0.708447
    C   C108  0.500000  0.085933  0.500000  0.708491
    O   O21   0.039043  0.502277  0.371242  -0.594626
    O   O22   0.960957  0.502277  0.628758  -0.594629
    O   O23   0.539043  0.002277  0.371242  -0.594605
    O   O24   0.460957  0.002277  0.628758  -0.594629
    O   O25   0.962552  0.502002  0.444835  -0.661062
    O   O26   0.037448  0.502002  0.555165  -0.661074
    O   O27   0.462552  0.002002  0.444835  -0.661042
    O   O28   0.537448  0.002002  0.555165  -0.661021
    C   C109  0.000933  0.499979  0.378852  0.716239
    C   C110  0.999067  0.499979  0.621147  0.716376
    C   C111  0.500933  0.999979  0.378852  0.716229
    C   C112  0.499067  0.999979  0.621147  0.716199
    Cu  Cu5   0.044226  0.500500  0.457493  0.976385
    Cu  Cu6   0.955774  0.500500  0.542507  0.976344
    Cu  Cu7   0.544226  0.000500  0.457493  0.976351
    Cu  Cu8   0.455774  0.000500  0.542507  0.976382
    O   O29   0.038188  0.435905  0.460601  -0.561448
    O   O30   0.961812  0.435905  0.539399  -0.561473
    O   O31   0.538188  0.935905  0.460601  -0.561439
    O   O32   0.461812  0.935905  0.539399  -0.561452
    H   H45   0.540498  0.639253  0.543128  0.126493
    H   H46   0.459502  0.639253  0.456872  0.126462
    H   H47   0.040498  0.139253  0.543128  0.126470
    H   H48   0.959502  0.139253  0.456872  0.126454
    C   C113  0.000000  0.415075  0.500000  0.585618
    C   C114  0.500000  0.915075  0.500000  0.585587
    O   O33   0.513538  0.563868  0.537949  -0.590572
    O   O34   0.486462  0.563868  0.462050  -0.590547
    O   O35   0.013538  0.063868  0.537949  -0.590529
    O   O36   0.986462  0.063868  0.462050  -0.590553
    C   C115  0.500000  0.633440  0.500000  0.008257
    C   C116  0.000000  0.133440  0.500000  0.008223
    C   C117  0.500000  0.584746  0.500000  0.649384
    C   C118  0.000000  0.084746  0.500000  0.649373
    O   O37   0.564234  0.488020  0.486736  -0.603198
    O   O38   0.435766  0.488020  0.513263  -0.603204
    O   O39   0.064234  0.988020  0.486736  -0.603200
    O   O40   0.935766  0.988020  0.513263  -0.603210
    O   O41   0.562230  0.513037  0.385505  -0.586002
    O   O42   0.437770  0.513037  0.614495  -0.585959
    O   O43   0.062230  0.013037  0.385505  -0.586015
    O   O44   0.937770  0.013037  0.614495  -0.585991
    C   C119  0.584148  0.500521  0.414992  0.711232
    C   C120  0.415852  0.500521  0.585008  0.711162
    C   C121  0.084148  0.000521  0.414992  0.711184
    C   C122  0.915852  0.000521  0.585008  0.711117
    Cu  Cu9   0.501189  0.500531  0.560009  0.948206
    Cu  Cu10  0.498811  0.500531  0.439991  0.948211
    Cu  Cu11  0.001189  0.000531  0.560009  0.948232
    Cu  Cu12  0.998811  0.000531  0.439991  0.948237
    C   C123  0.522522  0.656596  0.524188  -0.120705
    C   C124  0.477478  0.656596  0.475812  -0.120636
    C   C125  0.022522  0.156596  0.524188  -0.120662
    C   C126  0.977478  0.156596  0.475812  -0.120606
    O   O45   0.488470  0.437192  0.563269  -0.598140
    O   O46   0.511530  0.437192  0.436731  -0.598146
    O   O47   0.988470  0.937192  0.563269  -0.598147
    O   O48   0.011530  0.937192  0.436731  -0.598178
    C   C127  0.500000  0.416314  0.500000  0.694611
    C   C128  0.000000  0.916314  0.500000  0.694715
    C   C129  0.961282  0.703655  0.549120  -0.224461
    C   C130  0.038718  0.703655  0.450880  -0.224448
    C   C131  0.461282  0.203655  0.549120  -0.224444
    C   C132  0.538718  0.203655  0.450880  -0.224538
    H   H49   0.930538  0.721204  0.587199  0.118544
    H   H50   0.069462  0.721204  0.412801  0.118539
    H   H51   0.430538  0.221204  0.587199  0.118542
    H   H52   0.569462  0.221204  0.412801  0.118562
    C   C133  0.961146  0.657846  0.548520  0.013852
    C   C134  0.038854  0.657846  0.451479  0.013846
    C   C135  0.461146  0.157846  0.548520  0.013729
    C   C136  0.538854  0.157846  0.451479  0.013808
    H   H53   0.930320  0.640562  0.587083  0.097920
    H   H54   0.069680  0.640562  0.412917  0.097928
    H   H55   0.430320  0.140562  0.587083  0.097960
    H   H56   0.569680  0.140562  0.412917  0.097942
    C   C137  0.000000  0.634660  0.500000  -0.131521
    C   C138  0.500000  0.134660  0.500000  -0.131488
    H   H57   0.930044  0.279869  0.551966  0.120860
    H   H58   0.069956  0.279869  0.448034  0.120858
    H   H59   0.430044  0.779869  0.551966  0.120884
    H   H60   0.569956  0.779869  0.448034  0.120866
    C   C139  0.000000  0.726797  0.500000  0.142431
    C   C140  0.500000  0.226797  0.500000  0.142741
    C   C141  0.521492  0.298651  0.432140  -0.152947
    C   C142  0.478508  0.298651  0.567859  -0.153015
    C   C143  0.021492  0.798651  0.432140  -0.153260
    C   C144  0.978508  0.798651  0.567859  -0.153244
    H   H61   0.537961  0.281099  0.378530  0.111592
    H   H62   0.462039  0.281099  0.621469  0.111601
    H   H63   0.037961  0.781099  0.378530  0.111662
    H   H64   0.962039  0.781099  0.621469  0.111659
    C   C145  0.521076  0.344465  0.432124  -0.099283
    C   C146  0.478924  0.344465  0.567876  -0.099223
    C   C147  0.021076  0.844465  0.432124  -0.099118
    C   C148  0.978924  0.844465  0.567876  -0.099134
    H   H65   0.537918  0.361816  0.378313  0.123438
    H   H66   0.462082  0.361816  0.621687  0.123430
    H   H67   0.037918  0.861816  0.378313  0.123420
    H   H68   0.962082  0.861816  0.621687  0.123423
    C   C149  0.500000  0.367620  0.500000  -0.049566
    C   C150  0.000000  0.867620  0.500000  -0.049727
    C   C151  0.500000  0.725553  0.500000  0.105994
    C   C152  0.000000  0.225553  0.500000  0.106030
    C   C153  0.035304  0.581360  0.254641  0.605335
    O   O49   0.047768  0.607773  0.202909  -0.519386
    O   O50   0.038193  0.592406  0.315026  -0.542775
    H   H69   0.051322  0.623169  0.307009  0.384875
    C   C154  0.964696  0.581360  0.745358  0.605137
    O   O51   0.952232  0.607773  0.797090  -0.519392
    O   O52   0.961807  0.592406  0.684974  -0.542777
    H   H70   0.948678  0.623168  0.692991  0.384897
    C   C155  0.535304  0.081360  0.254641  0.605350
    O   O53   0.547768  0.107773  0.202909  -0.519387
    O   O54   0.538193  0.092406  0.315026  -0.542800
    H   H71   0.551322  0.123169  0.307009  0.384886
    C   C156  0.464696  0.081360  0.745358  0.605334
    O   O55   0.452232  0.107773  0.797090  -0.519394
    O   O56   0.461807  0.092406  0.684974  -0.542789
    H   H72   0.448678  0.123168  0.692991  0.384890
    C   C157  0.946746  0.570644  0.262094  0.646378
    O   O57   0.930305  0.594438  0.318092  -0.544699
    O   O58   0.937568  0.578457  0.208040  -0.608101
    H   H73   0.917202  0.605013  0.223473  0.421381
    C   C158  0.053254  0.570644  0.737906  0.646574
    O   O59   0.069695  0.594438  0.681908  -0.544716
    O   O60   0.062432  0.578457  0.791960  -0.608093
    H   H74   0.082798  0.605013  0.776527  0.421359
    C   C159  0.446746  0.070644  0.262094  0.646247
    O   O61   0.430305  0.094438  0.318092  -0.544655
    O   O62   0.437568  0.078457  0.208040  -0.608004
    H   H75   0.417202  0.105013  0.223473  0.421335
    C   C160  0.553254  0.070644  0.737906  0.646412
    O   O63   0.569695  0.094438  0.681908  -0.544693
    O   O64   0.562432  0.078457  0.791960  -0.608111
    H   H76   0.582798  0.105013  0.776527  0.421379
    C   C161  0.052669  0.428794  0.237094  0.562815
    O   O65   0.071250  0.406278  0.179425  -0.523225
    O   O66   0.056776  0.417736  0.296199  -0.543404
    H   H77   0.076293  0.390589  0.282088  0.403518
    C   C162  0.947331  0.428794  0.762906  0.562740
    O   O67   0.928750  0.406278  0.820575  -0.523220
    O   O68   0.943224  0.417736  0.703801  -0.543424
    H   H78   0.923707  0.390589  0.717912  0.403529
    C   C163  0.552669  0.928794  0.237094  0.562784
    O   O69   0.571250  0.906278  0.179425  -0.523209
    O   O70   0.556776  0.917736  0.296199  -0.543396
    H   H79   0.576293  0.890589  0.282088  0.403516
    C   C164  0.447331  0.928794  0.762906  0.562809
    O   O71   0.428750  0.906278  0.820575  -0.523225
    O   O72   0.443224  0.917736  0.703801  -0.543397
    H   H80   0.423707  0.890589  0.717912  0.403517
    C   C165  0.864086  0.569216  0.067217  0.604112
    O   O73   0.897328  0.561737  0.004158  -0.492285
    O   O74   0.843930  0.610698  0.082318  -0.595599
    H   H81   0.861830  0.630677  0.036332  0.435333
    C   C166  0.135914  0.569216  0.932782  0.604092
    O   O75   0.102672  0.561737  0.995842  -0.492273
    O   O76   0.156070  0.610698  0.917681  -0.595589
    H   H82   0.138169  0.630677  0.963668  0.435326
    C   C167  0.364086  0.069216  0.067217  0.604071
    O   O77   0.397328  0.061737  0.004158  -0.492248
    O   O78   0.343930  0.110698  0.082318  -0.595590
    H   H83   0.361830  0.130677  0.036332  0.435328
    C   C168  0.635914  0.069216  0.932782  0.603982
    O   O79   0.602672  0.061737  0.995842  -0.492262
    O   O80   0.656070  0.110698  0.917681  -0.595580
    H   H84   0.638169  0.130677  0.963668  0.435344
    C   C169  0.865513  0.430466  0.198049  0.604067
    O   O81   0.898893  0.438169  0.195984  -0.493690
    O   O82   0.845838  0.388746  0.221487  -0.578164
    H   H85   0.864215  0.368781  0.231651  0.420399
    C   C170  0.134487  0.430466  0.801951  0.604082
    O   O83   0.101107  0.438169  0.804016  -0.493692
    O   O84   0.154162  0.388746  0.778513  -0.578169
    H   H86   0.135785  0.368781  0.768349  0.420400
    C   C171  0.365513  0.930466  0.198049  0.604089
    O   O85   0.398893  0.938169  0.195984  -0.493697
    O   O86   0.345838  0.888746  0.221487  -0.578168
    H   H87   0.364215  0.868781  0.231651  0.420400
    C   C172  0.634487  0.930466  0.801951  0.604137
    O   O87   0.601107  0.938169  0.804016  -0.493702
    O   O88   0.654162  0.888746  0.778513  -0.578177
    H   H88   0.635785  0.868781  0.768349  0.420398
