# generated using pymatgen
data_CuH8C24Br6N5O4
_symmetry_space_group_name_H-M   'P 1'
_cell_length_a   10.94651100
_cell_length_b   19.37919400
_cell_length_c   17.87465500
_cell_angle_alpha   89.97288200
_cell_angle_beta   89.99784900
_cell_angle_gamma   89.99215500
_symmetry_Int_Tables_number   1
_chemical_formula_structural   CuH8C24Br6N5O4
_chemical_formula_sum   'Cu2 H16 C48 Br12 N10 O8'
_cell_volume   3791.83161589
_cell_formula_units_Z   2
loop_
 _symmetry_equiv_pos_site_id
 _symmetry_equiv_pos_as_xyz
  1  'x, y, z'
loop_
 _atom_site_type_symbol
 _atom_site_label
 _atom_site_symmetry_multiplicity
 _atom_site_fract_x
 _atom_site_fract_y
 _atom_site_fract_z
 _atom_site_occupancy
  Cu  Cu1  1  0.49731100  0.50081300  0.57474900  1
  Cu  Cu2  1  0.50314600  0.49896700  0.42531800  1
  H  H1  1  0.19931100  0.58390800  0.15923500  1
  H  H2  1  0.79910000  0.41675500  0.84062000  1
  H  H3  1  0.23309600  0.66299200  0.26403700  1
  H  H4  1  0.76650000  0.33737300  0.73638500  1
  H  H5  1  0.04232800  0.43728600  0.30823600  1
  H  H6  1  0.96024300  0.56221900  0.69171600  1
  H  H7  1  0.10466300  0.47059000  0.18128700  1
  H  H8  1  0.89536500  0.52966600  0.81878700  1
  H  H9  1  0.88204500  0.51894800  0.38667600  1
  H  H10  1  0.12004200  0.48093700  0.61321200  1
  H  H11  1  0.50700000  0.15212800  0.61643800  1
  H  H12  1  0.49209500  0.84887400  0.38436600  1
  H  H13  1  0.64130000  0.57599900  0.16738500  1
  H  H14  1  0.35721900  0.42405400  0.83191700  1
  H  H15  1  0.37074000  0.41862200  0.16784200  1
  H  H16  1  0.62857800  0.58111300  0.83226900  1
  C  C1  1  0.51319900  0.36647200  0.50183900  1
  C  C2  1  0.48787600  0.63323400  0.49822100  1
  C  C3  1  0.26471900  0.49841100  0.49660500  1
  C  C4  1  0.73653200  0.50170500  0.50345900  1
  C  C5  1  0.19436700  0.61264300  0.27433800  1
  C  C6  1  0.80611800  0.38747300  0.72576900  1
  C  C7  1  0.16027500  0.59397600  0.34591700  1
  C  C8  1  0.84106600  0.40593700  0.65416900  1
  C  C9  1  0.10873900  0.52984400  0.35877400  1
  C  C10  1  0.89299400  0.46995200  0.64141800  1
  C  C11  1  0.08667600  0.48643600  0.29903100  1
  C  C12  1  0.91542500  0.51331300  0.70113900  1
  C  C13  1  0.12124000  0.50514200  0.22764600  1
  C  C14  1  0.87957500  0.49495300  0.77243100  1
  C  C15  1  0.17481900  0.56836700  0.21532100  1
  C  C16  1  0.82505000  0.43196700  0.78467900  1
  C  C17  1  0.93278100  0.51009100  0.43725400  1
  C  C18  1  0.06871100  0.49002800  0.56287400  1
  C  C19  1  0.87222000  0.49974100  0.50426600  1
  C  C20  1  0.12918000  0.50053200  0.49589300  1
  C  C21  1  0.94291600  0.48801500  0.56794100  1
  C  C22  1  0.05856000  0.51210200  0.43224200  1
  C  C23  1  0.52020700  0.25064200  0.56727100  1
  C  C24  1  0.48093300  0.74959500  0.43287200  1
  C  C25  1  0.51516000  0.17977900  0.56421000  1
  C  C26  1  0.48512600  0.82062100  0.43618900  1
  C  C27  1  0.51960000  0.14484300  0.49727000  1
  C  C28  1  0.48062000  0.85550400  0.50295700  1
  C  C29  1  0.53905900  0.18228300  0.43246000  1
  C  C30  1  0.46141000  0.81793600  0.56767800  1
  C  C31  1  0.54421700  0.25338900  0.43436500  1
  C  C32  1  0.45593400  0.74674200  0.56557800  1
  C  C33  1  0.52565500  0.28954700  0.50148900  1
  C  C34  1  0.47535100  0.71031300  0.49858700  1
  C  C35  1  0.48847600  0.93146200  0.50237000  1
  C  C36  1  0.51093400  0.06910900  0.49771000  1
  C  C37  1  0.58183500  0.54099400  0.27325600  1
  C  C38  1  0.41790900  0.45927600  0.72637900  1
  C  C39  1  0.58005300  0.54146800  0.19610800  1
  C  C40  1  0.41881300  0.45858300  0.80348200  1
  C  C41  1  0.50386500  0.49857000  0.15694100  1
  C  C42  1  0.49505600  0.50125600  0.84297400  1
  C  C43  1  0.43056000  0.45439500  0.19663100  1
  C  C44  1  0.56854100  0.54552800  0.80354000  1
  C  C45  1  0.43289100  0.45440200  0.27399000  1
  C  C46  1  0.56686300  0.54588500  0.72640300  1
  C  C47  1  0.49654100  0.50082400  0.92513800  1
  C  C48  1  0.50138700  0.49909200  0.07483200  1
  Br  Br1  1  0.59656400  0.29374200  0.34181900  1
  Br  Br2  1  0.40372900  0.70630100  0.65809600  1
  Br  Br3  1  0.69972000  0.60122600  0.31735300  1
  Br  Br4  1  0.30040000  0.39864700  0.68210400  1
  Br  Br5  1  0.32889200  0.38676600  0.31904000  1
  Br  Br6  1  0.67140400  0.61307900  0.68142500  1
  Br  Br7  1  0.17525500  0.65959200  0.42496400  1
  Br  Br8  1  0.82518900  0.34073000  0.57487400  1
  Br  Br9  1  0.53129200  0.28652000  0.66647500  1
  Br  Br10  1  0.46828800  0.71353000  0.33376300  1
  Br  Br11  1  0.57451300  0.13943200  0.33849400  1
  Br  Br12  1  0.42536800  0.86066300  0.66146800  1
  N  N1  1  0.45961900  0.03490900  0.44020400  1
  N  N2  1  0.53965300  0.96565600  0.55986500  1
  N  N3  1  0.44945200  0.96697300  0.44227400  1
  N  N4  1  0.54985400  0.03361400  0.55781300  1
  N  N5  1  0.50780100  0.49788000  0.31301100  1
  N  N6  1  0.49277800  0.50218200  0.68700900  1
  N  N7  1  0.42610500  0.45646200  0.03720600  1
  N  N8  1  0.57122300  0.54355700  0.96267300  1
  N  N9  1  0.42371200  0.45726600  0.96342200  1
  N  N10  1  0.57361800  0.54273800  0.03671700  1
  O  O1  1  0.49958200  0.40033900  0.56527700  1
  O  O2  1  0.50103400  0.59936500  0.43509100  1
  O  O3  1  0.51285400  0.39890700  0.43755400  1
  O  O4  1  0.48779000  0.60079700  0.56221000  1
  O  O5  1  0.32006400  0.50044100  0.56146000  1
  O  O6  1  0.68040900  0.49933600  0.43861500  1
  O  O7  1  0.32541500  0.49414900  0.43370100  1
  O  O8  1  0.67508200  0.50543500  0.56640100  1
