# Generated by REPEAT Assigner based on pymatgen
data_DB0-m29_o88_o49_f0_pts.sym.18
_audit_creation_date              2022-05-24
_audit_creation_method            REPEAT_Assigner
_cell_length_a                    15.343913
_cell_length_b                    9.256747
_cell_length_c                    16.219605
_cell_angle_alpha                 91.958047
_cell_angle_beta                  103.022885
_cell_angle_gamma                 107.611292
_cell_volume                      2126.265080
_symmetry_space_group_name_H-M    P1
_symmetry_Int_Tables_number       1
loop_
    _symmetry_equiv_pos_site_id
    _symmetry_equiv_pos_as_xyz
    1  x,y,z
loop_
    _atom_site_type_symbol
    _atom_site_label
    _atom_site_fract_x
    _atom_site_fract_y
    _atom_site_fract_z
    _atom_type_partial_charge
    C   C1   0.806363  0.035719  0.143258  0.407982
    C   C2   0.892300  0.044709  0.127925  -0.425932
    H   H1   0.951650  0.053140  0.180669  0.199051
    C   C3   0.901791  0.036112  0.045774  0.439620
    C   C4   0.826145  0.030510  0.979072  -0.363837
    H   H2   0.835985  0.037086  0.915380  0.202424
    C   C5   0.738849  0.020973  0.993377  0.150500
    C   C6   0.728588  0.018749  0.076684  -0.235643
    C   C7   0.994004  0.040203  0.032040  -0.443643
    C   C8   0.002422  0.959698  0.965751  0.336156
    H   H3   0.056291  0.108070  0.079420  0.202051
    C   C9   0.104179  0.944717  0.871354  -0.095395
    H   H4   0.044156  0.926942  0.817784  0.121240
    C   C10  0.190497  0.953917  0.856962  -0.137922
    H   H5   0.196952  0.944741  0.792142  0.157166
    C   C11  0.269184  0.981965  0.923901  0.021888
    C   C12  0.259823  0.991076  0.007298  0.046297
    C   C13  0.172593  0.984277  0.020908  -0.145128
    H   H6   0.163982  0.988953  0.085028  0.132409
    C   C14  0.095338  0.965196  0.953144  0.013877
    O   O1   0.533307  0.187705  0.768293  -0.561804
    C   C15  0.474839  0.195675  0.696965  0.659345
    O   O2   0.431279  0.128089  0.935342  -0.439015
    O   O3   0.397236  0.081104  0.666266  -0.535416
    O   O4   0.364163  0.916627  0.839665  -0.575986
    C   C16  0.359778  0.005074  0.902526  0.593564
    Fe  Fe1  0.488607  0.989020  0.812423  1.383237
    O   O5   0.575796  0.001000  0.926912  -0.439862
    O   O6   0.678322  0.030326  0.843607  -0.519874
    C   C17  0.661651  0.018204  0.919397  0.530741
    O   O7   0.484641  0.844405  0.715596  -0.544716
    O   O8   0.548339  0.734582  0.825496  -0.426897
    C   C18  0.520604  0.737854  0.743205  0.605150
    O   O9   0.511159  0.150105  0.284858  -0.536997
    O   O10  0.467669  0.279842  0.175995  -0.483636
    C   C19  0.483905  0.265307  0.257724  0.593962
    O   O11  0.419703  0.994538  0.073348  -0.450915
    O   O12  0.323091  0.003746  0.158600  -0.522235
    C   C20  0.337503  0.999196  0.081942  0.530359
    O   O13  0.600271  0.920871  0.335129  -0.513572
    O   O14  0.632142  0.085913  0.159012  -0.570961
    C   C21  0.637848  0.995176  0.097892  0.695790
    O   O15  0.466929  0.808215  0.231077  -0.600440
    C   C22  0.524432  0.803573  0.303742  0.618690
    O   O16  0.567664  0.869460  0.067078  -0.458375
    Fe  Fe2  0.508469  0.008180  0.187256  1.398918
    C   C23  0.505612  0.469085  0.713940  0.335469
    C   C24  0.489540  0.341050  0.660000  -0.179785
    C   C25  0.485021  0.352447  0.574097  0.147970
    C   C26  0.465602  0.224268  0.518351  -0.162028
    C   C27  0.461877  0.235698  0.433702  -0.096890
    C   C28  0.516765  0.609976  0.684017  -0.206582
    C   C29  0.518629  0.623434  0.598834  0.152058
    C   C30  0.501227  0.493990  0.543642  -0.076200
    C   C31  0.500718  0.506175  0.458007  0.041229
    C   C32  0.483460  0.376588  0.402866  0.103838
    C   C33  0.485740  0.390459  0.317749  -0.037739
    C   C34  0.539609  0.764346  0.568037  -0.058590
    C   C35  0.535553  0.775847  0.483312  -0.195608
    C   C36  0.516551  0.647801  0.427516  0.082658
    C   C37  0.511225  0.658933  0.341419  0.012974
    C   C38  0.495074  0.530600  0.287774  -0.150246
    H   H7   0.452127  0.111569  0.538361  0.158829
    H   H8   0.438204  0.129847  0.393387  0.139367
    H   H9   0.562261  0.870032  0.608472  0.130176
    H   H10  0.548128  0.888411  0.463263  0.165850
    H   H11  0.495829  0.543859  0.222025  0.164172
    F   F1   0.797338  0.035228  0.224474  -0.174967
    F   F2   0.501725  0.451597  0.795802  -0.150320
    F   F3   0.924366  0.869701  0.908066  -0.157849
