# generated using pymatgen
data_Cu2H16C29N3O8
_symmetry_space_group_name_H-M   'P 1'
_cell_length_a   22.50299300
_cell_length_b   20.76602800
_cell_length_c   17.16442600
_cell_angle_alpha   89.66458200
_cell_angle_beta   83.05002200
_cell_angle_gamma   112.13074900
_symmetry_Int_Tables_number   1
_chemical_formula_structural   Cu2H16C29N3O8
_chemical_formula_sum   'Cu4 H32 C58 N6 O16'
_cell_volume   7363.82803420
_cell_formula_units_Z   2
loop_
 _symmetry_equiv_pos_site_id
 _symmetry_equiv_pos_as_xyz
  1  'x, y, z'
loop_
 _atom_site_type_symbol
 _atom_site_label
 _atom_site_symmetry_multiplicity
 _atom_site_fract_x
 _atom_site_fract_y
 _atom_site_fract_z
 _atom_site_occupancy
  Cu  Cu1  1  0.56666700  0.61452800  0.41130900  1
  Cu  Cu2  1  0.53735500  0.60278800  0.55837500  1
  Cu  Cu3  1  0.10186000  0.77826100  0.56225900  1
  Cu  Cu4  1  0.13223100  0.78833000  0.41541600  1
  H  H1  1  0.30444500  0.99354800  0.41205500  1
  H  H2  1  0.28797600  0.88629500  0.63167600  1
  H  H3  1  0.38910600  0.09637500  0.45440000  1
  H  H4  1  0.37120600  0.98685500  0.67323800  1
  H  H5  1  0.31754400  0.08263000  0.95601500  1
  H  H6  1  0.39974600  0.30466400  0.91769600  1
  H  H7  1  0.36511600  0.07143500  0.82521900  1
  H  H8  1  0.45064700  0.29328400  0.79009700  1
  H  H9  1  0.53693100  0.39453900  0.39959900  1
  H  H10  1  0.62737500  0.45316100  0.60664700  1
  H  H11  1  0.49476300  0.27275000  0.44691600  1
  H  H12  1  0.58675300  0.33263400  0.65328500  1
  H  H13  1  0.37840500  0.50673000  0.34543400  1
  H  H14  1  0.36729100  0.39681300  0.56130700  1
  H  H15  1  0.29577000  0.40566600  0.30353100  1
  H  H16  1  0.28334800  0.29352300  0.51845200  1
  H  H17  1  0.12796600  0.99789000  0.57132100  1
  H  H18  1  0.04638000  0.93809800  0.35863400  1
  H  H19  1  0.17085500  0.11946100  0.52341500  1
  H  H20  1  0.08817900  0.05840700  0.31103800  1
  H  H21  1  0.40167600  0.29478900  0.04854000  1
  H  H22  1  0.23650600  0.11079000  0.02181800  1
  H  H23  1  0.35109600  0.30734100  0.17561000  1
  H  H24  1  0.18774900  0.12088800  0.15249300  1
  H  H25  1  0.35039000  0.64815800  0.54931800  1
  H  H26  1  0.31820900  0.74328400  0.42739400  1
  H  H27  1  0.43483700  0.74575900  0.41043200  1
  H  H28  1  0.23363200  0.64651900  0.56684200  1
  H  H29  1  0.79064000  0.65932500  0.42030400  1
  H  H30  1  0.87851400  0.73241500  0.55245000  1
  H  H31  1  0.76063300  0.72584300  0.57052700  1
  H  H32  1  0.90875300  0.66589000  0.40231700  1
  C  C1  1  0.58489400  0.50182900  0.49161300  1
  C  C2  1  0.67861600  0.67872700  0.50017200  1
  C  C3  1  0.48099100  0.68713200  0.47545600  1
  C  C4  1  0.43950400  0.51426000  0.46924300  1
  C  C5  1  0.22938500  0.87773600  0.50542200  1
  C  C6  1  0.18777900  0.70481500  0.50062800  1
  C  C7  1  0.99054400  0.71303200  0.47308100  1
  C  C8  1  0.08443500  0.89009700  0.47844700  1
  C  C9  1  0.42241600  0.11322700  0.60300200  1
  C  C10  1  0.49444400  0.22897300  0.59667400  1
  C  C11  1  0.43574900  0.17522300  0.71679800  1
  C  C12  1  0.36891900  0.04930000  0.49212700  1
  C  C13  1  0.32094900  0.99114600  0.46817500  1
  C  C14  1  0.28989300  0.93319500  0.51939500  1
  C  C15  1  0.31081600  0.93145100  0.59125600  1
  C  C16  1  0.35826100  0.98883900  0.61491300  1
  C  C17  1  0.38555400  0.04907600  0.56714700  1
  C  C18  1  0.37376000  0.12290900  0.84567200  1
  C  C19  1  0.34590000  0.12938000  0.91980200  1
  C  C20  1  0.35458200  0.19453600  0.94701100  1
  C  C21  1  0.39333600  0.25300400  0.89964300  1
  C  C22  1  0.42228900  0.24653600  0.82636600  1
  C  C23  1  0.41189700  0.18148300  0.79845800  1
  C  C24  1  0.52749600  0.31152900  0.47977800  1
  C  C25  1  0.55180500  0.38068100  0.45267900  1
  C  C26  1  0.58531700  0.43205500  0.49988300  1
  C  C27  1  0.60159700  0.41357700  0.56895200  1
  C  C28  1  0.57785400  0.34503200  0.59566900  1
  C  C29  1  0.53710200  0.29433700  0.55384800  1
  C  C30  1  0.24910600  0.27854100  0.37022500  1
  C  C31  1  0.23905600  0.21911700  0.25458400  1
  C  C32  1  0.17665800  0.16329600  0.37214200  1
  C  C33  1  0.30969500  0.40332100  0.36125000  1
  C  C34  1  0.35676200  0.46091700  0.38505000  1
  C  C35  1  0.37905800  0.45851700  0.45580900  1
  C  C36  1  0.34960600  0.39968300  0.50610200  1
  C  C37  1  0.30201600  0.34130200  0.48196000  1
  C  C38  1  0.28421500  0.34230600  0.40772900  1
  C  C39  1  0.14003400  0.08043200  0.48900100  1
  C  C40  1  0.11524600  0.01138100  0.51650600  1
  C  C41  1  0.08403800  0.95973800  0.46824000  1
  C  C42  1  0.07046300  0.97786500  0.39714900  1
  C  C43  1  0.09487100  0.04631800  0.36988000  1
  C  C44  1  0.13338500  0.09732300  0.41336900  1
  C  C45  1  0.32488400  0.26430000  0.14216600  1
  C  C46  1  0.35373900  0.25731000  0.06908800  1
  C  C47  1  0.32309100  0.20186000  0.02500300  1
  C  C48  1  0.26268600  0.15366300  0.05545700  1
  C  C49  1  0.23437900  0.15985600  0.12949000  1
  C  C50  1  0.26544400  0.21518000  0.17328800  1
  C  C51  1  0.24331400  0.68098700  0.51516300  1
  C  C52  1  0.30639800  0.70573200  0.47664400  1
  C  C53  1  0.42528600  0.71098300  0.46180100  1
  C  C54  1  0.36220200  0.68595900  0.50031900  1
  C  C55  1  0.91901100  0.69047000  0.45732700  1
  C  C56  1  0.86882900  0.70489800  0.49904100  1
  C  C57  1  0.75025100  0.70130200  0.51552300  1
  C  C58  1  0.80037600  0.68686200  0.47369300  1
  N  N1  1  0.46441000  0.17044200  0.55987500  1
  N  N2  1  0.47893100  0.23112800  0.67444400  1
  N  N3  1  0.40812800  0.11633100  0.68091300  1
  N  N4  1  0.26593900  0.27671700  0.29279000  1
  N  N5  1  0.19404500  0.16270500  0.29436000  1
  N  N6  1  0.20574200  0.22083300  0.41107900  1
  O  O1  1  0.58432300  0.52936900  0.42261800  1
  O  O2  1  0.57075700  0.52934100  0.55637700  1
  O  O3  1  0.66037400  0.66579800  0.42948500  1
  O  O4  1  0.63160400  0.66780600  0.56012600  1
  O  O5  1  0.52345600  0.68499500  0.41505500  1
  O  O6  1  0.48572900  0.66265800  0.54481600  1
  O  O7  1  0.47929400  0.54874500  0.40735000  1
  O  O8  1  0.45623900  0.52702800  0.54011500  1
  O  O9  1  0.18883100  0.84417700  0.56713600  1
  O  O10  1  0.21347000  0.86407900  0.43425900  1
  O  O11  1  0.14525300  0.70785700  0.56051000  1
  O  O12  1  0.18328400  0.72835700  0.43069800  1
  O  O13  1  0.00842400  0.72658400  0.54382100  1
  O  O14  1  0.03781200  0.72346600  0.41351100  1
  O  O15  1  0.08415800  0.86328700  0.54825500  1
  O  O16  1  0.09940400  0.86195500  0.41467400  1
