# generated using pymatgen
data_CuH20C29N3O4
_symmetry_space_group_name_H-M   'P 1'
_cell_length_a   16.03004100
_cell_length_b   14.61804900
_cell_length_c   15.82777800
_cell_angle_alpha   90.00000000
_cell_angle_beta   89.98884100
_cell_angle_gamma   90.00000000
_symmetry_Int_Tables_number   1
_chemical_formula_structural   CuH20C29N3O4
_chemical_formula_sum   'Cu2 H40 C58 N6 O8'
_cell_volume   3708.89030275
_cell_formula_units_Z   2
loop_
 _symmetry_equiv_pos_site_id
 _symmetry_equiv_pos_as_xyz
  1  'x, y, z'
loop_
 _atom_site_type_symbol
 _atom_site_label
 _atom_site_symmetry_multiplicity
 _atom_site_fract_x
 _atom_site_fract_y
 _atom_site_fract_z
 _atom_site_occupancy
  Cu  Cu1  1  0.50314700  0.53222800  0.49374800  1
  Cu  Cu2  1  0.50284800  0.34905600  0.49214100  1
  H  H1  1  0.39828800  0.48292000  0.90579300  1
  H  H2  1  0.44515500  0.33292000  0.93956000  1
  H  H3  1  0.39070400  0.43315400  0.04179000  1
  H  H4  1  0.48296100  0.31144000  0.07673400  1
  H  H5  1  0.59171500  0.32568800  0.05720800  1
  H  H6  1  0.41261500  0.54808600  0.06528000  1
  H  H7  1  0.54719400  0.29523300  0.91910700  1
  H  H8  1  0.46431800  0.57756200  0.92969200  1
  H  H9  1  0.07971400  0.58571700  0.47924400  1
  H  H10  1  0.07954700  0.29587700  0.50745500  1
  H  H11  1  0.92631700  0.58518600  0.47381100  1
  H  H12  1  0.92617500  0.29537000  0.50199100  1
  H  H13  1  0.59554900  0.02592500  0.58871400  1
  H  H14  1  0.59578500  0.85763100  0.59022600  1
  H  H15  1  0.41069500  0.85535200  0.39710800  1
  H  H16  1  0.41045800  0.02363500  0.39560100  1
  H  H17  1  0.52186200  0.62251500  0.08524000  1
  H  H18  1  0.54083100  0.75415700  0.14798000  1
  H  H19  1  0.62598300  0.88790000  0.17473200  1
  H  H20  1  0.76321400  0.90446400  0.10725500  1
  H  H21  1  0.81238400  0.78633500  0.00880000  1
  H  H22  1  0.72803200  0.65550000  0.97872900  1
  H  H23  1  0.68964900  0.42282400  0.09352000  1
  H  H24  1  0.81770800  0.46775700  0.15951200  1
  H  H25  1  0.87644600  0.53300900  0.28822200  1
  H  H26  1  0.79150000  0.63342100  0.37827000  1
  H  H27  1  0.64605800  0.66545800  0.33962900  1
  H  H28  1  0.58615800  0.60124300  0.21388800  1
  H  H29  1  0.59175200  0.62115100  0.89913600  1
  H  H30  1  0.69453200  0.71942100  0.83694000  1
  H  H31  1  0.78257800  0.74187700  0.71295400  1
  H  H32  1  0.82367900  0.61046200  0.62531600  1
  H  H33  1  0.77267000  0.45668800  0.66167100  1
  H  H34  1  0.68228600  0.43346700  0.77979300  1
  H  H35  1  0.66224000  0.36026400  0.90575200  1
  H  H36  1  0.77823100  0.31080300  0.84889500  1
  H  H37  1  0.92768300  0.32309300  0.82922800  1
  H  H38  1  0.00726800  0.44423900  0.90052600  1
  H  H39  1  0.93500000  0.55098600  0.99541000  1
  H  H40  1  0.78801100  0.53795300  0.01843200  1
  C  C1  1  0.34300800  0.44091500  0.49783600  1
  C  C2  1  0.49867300  0.44236100  0.33081400  1
  C  C3  1  0.66294600  0.44034700  0.48757800  1
  C  C4  1  0.50866300  0.43907500  0.65509400  1
  C  C5  1  0.43909100  0.48679400  0.03426100  1
  C  C6  1  0.52946100  0.35448500  0.04339200  1
  C  C7  1  0.51161500  0.35083000  0.94994300  1
  C  C8  1  0.45454100  0.50387100  0.94168800  1
  C  C9  1  0.51585600  0.43878900  0.74561100  1
  C  C10  1  0.52075800  0.45339000  0.07274800  1
  C  C11  1  0.52862500  0.44574200  0.91389400  1
  C  C12  1  0.61397400  0.48663200  0.94696100  1
  C  C13  1  0.59756800  0.51379100  0.04398100  1
  C  C14  1  0.52316500  0.44090800  0.82151800  1
  C  C15  1  0.51084100  0.44921700  0.16461800  1
  C  C16  1  0.50337600  0.44441300  0.24031300  1
  C  C17  1  0.96001300  0.52161200  0.48097500  1
  C  C18  1  0.95993300  0.35913000  0.49677500  1
  C  C19  1  0.91701900  0.44020600  0.48721100  1
  C  C20  1  0.04588000  0.35943700  0.50002900  1
  C  C21  1  0.04597200  0.52192300  0.48421300  1
  C  C22  1  0.08889100  0.44084500  0.49388700  1
  C  C23  1  0.82756400  0.44004400  0.48563000  1
  C  C24  1  0.17835300  0.44104200  0.49661400  1
  C  C25  1  0.25350400  0.44105600  0.49796200  1
  C  C26  1  0.75240700  0.44009600  0.48574400  1
  C  C27  1  0.55506500  0.89411000  0.54747300  1
  C  C28  1  0.55495100  0.98843300  0.54660100  1
  C  C29  1  0.50321500  0.84632400  0.49379000  1
  C  C30  1  0.50301900  0.03495200  0.49203700  1
  C  C31  1  0.45130300  0.89284300  0.43921100  1
  C  C32  1  0.45118900  0.98716200  0.43834200  1
  C  C33  1  0.50335400  0.74817900  0.49453600  1
  C  C34  1  0.50277800  0.13310100  0.49135700  1
  C  C35  1  0.62970500  0.68845900  0.06570900  1
  C  C36  1  0.60098700  0.75868700  0.11737200  1
  C  C37  1  0.64895000  0.83506600  0.13299600  1
  C  C38  1  0.72568000  0.84438700  0.09541700  1
  C  C39  1  0.75332000  0.77792800  0.04082800  1
  C  C40  1  0.70548700  0.70135100  0.02532900  1
  C  C41  1  0.69864700  0.53229600  0.17301000  1
  C  C42  1  0.77944600  0.51226600  0.19784900  1
  C  C43  1  0.81290300  0.54878900  0.27061500  1
  C  C44  1  0.76546900  0.60487600  0.32106000  1
  C  C45  1  0.68412800  0.62287300  0.29924000  1
  C  C46  1  0.65048900  0.58623100  0.22654100  1
  C  C47  1  0.68459400  0.57434000  0.82204600  1
  C  C48  1  0.71159600  0.66082300  0.79907600  1
  C  C49  1  0.76126700  0.67391400  0.72902600  1
  C  C50  1  0.78415900  0.60057400  0.67990700  1
  C  C51  1  0.75545300  0.51469500  0.70002800  1
  C  C52  1  0.70454200  0.50173000  0.76906200  1
  C  C53  1  0.76815900  0.42796700  0.93092000  1
  C  C54  1  0.81098300  0.36522700  0.88111600  1
  C  C55  1  0.89598100  0.37164600  0.86950700  1
  C  C56  1  0.94053200  0.43936400  0.90922000  1
  C  C57  1  0.89990400  0.49938600  0.96181600  1
  C  C58  1  0.81482100  0.49319300  0.97327900  1
  N  N1  1  0.50264500  0.21224500  0.49106800  1
  N  N2  1  0.50338800  0.66903800  0.49487300  1
  N  N3  1  0.57549800  0.61175200  0.05190600  1
  N  N4  1  0.66875100  0.48904400  0.09766500  1
  N  N5  1  0.63290600  0.56749400  0.89551900  1
  N  N6  1  0.67978800  0.41597600  0.94033900  1
  O  O1  1  0.38204300  0.51942600  0.50009100  1
  O  O2  1  0.38178300  0.36221800  0.49857300  1
  O  O3  1  0.50204900  0.52047800  0.37089300  1
  O  O4  1  0.50196000  0.36320500  0.36941400  1
  O  O5  1  0.62439000  0.51917300  0.49236900  1
  O  O6  1  0.62412600  0.36163500  0.49111900  1
  O  O7  1  0.50965100  0.51818900  0.61626900  1
  O  O8  1  0.50927400  0.36066500  0.61493100  1
