# Generated by REPEAT Assigner based on pymatgen
data_DB0-m29_o89_o1510_f0_pts.sym.41
_audit_creation_date              2022-05-24
_audit_creation_method            REPEAT_Assigner
_cell_length_a                    14.210365
_cell_length_b                    18.732115
_cell_length_c                    13.223322
_cell_angle_alpha                 95.303885
_cell_angle_beta                  93.147094
_cell_angle_gamma                 76.242211
_cell_volume                      3402.320658
_symmetry_space_group_name_H-M    P1
_symmetry_Int_Tables_number       1
loop_
    _symmetry_equiv_pos_site_id
    _symmetry_equiv_pos_as_xyz
    1  x,y,z
loop_
    _atom_site_type_symbol
    _atom_site_label
    _atom_site_fract_x
    _atom_site_fract_y
    _atom_site_fract_z
    _atom_type_partial_charge
    C   C1   0.836911  0.994572  0.127379  -0.310952
    C   C2   0.745485  0.991470  0.087693  0.151162
    C   C3   0.729581  0.992156  0.982871  -0.194756
    C   C4   0.802243  0.999394  0.922718  -0.076602
    C   C5   0.893254  0.004335  0.962218  -0.007239
    C   C6   0.911258  0.999691  0.065509  0.285572
    C   C7   0.966110  0.012360  0.899525  -0.019200
    C   C8   0.059991  0.008830  0.940815  0.029634
    C   C9   0.077574  0.003379  0.044091  0.217741
    C   C10  0.003207  0.000246  0.106598  -0.340138
    C   C11  0.137347  0.009666  0.880427  -0.082359
    C   C12  0.229280  0.009263  0.921293  -0.087863
    C   C13  0.245019  0.006253  0.025848  0.044460
    C   C14  0.169984  0.002138  0.085027  -0.268280
    H   H1   0.848886  0.992877  0.208341  0.147661
    H   H2   0.785951  0.996736  0.842328  0.237268
    H   H3   0.128896  0.007912  0.799145  0.127078
    H   H4   0.185956  0.000470  0.165484  0.208748
    N   N1   0.008630  0.054534  0.284470  -0.345538
    C   C15  0.038568  0.029431  0.375636  -0.075116
    C   C16  0.072192  0.953716  0.365114  -0.171174
    C   C17  0.062052  0.932101  0.263268  -0.287048
    C   C18  0.022756  0.995641  0.216017  0.482582
    H   H5   0.980957  0.109424  0.269504  0.321252
    H   H6   0.036927  0.064284  0.445695  0.152714
    H   H7   0.101775  0.918342  0.424865  0.170239
    H   H8   0.082316  0.876632  0.227454  0.152581
    O   O1   0.580736  0.988002  0.124171  -0.553142
    C   C19  0.668460  0.990284  0.158712  0.582818
    O   O2   0.635293  0.845271  0.238786  -0.493983
    O   O3   0.686873  0.993471  0.257167  -0.498485
    O   O4   0.509929  0.914844  0.331237  -0.592457
    C   C20  0.584870  0.858218  0.321420  0.540332
    Fe  Fe1  0.485769  0.987935  0.228147  1.508368
    O   O5   0.367636  0.965789  0.153997  -0.679357
    O   O6   0.380903  0.061475  0.066294  -0.497977
    C   C21  0.337633  0.008576  0.079534  0.771917
    O   O7   0.478359  0.086792  0.304231  -0.654100
    O   O8   0.316324  0.097511  0.278604  -0.566959
    C   C22  0.388509  0.121752  0.323472  0.706258
    O   O9   0.509118  0.894706  0.708601  -0.670273
    O   O10  0.668256  0.895664  0.729778  -0.566047
    C   C23  0.600149  0.865343  0.687502  0.728382
    O   O11  0.606383  0.025994  0.853710  -0.694450
    O   O12  0.602929  0.927715  0.940510  -0.484647
    C   C24  0.639079  0.984667  0.929009  0.823653
    O   O13  0.286324  0.019706  0.754945  -0.538343
    O   O14  0.464691  0.065867  0.671988  -0.600614
    C   C25  0.410667  0.132936  0.688677  0.619580
    O   O15  0.398210  0.994334  0.883060  -0.582946
    C   C26  0.307289  0.008637  0.850982  0.655132
    O   O16  0.375318  0.156761  0.778457  -0.508949
    Fe  Fe2  0.492899  0.996170  0.779525  1.502632
    H   H9   0.465007  0.089637  0.499941  0.134163
    C   C27  0.369627  0.169106  0.417503  0.001032
    C   C28  0.296614  0.232166  0.421307  -0.172407
    H   H10  0.259758  0.249310  0.350905  0.116019
    C   C29  0.269540  0.271110  0.513684  0.085106
    C   C30  0.310139  0.241126  0.603301  -0.153102
    H   H11  0.287626  0.268310  0.676530  0.118508
    C   C31  0.379124  0.174774  0.599050  0.004465
    C   C32  0.412264  0.141759  0.505810  -0.110585
    C   C33  0.960652  0.590212  0.580984  -0.137720
    H   H12  0.011977  0.584624  0.644854  0.109788
    C   C34  0.887548  0.653203  0.577291  -0.152002
    H   H13  0.885362  0.695944  0.638333  0.125740
    C   C35  0.819922  0.661314  0.496844  0.087180
    C   C36  0.830416  0.606476  0.417631  -0.150631
    H   H14  0.778391  0.609992  0.354528  0.119108
    C   C37  0.905936  0.544590  0.419904  -0.134378
    H   H15  0.912337  0.501806  0.358213  0.106157
    C   C38  0.970022  0.535609  0.502591  0.080953
    C   C39  0.697098  0.756471  0.408376  -0.224222
    H   H16  0.729242  0.734868  0.336432  0.142058
    C   C40  0.619391  0.817517  0.411507  0.098545
    C   C41  0.580583  0.847004  0.504015  -0.143649
    H   H17  0.524151  0.897154  0.509259  0.132391
    C   C42  0.622185  0.819373  0.592798  0.011680
    C   C43  0.699069  0.758964  0.589910  -0.184867
    H   H18  0.728835  0.738550  0.661370  0.108180
    C   C44  0.736550  0.725959  0.497854  0.118992
    C   C45  0.112045  0.447820  0.429830  -0.135660
    H   H19  0.106263  0.481257  0.366360  0.111082
    C   C46  0.185879  0.385315  0.434257  -0.150533
    H   H20  0.237098  0.372385  0.374068  0.116655
    C   C47  0.194403  0.340998  0.514353  0.093183
    C   C48  0.129626  0.362670  0.592229  -0.163851
    H   H21  0.131942  0.329123  0.654853  0.139059
    C   C49  0.057875  0.426830  0.589288  -0.146461
    H   H22  0.007276  0.442566  0.650066  0.109102
    C   C50  0.047807  0.468841  0.507225  0.094851
    C   C51  0.941665  0.028913  0.790052  -0.069021
    C   C52  0.953680  0.957658  0.721271  0.029006
    C   C53  0.908799  0.973959  0.616692  0.238753
    C   C54  0.916694  0.902522  0.550231  -0.319681
    H   H23  0.985462  0.064510  0.763290  0.061742
    H   H24  0.867363  0.063631  0.781732  0.012071
    H   H25  0.917849  0.919088  0.754126  -0.017443
    H   H26  0.031731  0.930924  0.714344  0.011084
    H   H27  0.947370  0.009841  0.581580  -0.061956
    H   H28  0.831144  0.002270  0.623158  -0.036595
    H   H29  0.993779  0.872423  0.545329  0.048458
    H   H30  0.886678  0.915055  0.472967  0.092913
    H   H31  0.874981  0.867646  0.582962  0.087973
