# generated using pymatgen
data_ZnH12(C4O3)4
_symmetry_space_group_name_H-M   'P 1'
_cell_length_a   21.49395300
_cell_length_b   21.49395300
_cell_length_c   21.49395300
_cell_angle_alpha   90.00000000
_cell_angle_beta   90.00000000
_cell_angle_gamma   90.00000000
_symmetry_Int_Tables_number   1
_chemical_formula_structural   ZnH12(C4O3)4
_chemical_formula_sum   'Zn12 H144 C192 O144'
_cell_volume   9929.99168105
_cell_formula_units_Z   12
loop_
 _symmetry_equiv_pos_site_id
 _symmetry_equiv_pos_as_xyz
  1  'x, y, z'
loop_
 _atom_site_type_symbol
 _atom_site_label
 _atom_site_symmetry_multiplicity
 _atom_site_fract_x
 _atom_site_fract_y
 _atom_site_fract_z
 _atom_site_occupancy
  Zn  Zn1  1  0.43956900  0.00000000  0.00000000  1
  Zn  Zn2  1  0.50000000  0.50000000  0.93956900  1
  Zn  Zn3  1  0.50000000  0.93956900  0.50000000  1
  Zn  Zn4  1  0.50000000  0.06043100  0.50000000  1
  Zn  Zn5  1  0.56043100  0.00000000  0.00000000  1
  Zn  Zn6  1  0.00000000  0.00000000  0.56043100  1
  Zn  Zn7  1  0.00000000  0.00000000  0.43956900  1
  Zn  Zn8  1  0.00000000  0.43956900  0.00000000  1
  Zn  Zn9  1  0.00000000  0.56043100  0.00000000  1
  Zn  Zn10  1  0.93956900  0.50000000  0.50000000  1
  Zn  Zn11  1  0.06043100  0.50000000  0.50000000  1
  Zn  Zn12  1  0.50000000  0.50000000  0.06043100  1
  H  H1  1  0.69397100  0.07124200  0.08207300  1
  H  H2  1  0.69397100  0.08207200  0.92875900  1
  H  H3  1  0.41792800  0.42875900  0.80602900  1
  H  H4  1  0.34873600  0.38097300  0.80441700  1
  H  H5  1  0.41086600  0.36376600  0.85882700  1
  H  H6  1  0.42875900  0.58207200  0.80602900  1
  H  H7  1  0.38097300  0.65126400  0.80441700  1
  H  H8  1  0.36376600  0.58913400  0.85882700  1
  H  H9  1  0.58207300  0.57124100  0.80602900  1
  H  H10  1  0.65126400  0.61902800  0.80441700  1
  H  H11  1  0.58913400  0.63623400  0.85882800  1
  H  H12  1  0.42875900  0.41792800  0.19397100  1
  H  H13  1  0.69558300  0.15126400  0.88097300  1
  H  H14  1  0.38097200  0.34873600  0.19558300  1
  H  H15  1  0.36376600  0.41086600  0.14117300  1
  H  H16  1  0.58207300  0.42875900  0.19397100  1
  H  H17  1  0.65126400  0.38097200  0.19558300  1
  H  H18  1  0.58913400  0.36376600  0.14117300  1
  H  H19  1  0.57124100  0.58207200  0.19397100  1
  H  H20  1  0.61902800  0.65126400  0.19558300  1
  H  H21  1  0.63623400  0.58913400  0.14117300  1
  H  H22  1  0.41792800  0.57124100  0.19397100  1
  H  H23  1  0.34873600  0.61902800  0.19558300  1
  H  H24  1  0.64117300  0.08913400  0.86376700  1
  H  H25  1  0.41086600  0.63623400  0.14117300  1
  H  H26  1  0.41792800  0.19397100  0.42875900  1
  H  H27  1  0.34873600  0.19558400  0.38097300  1
  H  H28  1  0.41086600  0.14117300  0.36376700  1
  H  H29  1  0.42875900  0.19397100  0.58207200  1
  H  H30  1  0.38097300  0.19558300  0.65126400  1
  H  H31  1  0.36376700  0.14117300  0.58913400  1
  H  H32  1  0.58207200  0.19397100  0.57124100  1
  H  H33  1  0.65126400  0.19558300  0.61902700  1
  H  H34  1  0.58913400  0.14117300  0.63623300  1
  H  H35  1  0.30602900  0.92875800  0.08207300  1
  H  H36  1  0.57124100  0.19397100  0.41792800  1
  H  H37  1  0.61902700  0.19558300  0.34873600  1
  H  H38  1  0.63623300  0.14117300  0.41086600  1
  H  H39  1  0.41792800  0.80602900  0.57124100  1
  H  H40  1  0.34873600  0.80441600  0.61902700  1
  H  H41  1  0.41086600  0.85882700  0.63623300  1
  H  H42  1  0.42875900  0.80602900  0.41792800  1
  H  H43  1  0.38097300  0.80441700  0.34873600  1
  H  H44  1  0.36376700  0.85882700  0.41086600  1
  H  H45  1  0.58207200  0.80602900  0.42875900  1
  H  H46  1  0.30441700  0.88097200  0.15126400  1
  H  H47  1  0.65126400  0.80441700  0.38097300  1
  H  H48  1  0.58913400  0.85882700  0.36376700  1
  H  H49  1  0.57124100  0.80602900  0.58207200  1
  H  H50  1  0.61902700  0.80441700  0.65126400  1
  H  H51  1  0.63623300  0.85882700  0.58913400  1
  H  H52  1  0.35882800  0.86376600  0.08913400  1
  H  H53  1  0.30602900  0.08207200  0.07124100  1
  H  H54  1  0.30441700  0.15126400  0.11902700  1
  H  H55  1  0.35882700  0.08913400  0.13623300  1
  H  H56  1  0.30602900  0.07124200  0.91792800  1
  H  H57  1  0.69558300  0.11902800  0.15126400  1
  H  H58  1  0.30441700  0.11902800  0.84873600  1
  H  H59  1  0.35882800  0.13623400  0.91086600  1
  H  H60  1  0.30602900  0.91792800  0.92875900  1
  H  H61  1  0.30441700  0.84873600  0.88097300  1
  H  H62  1  0.35882700  0.91086600  0.86376600  1
  H  H63  1  0.07124200  0.91792700  0.30602900  1
  H  H64  1  0.11902800  0.84873600  0.30441700  1
  H  H65  1  0.13623400  0.91086600  0.35882800  1
  H  H66  1  0.91792800  0.92875800  0.30602900  1
  H  H67  1  0.84873600  0.88097200  0.30441700  1
  H  H68  1  0.64117200  0.13623400  0.08913400  1
  H  H69  1  0.91086600  0.86376600  0.35882800  1
  H  H70  1  0.92875800  0.08207300  0.30602900  1
  H  H71  1  0.88097200  0.15126400  0.30441700  1
  H  H72  1  0.86376600  0.08913400  0.35882800  1
  H  H73  1  0.08207300  0.07124200  0.30602900  1
  H  H74  1  0.15126400  0.11902800  0.30441700  1
  H  H75  1  0.08913400  0.13623400  0.35882800  1
  H  H76  1  0.92875800  0.91792700  0.69397100  1
  H  H77  1  0.88097200  0.84873600  0.69558300  1
  H  H78  1  0.86376600  0.91086600  0.64117200  1
  H  H79  1  0.69397100  0.91792800  0.07124100  1
  H  H80  1  0.08207300  0.92875800  0.69397100  1
  H  H81  1  0.15126400  0.88097200  0.69558300  1
  H  H82  1  0.08913400  0.86376600  0.64117200  1
  H  H83  1  0.07124200  0.08207300  0.69397100  1
  H  H84  1  0.11902800  0.15126400  0.69558300  1
  H  H85  1  0.13623400  0.08913400  0.64117200  1
  H  H86  1  0.91792800  0.07124200  0.69397100  1
  H  H87  1  0.84873600  0.11902800  0.69558300  1
  H  H88  1  0.91086600  0.13623400  0.64117200  1
  H  H89  1  0.91792800  0.69397100  0.92875900  1
  H  H90  1  0.69558300  0.84873600  0.11902800  1
  H  H91  1  0.84873600  0.69558300  0.88097300  1
  H  H92  1  0.91086600  0.64117300  0.86376700  1
  H  H93  1  0.92875800  0.69397100  0.08207300  1
  H  H94  1  0.88097200  0.69558300  0.15126400  1
  H  H95  1  0.86376600  0.64117200  0.08913400  1
  H  H96  1  0.08207300  0.69397100  0.07124100  1
  H  H97  1  0.15126400  0.69558300  0.11902700  1
  H  H98  1  0.08913400  0.64117300  0.13623400  1
  H  H99  1  0.07124200  0.69397100  0.91792800  1
  H  H100  1  0.11902800  0.69558300  0.84873600  1
  H  H101  1  0.64117300  0.91086600  0.13623400  1
  H  H102  1  0.13623400  0.64117300  0.91086600  1
  H  H103  1  0.91792800  0.30602900  0.07124100  1
  H  H104  1  0.84873600  0.30441700  0.11902700  1
  H  H105  1  0.91086600  0.35882700  0.13623400  1
  H  H106  1  0.92875900  0.30602900  0.91792700  1
  H  H107  1  0.88097200  0.30441700  0.84873600  1
  H  H108  1  0.86376600  0.35882800  0.91086600  1
  H  H109  1  0.08207300  0.30602900  0.92875900  1
  H  H110  1  0.15126400  0.30441700  0.88097300  1
  H  H111  1  0.08913400  0.35882700  0.86376600  1
  H  H112  1  0.69397100  0.92875800  0.91792700  1
  H  H113  1  0.07124200  0.30602900  0.08207300  1
  H  H114  1  0.11902800  0.30441700  0.15126400  1
  H  H115  1  0.13623400  0.35882800  0.08913400  1
  H  H116  1  0.19397100  0.57124100  0.58207200  1
  H  H117  1  0.19558300  0.61902700  0.65126400  1
  H  H118  1  0.14117300  0.63623300  0.58913400  1
  H  H119  1  0.19397100  0.41792800  0.57124100  1
  H  H120  1  0.19558300  0.34873600  0.61902700  1
  H  H121  1  0.14117300  0.41086600  0.63623300  1
  H  H122  1  0.19397100  0.42875900  0.41792800  1
  H  H123  1  0.69558300  0.88097200  0.84873600  1
  H  H124  1  0.19558400  0.38097300  0.34873600  1
  H  H125  1  0.14117300  0.36376700  0.41086600  1
  H  H126  1  0.19397100  0.58207200  0.42875900  1
  H  H127  1  0.19558400  0.65126400  0.38097300  1
  H  H128  1  0.14117300  0.58913400  0.36376700  1
  H  H129  1  0.80602900  0.42875900  0.58207200  1
  H  H130  1  0.80441700  0.38097300  0.65126400  1
  H  H131  1  0.85882700  0.36376700  0.58913400  1
  H  H132  1  0.80602900  0.58207200  0.57124100  1
  H  H133  1  0.80441700  0.65126400  0.61902700  1
  H  H134  1  0.64117200  0.86376600  0.91086600  1
  H  H135  1  0.85882700  0.58913400  0.63623300  1
  H  H136  1  0.80602900  0.57124100  0.41792800  1
  H  H137  1  0.80441700  0.61902700  0.34873600  1
  H  H138  1  0.85882700  0.63623300  0.41086600  1
  H  H139  1  0.80602900  0.41792800  0.42875900  1
  H  H140  1  0.80441700  0.34873600  0.38097300  1
  H  H141  1  0.85882700  0.41086600  0.36376700  1
  H  H142  1  0.57124200  0.41792800  0.80602900  1
  H  H143  1  0.61902800  0.34873600  0.80441700  1
  H  H144  1  0.63623400  0.41086600  0.85882800  1
  C  C1  1  0.50000000  0.11781700  0.00000000  1
  C  C2  1  0.88218300  0.50000000  0.00000000  1
  C  C3  1  0.66511700  0.88500400  0.09854300  1
  C  C4  1  0.58041500  0.91779700  0.81654500  1
  C  C5  1  0.66511700  0.90145700  0.88500400  1
  C  C6  1  0.58041500  0.18345500  0.91779700  1
  C  C7  1  0.66511700  0.11499600  0.90145700  1
  C  C8  1  0.41958600  0.91779700  0.18345500  1
  C  C9  1  0.33488300  0.90145700  0.11499600  1
  C  C10  1  0.41958500  0.18345500  0.08220300  1
  C  C11  1  0.33488300  0.11499600  0.09854300  1
  C  C12  1  0.41958600  0.08220300  0.81654500  1
  C  C13  1  0.00000000  0.50000000  0.11781700  1
  C  C14  1  0.33488300  0.09854300  0.88500400  1
  C  C15  1  0.41958500  0.81654500  0.91779700  1
  C  C16  1  0.33488300  0.88500400  0.90145700  1
  C  C17  1  0.08220300  0.81654500  0.41958600  1
  C  C18  1  0.09854400  0.88500400  0.33488300  1
  C  C19  1  0.81654500  0.91779700  0.41958600  1
  C  C20  1  0.88500400  0.90145700  0.33488300  1
  C  C21  1  0.91779700  0.18345500  0.41958600  1
  C  C22  1  0.90145700  0.11499600  0.33488300  1
  C  C23  1  0.18345500  0.08220300  0.41958600  1
  C  C24  1  0.11781700  0.50000000  0.00000000  1
  C  C25  1  0.11499600  0.09854400  0.33488300  1
  C  C26  1  0.91779700  0.81654500  0.58041400  1
  C  C27  1  0.90145700  0.88500400  0.66511700  1
  C  C28  1  0.18345500  0.91779700  0.58041400  1
  C  C29  1  0.11499600  0.90145600  0.66511700  1
  C  C30  1  0.08220300  0.18345500  0.58041400  1
  C  C31  1  0.09854300  0.11499600  0.66511700  1
  C  C32  1  0.81654500  0.08220300  0.58041500  1
  C  C33  1  0.88500400  0.09854300  0.66511700  1
  C  C34  1  0.81654500  0.58041500  0.91779700  1
  C  C35  1  0.00000000  0.61781700  0.50000000  1
  C  C36  1  0.88500400  0.66511700  0.90145700  1
  C  C37  1  0.91779700  0.58041400  0.18345500  1
  C  C38  1  0.90145700  0.66511700  0.11499600  1
  C  C39  1  0.18345500  0.58041500  0.08220300  1
  C  C40  1  0.11499600  0.66511700  0.09854300  1
  C  C41  1  0.08220300  0.58041500  0.81654500  1
  C  C42  1  0.09854300  0.66511700  0.88500400  1
  C  C43  1  0.81654500  0.41958500  0.08220300  1
  C  C44  1  0.88500400  0.33488300  0.09854300  1
  C  C45  1  0.91779700  0.41958500  0.81654500  1
  C  C46  1  0.00000000  0.50000000  0.61781700  1
  C  C47  1  0.90145700  0.33488300  0.88500400  1
  C  C48  1  0.18345500  0.41958500  0.91779700  1
  C  C49  1  0.11499600  0.33488300  0.90145700  1
  C  C50  1  0.08220300  0.41958600  0.18345500  1
  C  C51  1  0.09854400  0.33488300  0.11499600  1
  C  C52  1  0.08041500  0.58220300  0.68345500  1
  C  C53  1  0.16511700  0.59854300  0.61499600  1
  C  C54  1  0.08041500  0.31654500  0.58220200  1
  C  C55  1  0.16511800  0.38500400  0.59854300  1
  C  C56  1  0.08041500  0.41779800  0.31654500  1
  C  C57  1  0.00000000  0.38218300  0.50000000  1
  C  C58  1  0.16511800  0.40145800  0.38500400  1
  C  C59  1  0.08041500  0.68345500  0.41779800  1
  C  C60  1  0.16511800  0.61499600  0.40145800  1
  C  C61  1  0.91958500  0.41779700  0.68345500  1
  C  C62  1  0.83488300  0.40145700  0.61499600  1
  C  C63  1  0.91958500  0.68345500  0.58220200  1
  C  C64  1  0.83488300  0.61499600  0.59854200  1
  C  C65  1  0.91958500  0.58220200  0.31654500  1
  C  C66  1  0.83488300  0.59854200  0.38500400  1
  C  C67  1  0.91958500  0.31654500  0.41779800  1
  C  C68  1  0.00000000  0.50000000  0.38218300  1
  C  C69  1  0.83488300  0.38500400  0.40145700  1
  C  C70  1  0.58220300  0.31654500  0.91958500  1
  C  C71  1  0.59854300  0.38500400  0.83488300  1
  C  C72  1  0.31654500  0.41779700  0.91958500  1
  C  C73  1  0.38500400  0.40145700  0.83488300  1
  C  C74  1  0.41779700  0.68345500  0.91958500  1
  C  C75  1  0.40145700  0.61499600  0.83488300  1
  C  C76  1  0.68345500  0.58220300  0.91958500  1
  C  C77  1  0.61499600  0.59854300  0.83488300  1
  C  C78  1  0.41779700  0.31654500  0.08041500  1
  C  C79  1  0.61781700  0.50000000  0.00000000  1
  C  C80  1  0.40145700  0.38500400  0.16511700  1
  C  C81  1  0.68345500  0.41779700  0.08041500  1
  C  C82  1  0.61499600  0.40145700  0.16511700  1
  C  C83  1  0.58220300  0.68345500  0.08041500  1
  C  C84  1  0.59854300  0.61499600  0.16511700  1
  C  C85  1  0.31654500  0.58220300  0.08041500  1
  C  C86  1  0.38500400  0.59854300  0.16511700  1
  C  C87  1  0.31654500  0.08041500  0.41779800  1
  C  C88  1  0.38500400  0.16511800  0.40145800  1
  C  C89  1  0.41779800  0.08041500  0.68345500  1
  C  C90  1  0.50000000  0.38218300  0.00000000  1
  C  C91  1  0.40145700  0.16511700  0.61499600  1
  C  C92  1  0.68345500  0.08041500  0.58220200  1
  C  C93  1  0.61499600  0.16511700  0.59854300  1
  C  C94  1  0.58220300  0.08041500  0.31654500  1
  C  C95  1  0.59854300  0.16511700  0.38500400  1
  C  C96  1  0.31654500  0.91958500  0.58220200  1
  C  C97  1  0.38500400  0.83488200  0.59854200  1
  C  C98  1  0.41779800  0.91958500  0.31654500  1
  C  C99  1  0.40145700  0.83488300  0.38500400  1
  C  C100  1  0.68345500  0.91958500  0.41779800  1
  C  C101  1  0.38218300  0.50000000  0.00000000  1
  C  C102  1  0.61499600  0.83488300  0.40145700  1
  C  C103  1  0.58220300  0.91958500  0.68345500  1
  C  C104  1  0.59854300  0.83488300  0.61499600  1
  C  C105  1  0.50000000  0.00000000  0.11781700  1
  C  C106  1  0.50000000  0.61781700  0.00000000  1
  C  C107  1  0.50000000  0.00000000  0.38218300  1
  C  C108  1  0.38218300  0.00000000  0.50000000  1
  C  C109  1  0.50000000  0.00000000  0.61781700  1
  C  C110  1  0.61781700  0.00000000  0.50000000  1
  C  C111  1  0.53981100  0.03917400  0.21777300  1
  C  C112  1  0.53981100  0.78222700  0.03917300  1
  C  C113  1  0.53981100  0.96082600  0.78222700  1
  C  C114  1  0.53981100  0.21777300  0.96082700  1
  C  C115  1  0.46019000  0.96082700  0.21777300  1
  C  C116  1  0.50000000  0.88218300  0.00000000  1
  C  C117  1  0.46018900  0.21777300  0.03917300  1
  C  C118  1  0.46019000  0.03917400  0.78222700  1
  C  C119  1  0.46018900  0.78222700  0.96082700  1
  C  C120  1  0.03917400  0.78222700  0.46019000  1
  C  C121  1  0.78222700  0.96082600  0.46019000  1
  C  C122  1  0.96082700  0.21777300  0.46019000  1
  C  C123  1  0.21777300  0.03917400  0.46019000  1
  C  C124  1  0.96082600  0.78222700  0.53981000  1
  C  C125  1  0.21777300  0.96082600  0.53981000  1
  C  C126  1  0.03917400  0.21777300  0.53981000  1
  C  C127  1  0.50000000  0.00000000  0.88218300  1
  C  C128  1  0.78222700  0.03917400  0.53981000  1
  C  C129  1  0.78222700  0.53981100  0.96082700  1
  C  C130  1  0.96082600  0.53981000  0.21777300  1
  C  C131  1  0.21777300  0.53981100  0.03917300  1
  C  C132  1  0.03917400  0.53981100  0.78222700  1
  C  C133  1  0.78222700  0.46018900  0.03917300  1
  C  C134  1  0.96082700  0.46018900  0.78222700  1
  C  C135  1  0.21777300  0.46018900  0.96082700  1
  C  C136  1  0.03917400  0.46019000  0.21777300  1
  C  C137  1  0.03981100  0.53917300  0.71777300  1
  C  C138  1  0.11781700  0.00000000  0.50000000  1
  C  C139  1  0.03981100  0.28222700  0.53917300  1
  C  C140  1  0.03981100  0.46082700  0.28222700  1
  C  C141  1  0.03981100  0.71777300  0.46082700  1
  C  C142  1  0.96018900  0.46082700  0.71777300  1
  C  C143  1  0.96018900  0.71777300  0.53917300  1
  C  C144  1  0.96018900  0.53917300  0.28222700  1
  C  C145  1  0.96018900  0.28222700  0.46082700  1
  C  C146  1  0.53917400  0.28222700  0.96018900  1
  C  C147  1  0.28222700  0.46082700  0.96018900  1
  C  C148  1  0.46082700  0.71777300  0.96018900  1
  C  C149  1  0.00000000  0.88218300  0.50000000  1
  C  C150  1  0.71777300  0.53917300  0.96018900  1
  C  C151  1  0.46082700  0.28222700  0.03981100  1
  C  C152  1  0.71777300  0.46082700  0.03981100  1
  C  C153  1  0.53917300  0.71777300  0.03981100  1
  C  C154  1  0.28222700  0.53917300  0.03981100  1
  C  C155  1  0.28222700  0.03981100  0.46082700  1
  C  C156  1  0.46082700  0.03981100  0.71777300  1
  C  C157  1  0.71777300  0.03981100  0.53917300  1
  C  C158  1  0.53917300  0.03981100  0.28222700  1
  C  C159  1  0.28222700  0.96018900  0.53917300  1
  C  C160  1  0.88218300  0.00000000  0.50000000  1
  C  C161  1  0.46082700  0.96018900  0.28222700  1
  C  C162  1  0.71777300  0.96018900  0.46082700  1
  C  C163  1  0.53917300  0.96018900  0.71777300  1
  C  C164  1  0.50000000  0.00000000  0.31427500  1
  C  C165  1  0.50000000  0.68572500  0.00000000  1
  C  C166  1  0.50000000  0.00000000  0.68572600  1
  C  C167  1  0.50000000  0.31427500  0.00000000  1
  C  C168  1  0.00000000  0.68572500  0.50000000  1
  C  C169  1  0.68572600  0.00000000  0.50000000  1
  C  C170  1  0.00000000  0.31427500  0.50000000  1
  C  C171  1  0.00000000  0.11781700  0.50000000  1
  C  C172  1  0.31427500  0.00000000  0.50000000  1
  C  C173  1  0.68572600  0.50000000  0.00000000  1
  C  C174  1  0.00000000  0.50000000  0.31427500  1
  C  C175  1  0.31427500  0.50000000  0.00000000  1
  C  C176  1  0.00000000  0.50000000  0.68572500  1
  C  C177  1  0.00000000  0.50000000  0.81427500  1
  C  C178  1  0.00000000  0.18572500  0.50000000  1
  C  C179  1  0.00000000  0.50000000  0.18572500  1
  C  C180  1  0.00000000  0.81427500  0.50000000  1
  C  C181  1  0.50000000  0.18572500  0.00000000  1
  C  C182  1  0.00000000  0.50000000  0.88218300  1
  C  C183  1  0.18572600  0.50000000  0.00000000  1
  C  C184  1  0.50000000  0.81427500  0.00000000  1
  C  C185  1  0.81427500  0.50000000  0.00000000  1
  C  C186  1  0.18572600  0.00000000  0.50000000  1
  C  C187  1  0.50000000  0.00000000  0.81427500  1
  C  C188  1  0.81427500  0.00000000  0.50000000  1
  C  C189  1  0.50000000  0.00000000  0.18572500  1
  C  C190  1  0.58041500  0.08220300  0.18345500  1
  C  C191  1  0.66511700  0.09854300  0.11499600  1
  C  C192  1  0.58041500  0.81654500  0.08220300  1
  O  O1  1  0.45656100  0.08772000  0.96961000  1
  O  O2  1  0.03039000  0.91228000  0.54343900  1
  O  O3  1  0.12222500  0.35769200  0.55998400  1
  O  O4  1  0.07831500  0.36212400  0.30567800  1
  O  O5  1  0.12222500  0.44001600  0.35769200  1
  O  O6  1  0.07831500  0.69432200  0.36212400  1
  O  O7  1  0.12222500  0.64230800  0.44001600  1
  O  O8  1  0.92168500  0.36212400  0.69432200  1
  O  O9  1  0.87777600  0.44001600  0.64230800  1
  O  O10  1  0.92168500  0.69432200  0.63787600  1
  O  O11  1  0.87777600  0.64230800  0.55998400  1
  O  O12  1  0.92168500  0.63787600  0.30567800  1
  O  O13  1  0.91228000  0.96961000  0.54343900  1
  O  O14  1  0.87777600  0.55998400  0.35769200  1
  O  O15  1  0.92168500  0.30567800  0.36212400  1
  O  O16  1  0.87777600  0.35769200  0.44001600  1
  O  O17  1  0.63787600  0.30567800  0.92168600  1
  O  O18  1  0.55998400  0.35769200  0.87777600  1
  O  O19  1  0.30567800  0.36212400  0.92168600  1
  O  O20  1  0.35769200  0.44001600  0.87777600  1
  O  O21  1  0.36212400  0.69432200  0.92168500  1
  O  O22  1  0.44001600  0.64230800  0.87777600  1
  O  O23  1  0.69432200  0.63787600  0.92168600  1
  O  O24  1  0.96961000  0.08772000  0.54343900  1
  O  O25  1  0.64230900  0.55998400  0.87777600  1
  O  O26  1  0.36212400  0.30567800  0.07831400  1
  O  O27  1  0.44001600  0.35769200  0.12222400  1
  O  O28  1  0.69432200  0.36212400  0.07831400  1
  O  O29  1  0.64230900  0.44001600  0.12222400  1
  O  O30  1  0.63787600  0.69432200  0.07831500  1
  O  O31  1  0.55998400  0.64230800  0.12222400  1
  O  O32  1  0.30567800  0.63787600  0.07831500  1
  O  O33  1  0.35769200  0.55998400  0.12222400  1
  O  O34  1  0.30567800  0.07831500  0.36212400  1
  O  O35  1  0.91228000  0.03039000  0.45656100  1
  O  O36  1  0.35769200  0.12222500  0.44001600  1
  O  O37  1  0.36212400  0.07831500  0.69432200  1
  O  O38  1  0.44001600  0.12222400  0.64230800  1
  O  O39  1  0.69432200  0.07831500  0.63787600  1
  O  O40  1  0.64230800  0.12222400  0.55998400  1
  O  O41  1  0.63787600  0.07831500  0.30567800  1
  O  O42  1  0.55998400  0.12222400  0.35769200  1
  O  O43  1  0.30567800  0.92168500  0.63787600  1
  O  O44  1  0.35769200  0.87777500  0.55998400  1
  O  O45  1  0.36212400  0.92168500  0.30567800  1
  O  O46  1  0.96961000  0.91228000  0.45656100  1
  O  O47  1  0.44001600  0.87777600  0.35769200  1
  O  O48  1  0.69432200  0.92168500  0.36212400  1
  O  O49  1  0.64230900  0.87777600  0.44001600  1
  O  O50  1  0.63787600  0.92168500  0.69432200  1
  O  O51  1  0.55998400  0.87777600  0.64230800  1
  O  O52  1  0.08772000  0.96961000  0.45656100  1
  O  O53  1  0.03039000  0.08772000  0.45656100  1
  O  O54  1  0.03039000  0.45656100  0.91228000  1
  O  O55  1  0.91228000  0.45656100  0.96961000  1
  O  O56  1  0.96961000  0.45656100  0.08772000  1
  O  O57  1  0.45656100  0.03039000  0.08772000  1
  O  O58  1  0.08772000  0.45656100  0.03039000  1
  O  O59  1  0.03039000  0.54343900  0.08772000  1
  O  O60  1  0.91228000  0.54343900  0.03039000  1
  O  O61  1  0.96961000  0.54343900  0.91228000  1
  O  O62  1  0.08772000  0.54343900  0.96961000  1
  O  O63  1  0.95656100  0.58772000  0.46961000  1
  O  O64  1  0.95656100  0.53039000  0.58772000  1
  O  O65  1  0.95656100  0.41228000  0.53039000  1
  O  O66  1  0.95656100  0.46961000  0.41228000  1
  O  O67  1  0.04343900  0.41228000  0.46961000  1
  O  O68  1  0.45656100  0.91228000  0.03039000  1
  O  O69  1  0.04343900  0.46961000  0.58772000  1
  O  O70  1  0.04343900  0.58772000  0.53039000  1
  O  O71  1  0.04343900  0.53039000  0.41228000  1
  O  O72  1  0.58772000  0.53039000  0.04343900  1
  O  O73  1  0.53039000  0.41228000  0.04343900  1
  O  O74  1  0.41228000  0.46961000  0.04343900  1
  O  O75  1  0.46961000  0.58772000  0.04343900  1
  O  O76  1  0.41228000  0.53039000  0.95656100  1
  O  O77  1  0.46961000  0.41228000  0.95656100  1
  O  O78  1  0.58772000  0.46961000  0.95656100  1
  O  O79  1  0.45656100  0.96961000  0.91228000  1
  O  O80  1  0.53039000  0.58772000  0.95656100  1
  O  O81  1  0.53039000  0.95656100  0.41228000  1
  O  O82  1  0.41228000  0.95656100  0.46961000  1
  O  O83  1  0.46961000  0.95656100  0.58772000  1
  O  O84  1  0.58772000  0.95656100  0.53039000  1
  O  O85  1  0.53039000  0.04343900  0.58772000  1
  O  O86  1  0.41228000  0.04343900  0.53039000  1
  O  O87  1  0.46961000  0.04343900  0.41228000  1
  O  O88  1  0.58772000  0.04343900  0.46961000  1
  O  O89  1  0.57831400  0.13787600  0.19432200  1
  O  O90  1  0.54343900  0.91228000  0.96961000  1
  O  O91  1  0.62222400  0.05998400  0.14230900  1
  O  O92  1  0.57831500  0.80567800  0.13787600  1
  O  O93  1  0.62222400  0.85769200  0.05998400  1
  O  O94  1  0.57831400  0.86212300  0.80567800  1
  O  O95  1  0.62222400  0.94001600  0.85769200  1
  O  O96  1  0.57831500  0.19432200  0.86212400  1
  O  O97  1  0.62222400  0.14230800  0.94001600  1
  O  O98  1  0.42168600  0.86212400  0.19432200  1
  O  O99  1  0.37777600  0.94001600  0.14230800  1
  O  O100  1  0.42168500  0.19432200  0.13787600  1
  O  O101  1  0.54343900  0.96961000  0.08772000  1
  O  O102  1  0.37777600  0.14230800  0.05998400  1
  O  O103  1  0.42168600  0.13787700  0.80567800  1
  O  O104  1  0.37777600  0.05998400  0.85769200  1
  O  O105  1  0.42168600  0.80567800  0.86212400  1
  O  O106  1  0.37777600  0.85769200  0.94001600  1
  O  O107  1  0.13787700  0.80567800  0.42168600  1
  O  O108  1  0.05998400  0.85769200  0.37777600  1
  O  O109  1  0.80567800  0.86212400  0.42168600  1
  O  O110  1  0.85769200  0.94001600  0.37777600  1
  O  O111  1  0.86212400  0.19432200  0.42168600  1
  O  O112  1  0.54343900  0.08772000  0.03039000  1
  O  O113  1  0.94001600  0.14230800  0.37777600  1
  O  O114  1  0.19432200  0.13787700  0.42168600  1
  O  O115  1  0.14230900  0.05998400  0.37777600  1
  O  O116  1  0.86212300  0.80567800  0.57831400  1
  O  O117  1  0.94001600  0.85769100  0.62222400  1
  O  O118  1  0.19432200  0.86212300  0.57831400  1
  O  O119  1  0.14230900  0.94001600  0.62222400  1
  O  O120  1  0.13787700  0.19432200  0.57831400  1
  O  O121  1  0.05998400  0.14230900  0.62222400  1
  O  O122  1  0.80567800  0.13787600  0.57831400  1
  O  O123  1  0.54343900  0.03039000  0.91228000  1
  O  O124  1  0.85769200  0.05998400  0.62222400  1
  O  O125  1  0.80567800  0.57831500  0.86212400  1
  O  O126  1  0.85769200  0.62222400  0.94001600  1
  O  O127  1  0.86212300  0.57831400  0.19432200  1
  O  O128  1  0.94001600  0.62222400  0.14230900  1
  O  O129  1  0.19432200  0.57831500  0.13787600  1
  O  O130  1  0.14230900  0.62222400  0.05998400  1
  O  O131  1  0.13787600  0.57831400  0.80567800  1
  O  O132  1  0.05998400  0.62222400  0.85769200  1
  O  O133  1  0.80567800  0.42168500  0.13787600  1
  O  O134  1  0.08772000  0.03039000  0.54343900  1
  O  O135  1  0.85769200  0.37777600  0.05998400  1
  O  O136  1  0.86212400  0.42168600  0.80567800  1
  O  O137  1  0.94001600  0.37777600  0.85769200  1
  O  O138  1  0.19432200  0.42168500  0.86212400  1
  O  O139  1  0.14230900  0.37777600  0.94001600  1
  O  O140  1  0.13787700  0.42168600  0.19432200  1
  O  O141  1  0.05998400  0.37777600  0.14230800  1
  O  O142  1  0.07831500  0.63787600  0.69432200  1
  O  O143  1  0.12222400  0.55998400  0.64230800  1
  O  O144  1  0.07831500  0.30567800  0.63787600  1
