# Generated by REPEAT Assigner based on pymatgen
data_DB0-m2_o26_o29_f0_pcu.sym.40_sqe
_audit_creation_date              2022-05-24
_audit_creation_method            REPEAT_Assigner
_cell_length_a                    15.940062
_cell_length_b                    17.359097
_cell_length_c                    27.520510
_cell_angle_alpha                 89.991175
_cell_angle_beta                  92.984257
_cell_angle_gamma                 96.735552
_cell_volume                      7552.114581
_symmetry_space_group_name_H-M    P1
_symmetry_Int_Tables_number       1
loop_
    _symmetry_equiv_pos_site_id
    _symmetry_equiv_pos_as_xyz
    1  x,y,z
loop_
    _atom_site_type_symbol
    _atom_site_label
    _atom_site_fract_x
    _atom_site_fract_y
    _atom_site_fract_z
    _atom_type_partial_charge
    O   O1   0.393270  0.381778  0.502372  -0.584784
    O   O2   0.553198  0.614219  0.495110  -0.573156
    O   O3   0.538066  0.389490  0.502736  -0.577495
    O   O4   0.408146  0.606593  0.496046  -0.584242
    C   C1   0.463509  0.349297  0.503585  0.688053
    C   C2   0.482868  0.646701  0.494687  0.686521
    O   O5   0.398422  0.486009  0.426980  -0.618892
    O   O6   0.547920  0.511181  0.571036  -0.654709
    O   O7   0.543763  0.497955  0.429980  -0.641520
    O   O8   0.402505  0.496968  0.568164  -0.609248
    C   C3   0.470444  0.489003  0.405800  0.770928
    C   C4   0.475924  0.507089  0.592348  0.773261
    Cu  Cu1  0.388722  0.493375  0.497235  0.886378
    Cu  Cu2  0.557548  0.502544  0.500875  0.961360
    C   C5   0.462460  0.424107  0.175145  0.364683
    C   C6   0.480224  0.571625  0.823183  0.372970
    O   O9   0.435991  0.358498  0.198543  -0.436764
    O   O10  0.461824  0.634487  0.798194  -0.438304
    N   N1   0.473182  0.491031  0.200542  -0.170957
    N   N2   0.483952  0.505434  0.798354  -0.176206
    C   C7   0.488642  0.559304  0.177795  0.452556
    C   C8   0.491577  0.438710  0.822025  0.448957
    C   C9   0.413311  0.526407  0.276026  -0.182788
    C   C10  0.418867  0.461490  0.719571  -0.187305
    C   C11  0.412256  0.524018  0.326018  -0.044645
    C   C12  0.416712  0.463806  0.669500  -0.046714
    C   C13  0.525597  0.444716  0.328930  0.105010
    C   C14  0.539661  0.557764  0.672618  0.104752
    C   C15  0.526191  0.447391  0.278833  -0.238808
    C   C16  0.540979  0.555249  0.722887  -0.246047
    C   C17  0.470995  0.488709  0.252287  0.242830
    C   C18  0.481433  0.506805  0.746442  0.256037
    C   C19  0.485681  0.493845  0.100999  0.090829
    C   C20  0.492555  0.504102  0.898707  0.098347
    C   C21  0.474628  0.423870  0.125271  -0.075343
    C   C22  0.490605  0.573270  0.873873  -0.088323
    C   C23  0.474855  0.355671  0.098901  0.079793
    C   C24  0.497696  0.641920  0.900498  0.090589
    C   C25  0.492195  0.561549  0.127822  -0.113708
    C   C26  0.493134  0.436850  0.872208  -0.112843
    C   C27  0.468936  0.484535  0.352722  -0.170022
    C   C28  0.477371  0.510835  0.645669  -0.175369
    H   H1   0.569610  0.416016  0.260080  0.160242
    H   H2   0.587878  0.592961  0.744179  0.160513
    C   C29  0.492295  0.431031  0.973290  0.040754
    C   C30  0.498025  0.567695  0.026854  0.040300
    C   C31  0.496488  0.570026  0.975840  0.119962
    C   C32  0.486801  0.428251  0.024011  0.114886
    C   C33  0.493849  0.501766  0.949421  -0.023841
    C   C34  0.490274  0.496590  0.050490  -0.018301
    C   C35  0.496668  0.364590  0.945549  -0.160320
    C   C36  0.506877  0.635001  0.055187  -0.161299
    C   C37  0.497352  0.367783  0.895888  -0.051963
    C   C38  0.504439  0.631676  0.104775  -0.053338
    O   O11  0.497850  0.373710  0.796601  -0.519047
    O   O12  0.501436  0.625381  0.203940  -0.520635
    C   C39  0.478387  0.358421  0.049197  -0.292198
    C   C40  0.498478  0.639466  0.950353  -0.297229
    H   H3   0.367783  0.427136  0.649061  0.111823
    H   H4   0.368532  0.555647  0.344360  0.106554
    H   H5   0.370792  0.424410  0.737493  0.155424
    H   H6   0.369009  0.558098  0.255513  0.155534
    H   H7   0.500391  0.314557  0.876107  0.127936
    H   H8   0.511267  0.685620  0.124915  0.127367
    H   H9   0.501432  0.308065  0.960478  0.127354
    H   H10  0.517283  0.692628  0.040992  0.129798
    H   H11  0.475010  0.302748  0.031897  0.168177
    H   H12  0.501805  0.695195  0.967524  0.165804
    C   C41  0.458670  0.264414  0.504915  -0.107207
    C   C42  0.487766  0.731503  0.493158  -0.096235
    C   C43  0.531869  0.228782  0.505408  -0.017837
    C   C44  0.414598  0.767119  0.492233  -0.069943
    C   C45  0.527917  0.149126  0.506191  -0.215864
    C   C46  0.418612  0.846810  0.491863  -0.204513
    C   C47  0.450478  0.103717  0.505668  0.265694
    C   C48  0.496074  0.892176  0.492450  0.264309
    C   C49  0.377512  0.139471  0.506145  -0.247410
    C   C50  0.569062  0.856404  0.492296  -0.244162
    C   C51  0.381377  0.219244  0.505519  -0.032072
    C   C52  0.565112  0.776599  0.492991  -0.008313
    C   C53  0.442918  0.018278  0.506379  -0.221654
    C   C54  0.503578  0.977540  0.491642  -0.221085
    H   H13  0.593271  0.262450  0.505328  0.074389
    H   H14  0.353258  0.733309  0.491806  0.105124
    H   H15  0.623398  0.750275  0.493669  0.078647
    H   H16  0.323101  0.245478  0.505311  0.098350
    H   H17  0.561634  0.006866  0.478636  0.135986
    H   H18  0.384710  0.989017  0.519230  0.138354
    H   H19  0.316541  0.104931  0.506432  0.127969
    H   H20  0.630173  0.890842  0.492467  0.128018
    H   H21  0.359896  0.872021  0.490048  0.123289
    H   H22  0.586595  0.123826  0.508318  0.126902
    N   N3   0.683771  0.509046  0.503448  -0.093316
    N   N4   0.262429  0.486618  0.494577  -0.082363
    C   C55  0.720211  0.457895  0.477171  -0.022237
    C   C56  0.226050  0.538522  0.520192  0.037362
    C   C57  0.806846  0.458834  0.478847  -0.183506
    C   C58  0.139435  0.538917  0.517502  -0.268982
    C   C59  0.856892  0.511243  0.509126  0.271913
    C   C60  0.089178  0.486296  0.487664  0.325302
    C   C61  0.817854  0.562079  0.536312  -0.228498
    C   C62  0.128111  0.435541  0.460308  -0.289878
    C   C63  0.731146  0.560161  0.533214  0.016237
    C   C64  0.214920  0.436468  0.464032  0.061892
    C   C65  0.949772  0.514255  0.514980  -0.202913
    C   C66  0.996323  0.483200  0.482591  -0.228000
    H   H23  0.681530  0.415830  0.454156  0.168648
    H   H24  0.264784  0.579728  0.543862  0.123128
    H   H25  0.244620  0.395584  0.443091  0.118876
    H   H26  0.701324  0.600582  0.554353  0.154438
    H   H27  0.965791  0.453564  0.450795  0.135839
    H   H28  0.979511  0.543914  0.547137  0.138178
    H   H29  0.855226  0.604248  0.559807  0.105774
    H   H30  0.090869  0.394225  0.436151  0.139492
    H   H31  0.113116  0.582183  0.538151  0.142082
    H   H32  0.832805  0.416644  0.456990  0.096287
    C   C67  0.578152  0.392621  0.355411  0.364820
    O   O13  0.545891  0.347734  0.385079  -0.412359
    C   C68  0.667034  0.389377  0.344459  0.097818
    C   C69  0.704106  0.322794  0.354957  -0.135132
    C   C70  0.787671  0.319068  0.345655  -0.015597
    C   C71  0.834907  0.381973  0.326138  -0.115152
    C   C72  0.798669  0.448845  0.316169  -0.050222
    C   C73  0.715133  0.452819  0.325484  -0.201528
    H   H33  0.667691  0.272722  0.369860  0.101024
    H   H34  0.816134  0.266622  0.353473  0.077019
    H   H35  0.900375  0.378961  0.318736  0.092409
    H   H36  0.835945  0.498310  0.301112  0.097011
    H   H37  0.688416  0.506297  0.318291  0.109279
    C   C74  0.597875  0.617218  0.649395  0.367879
    O   O14  0.569463  0.658780  0.618412  -0.415259
    C   C75  0.688033  0.631930  0.665171  0.114364
    C   C76  0.732240  0.703861  0.657252  -0.142123
    C   C77  0.816743  0.718403  0.671606  -0.023597
    C   C78  0.858002  0.660945  0.693270  -0.124157
    C   C79  0.814774  0.588711  0.700388  -0.045216
    C   C80  0.730111  0.574049  0.686344  -0.210135
    H   H38  0.701182  0.749882  0.640331  0.102398
    H   H39  0.850638  0.775017  0.665697  0.083020
    H   H40  0.924409  0.672398  0.704246  0.098085
    H   H41  0.847328  0.543187  0.716753  0.096030
    H   H42  0.697935  0.516504  0.691421  0.108412
    C   C81  0.475956  0.278648  0.121171  0.449701
    O   O15  0.420648  0.226923  0.108526  -0.471409
    C   C82  0.545009  0.261093  0.155787  -0.015179
    C   C83  0.535607  0.193443  0.182568  -0.046223
    C   C84  0.598358  0.177117  0.216076  -0.138585
    C   C85  0.671061  0.227992  0.223003  -0.073357
    C   C86  0.681441  0.294890  0.195995  -0.081933
    C   C87  0.619009  0.311342  0.162312  -0.119489
    H   H43  0.478626  0.153160  0.178193  0.114768
    H   H44  0.590249  0.124439  0.237128  0.112471
    H   H45  0.720046  0.215299  0.249432  0.089127
    H   H46  0.738744  0.334598  0.201186  0.086053
    H   H47  0.629448  0.363806  0.141313  0.056016
    C   C88  0.509069  0.719655  0.878650  0.444839
    O   O16  0.459106  0.765323  0.887287  -0.470274
    C   C89  0.581929  0.745208  0.849167  -0.011085
    C   C90  0.581207  0.811670  0.821477  -0.045840
    C   C91  0.647454  0.835138  0.792560  -0.142934
    C   C92  0.715033  0.792661  0.791193  -0.073854
    C   C93  0.716747  0.726996  0.819123  -0.080300
    C   C94  0.650779  0.703427  0.848236  -0.123214
    H   H48  0.528249  0.845240  0.821433  0.114408
    H   H49  0.646112  0.886727  0.770672  0.113682
    H   H50  0.766762  0.810964  0.768342  0.091966
    H   H51  0.769955  0.693824  0.818195  0.087954
    H   H52  0.654315  0.652149  0.870094  0.057196
