# Generated by REPEAT Assigner based on pymatgen
data_DB0-m3_o160_o530_f0_fsc.sym.54
_audit_creation_date              2022-05-24
_audit_creation_method            REPEAT_Assigner
_cell_length_a                    19.008853
_cell_length_b                    8.544621
_cell_length_c                    13.418669
_cell_angle_alpha                 90.000000
_cell_angle_beta                  101.915077
_cell_angle_gamma                 90.000000
_cell_volume                      2132.548291
_symmetry_space_group_name_H-M    P1
_symmetry_Int_Tables_number       1
loop_
    _symmetry_equiv_pos_site_id
    _symmetry_equiv_pos_as_xyz
    1  x,y,z
loop_
    _atom_site_type_symbol
    _atom_site_label
    _atom_site_fract_x
    _atom_site_fract_y
    _atom_site_fract_z
    _atom_type_partial_charge
    C   C1   0.870393  0.910413  0.082649  0.465710
    C   C2   0.845479  0.086938  0.946138  0.437765
    N   N1   0.823241  0.998793  0.017141  -0.191177
    C   C3   0.917244  0.088943  0.940185  -0.086770
    C   C4   0.942449  0.909591  0.078378  -0.119164
    C   C5   0.965913  0.999763  0.006826  0.098114
    C   C6   0.940597  0.178995  0.867840  -0.082277
    C   C7   0.991242  0.820332  0.145668  -0.060785
    C   C8   0.012311  0.179845  0.862880  -0.029063
    C   C9   0.063003  0.821284  0.140741  -0.058585
    C   C10  0.061071  0.090645  0.930220  -0.129940
    C   C11  0.086392  0.911426  0.068436  -0.090914
    C   C12  0.037676  0.000629  0.001874  0.099928
    C   C13  0.133033  0.089660  0.925727  0.404476
    C   C14  0.158181  0.913433  0.062315  0.398302
    N   N2   0.180317  0.001662  0.991232  -0.068740
    O   O1   0.847453  0.826483  0.154407  -0.475203
    O   O2   0.797343  0.169604  0.879133  -0.483321
    H   H1   0.903406  0.249797  0.814600  0.135680
    H   H2   0.974086  0.748837  0.202671  0.124238
    H   H3   0.029440  0.251220  0.805799  0.105902
    H   H4   0.100206  0.750427  0.193930  0.125937
    O   O3   0.155745  0.172862  0.853538  -0.450743
    O   O4   0.206376  0.830523  0.129074  -0.476481
    C   C15  0.290270  0.860631  0.980977  -0.263165
    C   C16  0.289745  0.141081  0.978274  -0.325629
    H   H5   0.264005  0.750218  0.987971  0.131501
    H   H6   0.263933  0.250997  0.988362  0.134992
    C   C17  0.359862  0.861234  0.965714  0.094465
    C   C18  0.359382  0.140583  0.963381  0.224423
    C   C19  0.392800  0.000788  0.952757  -0.334057
    C   C20  0.254024  0.000903  0.983238  0.244045
    C   C21  0.713065  0.140027  0.025789  -0.298131
    C   C22  0.713491  0.859498  0.028318  -0.309985
    H   H7   0.739616  0.250408  0.019769  0.158505
    H   H8   0.739515  0.749546  0.019003  0.151022
    C   C23  0.642925  0.139542  0.038717  -0.016711
    C   C24  0.643338  0.860168  0.040938  0.053657
    C   C25  0.609592  0.999983  0.050313  -0.187840
    C   C26  0.749406  0.999633  0.024347  0.355662
    H   H9   0.447789  0.000756  0.943368  0.132001
    H   H10  0.554271  0.000033  0.058157  0.154098
    O   O5   0.428937  0.668390  0.069195  -0.751411
    O   O6   0.428639  0.331817  0.067769  -0.801938
    O   O7   0.425235  0.665754  0.896629  -0.671125
    O   O8   0.424584  0.337554  0.895043  -0.703149
    C   C27  0.403619  0.719499  0.976707  0.865889
    C   C28  0.403100  0.282393  0.974925  0.850015
    O   O9   0.574313  0.669088  0.935933  -0.724443
    O   O10  0.573896  0.332079  0.934511  -0.673880
    O   O11  0.578205  0.663519  0.109404  -0.722076
    O   O12  0.577866  0.335360  0.108028  -0.708230
    C   C29  0.599756  0.718252  0.029193  0.830479
    C   C30  0.599304  0.281536  0.027498  0.828313
    Zn  Zn1  0.500135  0.501264  0.890213  0.969608
    Zn  Zn2  0.502646  0.499550  0.113638  1.101409
    C   C31  0.565360  0.497642  0.316449  -0.378984
    N   N3   0.504266  0.498297  0.244753  0.230919
    C   C32  0.440030  0.498608  0.271598  -0.226516
    C   C33  0.435205  0.498762  0.372327  -0.050619
    C   C34  0.497133  0.498734  0.448120  -0.312034
    C   C35  0.562708  0.497773  0.418750  0.738453
    C   C36  0.432733  0.501980  0.587716  -0.235706
    C   C37  0.495812  0.499770  0.551706  0.369772
    C   C38  0.559850  0.499165  0.622162  -0.111171
    C   C39  0.624034  0.497604  0.589425  0.286049
    N   N4   0.624410  0.497154  0.489247  -0.655933
    C   C40  0.434388  0.503682  0.690474  -0.072565
    N   N5   0.497623  0.502551  0.758688  0.128440
    C   C41  0.559903  0.500160  0.725474  -0.149867
    H   H11  0.391274  0.498942  0.213553  0.197809
    H   H12  0.610362  0.499116  0.780191  0.173387
    H   H13  0.674445  0.497096  0.644274  0.088966
    H   H14  0.381798  0.498841  0.387044  0.139712
    H   H15  0.380247  0.503410  0.539149  0.114294
    H   H16  0.616815  0.497293  0.294049  0.199481
    C   C42  0.365185  0.507970  0.721497  0.414988
    C   C43  0.322617  0.378510  0.722905  -0.169185
    C   C44  0.258701  0.434541  0.737426  -0.266327
    C   C45  0.266133  0.594401  0.741540  -0.084225
    O   O13  0.330409  0.640228  0.729504  -0.171695
    H   H17  0.336283  0.257950  0.711471  0.108615
    H   H18  0.211103  0.367881  0.741437  0.183158
    H   H19  0.224007  0.674895  0.750502  0.129578
