# Generated by REPEAT Assigner based on pymatgen
data_DB0-m3_o44_o158_f0_fsc.sym.8
_audit_creation_date              2022-05-24
_audit_creation_method            REPEAT_Assigner
_cell_length_a                    8.562667
_cell_length_b                    13.499679
_cell_length_c                    13.459287
_cell_angle_alpha                 90.000000
_cell_angle_beta                  90.000000
_cell_angle_gamma                 90.000000
_cell_volume                      1555.802863
_symmetry_space_group_name_H-M    P1
_symmetry_Int_Tables_number       1
loop_
    _symmetry_equiv_pos_site_id
    _symmetry_equiv_pos_as_xyz
    1  x,y,z
loop_
    _atom_site_type_symbol
    _atom_site_label
    _atom_site_fract_x
    _atom_site_fract_y
    _atom_site_fract_z
    _atom_type_partial_charge
    C   C1   0.861771  0.993516  0.304656  -0.356540
    C   C2   0.141034  0.006476  0.695659  -0.398887
    C   C3   0.140776  0.995582  0.304825  -0.357710
    C   C4   0.862040  0.004648  0.695562  -0.290057
    C   C5   0.860946  0.003357  0.202698  0.497049
    C   C6   0.141900  0.996600  0.797615  0.499218
    C   C7   0.141553  0.005239  0.202840  0.493377
    C   C8   0.861293  0.994989  0.797544  0.479264
    C   C9   0.001307  0.004220  0.151503  -0.243355
    C   C10  0.001569  0.995867  0.848847  -0.243140
    Zn  Zn1  0.500657  0.887901  0.503744  1.038436
    Zn  Zn2  0.502232  0.112200  0.496612  1.024717
    C   C11  0.500962  0.395863  0.409737  -0.343031
    C   C12  0.507521  0.604124  0.590336  -0.173509
    C   C13  0.495124  0.606940  0.413878  -0.280531
    C   C14  0.508268  0.393151  0.586292  -0.405910
    C   C15  0.503813  0.446359  0.498972  0.130885
    C   C16  0.501755  0.553688  0.501125  -0.048742
    C   C17  0.001410  0.982661  0.353142  -0.066464
    C   C18  0.001396  0.017465  0.647212  -0.067242
    C   C19  0.001427  0.001789  0.044908  -0.071003
    C   C20  0.001499  0.998292  0.955442  -0.065440
    C   C21  0.507088  0.290735  0.582841  0.422617
    C   C22  0.494117  0.709416  0.417497  0.348821
    C   C23  0.506327  0.706730  0.590743  0.363359
    C   C24  0.501896  0.293221  0.409476  0.404000
    C   C25  0.498595  0.446743  0.311375  0.670489
    C   C26  0.519888  0.553265  0.688398  0.565399
    C   C27  0.488886  0.559284  0.313635  0.745295
    C   C28  0.512736  0.440734  0.686533  0.816667
    H   H1   0.001551  0.966872  0.430892  0.165264
    H   H2   0.001233  0.033268  0.569464  0.165953
    N   N1   0.503832  0.242241  0.495310  -0.248944
    N   N2   0.498939  0.757843  0.505067  -0.225448
    O   O1   0.668217  0.083271  0.394312  -0.672802
    O   O2   0.335045  0.916848  0.606280  -0.685176
    O   O3   0.333190  0.914306  0.401861  -0.660209
    O   O4   0.668999  0.085972  0.599024  -0.587273
    O   O5   0.667337  0.915110  0.606109  -0.621827
    O   O6   0.336020  0.085015  0.393940  -0.629030
    O   O7   0.334402  0.087550  0.598722  -0.687690
    O   O8   0.667699  0.912380  0.401053  -0.612482
    C   C29  0.719948  0.996346  0.365059  0.770846
    C   C30  0.282839  0.003700  0.635241  0.856833
    C   C31  0.282619  0.998307  0.365223  0.787614
    C   C32  0.720202  0.001872  0.635173  0.687903
    O   O9   0.722729  0.008460  0.152279  -0.510552
    H   H3   0.696120  0.938612  0.137593  0.349945
    O   O10  0.280138  0.991394  0.848002  -0.518992
    H   H4   0.306888  0.061223  0.862678  0.353871
    O   O11  0.279724  0.011707  0.152526  -0.504878
    H   H5   0.301358  0.083645  0.148699  0.339664
    O   O12  0.723138  0.988596  0.847885  -0.500159
    H   H6   0.701385  0.916671  0.851690  0.341923
    O   O13  0.498594  0.243204  0.321207  -0.421181
    H   H7   0.609201  0.239137  0.300276  0.378967
    O   O14  0.516509  0.756537  0.678917  -0.414008
    H   H8   0.407039  0.764783  0.700994  0.375277
    O   O15  0.492998  0.762008  0.330713  -0.425558
    H   H9   0.382527  0.762134  0.309182  0.376816
    O   O16  0.511544  0.238285  0.669661  -0.397398
    H   H10  0.402042  0.236569  0.693045  0.333459
    O   O17  0.370017  0.411902  0.258152  -0.647705
    H   H11  0.287917  0.401305  0.308882  0.398740
    O   O18  0.660587  0.581420  0.732273  -0.591835
    H   H12  0.733983  0.588976  0.675934  0.328762
    O   O19  0.612505  0.596064  0.257078  -0.645695
    H   H13  0.699081  0.604822  0.305074  0.384201
    O   O20  0.378941  0.412551  0.738319  -0.617088
    H   H14  0.417699  0.392038  0.804507  0.373763
    O   O21  0.397602  0.585954  0.748400  -0.620346
    H   H15  0.447660  0.601955  0.812736  0.391430
    O   O22  0.633970  0.420756  0.260073  -0.685300
    H   H16  0.596966  0.401624  0.193074  0.427930
    O   O23  0.643051  0.404873  0.737300  -0.629360
    H   H17  0.723574  0.395594  0.685311  0.344454
    O   O24  0.349116  0.586519  0.268081  -0.678493
    H   H18  0.379564  0.605404  0.199683  0.417782
