# generated using pymatgen
data_Zn2H17C28N5O8
_symmetry_space_group_name_H-M   'P 1'
_cell_length_a   8.52229300
_cell_length_b   9.15477500
_cell_length_c   13.07869200
_cell_angle_alpha   90.58622700
_cell_angle_beta   86.47537900
_cell_angle_gamma   93.22603000
_symmetry_Int_Tables_number   1
_chemical_formula_structural   Zn2H17C28N5O8
_chemical_formula_sum   'Zn2 H17 C28 N5 O8'
_cell_volume   1016.82775364
_cell_formula_units_Z   1
loop_
 _symmetry_equiv_pos_site_id
 _symmetry_equiv_pos_as_xyz
  1  'x, y, z'
loop_
 _atom_site_type_symbol
 _atom_site_label
 _atom_site_symmetry_multiplicity
 _atom_site_fract_x
 _atom_site_fract_y
 _atom_site_fract_z
 _atom_site_occupancy
  Zn  Zn1  1  0.44574300  0.15833400  0.49173400  1
  Zn  Zn2  1  0.43612600  0.83278700  0.50389600  1
  H  H1  1  0.39582700  0.98896300  0.99891400  1
  H  H2  1  0.95496600  0.02482000  0.56899300  1
  H  H3  1  0.75697100  0.00198000  0.99787400  1
  H  H4  1  0.28889800  0.98633500  0.83790700  1
  H  H5  1  0.73050500  0.03531300  0.15107300  1
  H  H6  1  0.92955200  0.93198200  0.42336900  1
  H  H7  1  0.20745100  0.56115800  0.59371300  1
  H  H8  1  0.44111000  0.37582100  0.65753800  1
  H  H9  1  0.65756200  0.59908900  0.58413400  1
  H  H10  1  0.67236600  0.43055600  0.40084300  1
  H  H11  1  0.43807700  0.61560000  0.33778400  1
  H  H12  1  0.46890100  0.07463700  0.18164100  1
  H  H13  1  0.46213600  0.89000500  0.16718600  1
  H  H14  1  0.11369600  0.46503000  0.39859000  1
  H  H15  1  0.23476600  0.36351100  0.32448100  1
  H  H16  1  0.62795700  0.14630900  0.89358800  1
  H  H17  1  0.53661500  0.06965200  0.79635900  1
  C  C1  1  0.98185000  0.99827800  0.13459200  1
  C  C2  1  0.11371900  0.98461200  0.19124300  1
  C  C3  1  0.26252400  0.98564100  0.14133300  1
  C  C4  1  0.27949100  0.99153000  0.03641800  1
  C  C5  1  0.15043000  0.99722400  0.97911600  1
  C  C6  1  0.00145300  0.00302500  0.02702100  1
  C  C7  1  0.17244600  0.99524400  0.87330400  1
  C  C8  1  0.04689100  0.00418600  0.81280300  1
  C  C9  1  0.89739800  0.01395600  0.85976700  1
  C  C10  1  0.87523000  0.00822900  0.96545000  1
  C  C11  1  0.06744100  0.00560300  0.70633300  1
  C  C12  1  0.93829800  0.01844400  0.65054900  1
  C  C13  1  0.78963700  0.02415500  0.69599000  1
  C  C14  1  0.76836900  0.02714000  0.80140900  1
  C  C15  1  0.83446200  0.00950300  0.18744300  1
  C  C16  1  0.81648100  0.98575700  0.29152400  1
  C  C17  1  0.94507800  0.95581600  0.34333300  1
  C  C18  1  0.09379500  0.96771400  0.29698600  1
  C  C19  1  0.65847000  0.01566000  0.62945800  1
  C  C20  1  0.66507800  0.99159900  0.35155200  1
  C  C21  1  0.22412400  0.97534400  0.36495200  1
  C  C22  1  0.21876400  0.99970600  0.64581600  1
  C  C23  1  0.43989600  0.43227300  0.58299800  1
  C  C24  1  0.31636400  0.53051100  0.54985100  1
  C  C25  1  0.55684200  0.55047700  0.54323300  1
  C  C26  1  0.56465000  0.46130700  0.44600700  1
  C  C27  1  0.44162300  0.55963800  0.41233900  1
  C  C28  1  0.32790000  0.44334300  0.45377800  1
  N  N1  1  0.43399100  0.64109400  0.50944800  1
  N  N2  1  0.44737500  0.35007800  0.48606700  1
  N  N3  1  0.40054400  0.97818800  0.19641800  1
  N  N4  1  0.19453600  0.38363100  0.40006000  1
  N  N5  1  0.61704500  0.04999200  0.85049500  1
  O  O1  1  0.60462400  0.88528200  0.60147600  1
  O  O2  1  0.60746000  0.13764700  0.59593000  1
  O  O3  1  0.61788500  0.11993600  0.38346500  1
  O  O4  1  0.60375300  0.86777900  0.38992900  1
  O  O5  1  0.27775700  0.10525100  0.39384600  1
  O  O6  1  0.27458600  0.85373100  0.39948200  1
  O  O7  1  0.26452500  0.87151800  0.61250800  1
  O  O8  1  0.27863500  0.12322100  0.60606600  1
