# Generated by REPEAT Assigner based on pymatgen
data_DB0-m18_o14_o50_f0_fsc
_audit_creation_date              2022-05-24
_audit_creation_method            REPEAT_Assigner
_cell_length_a                    8.681305
_cell_length_b                    9.220281
_cell_length_c                    13.255337
_cell_angle_alpha                 90.000000
_cell_angle_beta                  93.524110
_cell_angle_gamma                 90.000000
_cell_volume                      1059.004808
_symmetry_space_group_name_H-M    P1
_symmetry_Int_Tables_number       1
loop_
    _symmetry_equiv_pos_site_id
    _symmetry_equiv_pos_as_xyz
    1  x,y,z
loop_
    _atom_site_type_symbol
    _atom_site_label
    _atom_site_fract_x
    _atom_site_fract_y
    _atom_site_fract_z
    _atom_type_partial_charge
    O   O1   0.178867  0.126911  0.101187  -0.696800
    O   O2   0.179160  0.880619  0.105741  -0.685174
    C   C1   0.232745  0.005304  0.139722  0.770356
    Fe  Fe1  0.999129  0.846298  0.002642  1.096552
    Fe  Fe2  0.997579  0.155437  0.998708  1.096149
    O   O3   0.833400  0.879186  0.104656  -0.690929
    O   O4   0.828284  0.126333  0.098191  -0.702357
    C   C2   0.782530  0.003957  0.136105  0.791204
    O   O5   0.158972  0.124144  0.888298  -0.663406
    O   O6   0.160912  0.874081  0.892408  -0.673478
    C   C3   0.209377  0.998102  0.856238  0.772418
    O   O7   0.821382  0.873551  0.891038  -0.666715
    O   O8   0.822038  0.122668  0.885925  -0.654247
    C   C4   0.766981  0.996638  0.852730  0.742184
    H   H1   0.986810  0.636336  0.848325  0.153975
    H   H2   0.985514  0.371290  0.845629  0.161466
    C   C5   0.013136  0.645726  0.188575  -0.140906
    C   C6   0.010581  0.350411  0.186336  -0.139648
    H   H3   0.015087  0.760020  0.197918  0.139056
    H   H4   0.010289  0.235996  0.194967  0.119888
    C   C7   0.019376  0.570566  0.277796  -0.111667
    C   C8   0.018024  0.423107  0.276637  -0.108153
    H   H5   0.025399  0.628246  0.348931  0.109894
    H   H6   0.022917  0.363298  0.346906  0.109614
    C   C9   0.004081  0.423763  0.093729  0.141824
    C   C10  0.005267  0.575038  0.095194  0.111574
    N   N1   0.998995  0.650902  0.007008  -0.014786
    N   N2   0.996947  0.350875  0.003898  -0.008454
    C   C11  0.991811  0.577447  0.918954  -0.106383
    C   C12  0.990913  0.427471  0.917336  -0.137590
    C   C13  0.344040  0.996244  0.794946  0.044046
    C   C14  0.331805  0.012911  0.691468  -0.332663
    C   C15  0.463384  0.012154  0.637230  0.357073
    C   C16  0.608318  0.008994  0.688519  -0.322084
    H   H7   0.712738  0.020117  0.649041  0.140049
    C   C17  0.619447  0.994006  0.792477  0.051503
    C   C18  0.487293  0.979957  0.843503  -0.202406
    C   C19  0.444074  0.019378  0.526205  -0.249744
    C   C20  0.551440  0.970497  0.466502  -0.243499
    H   H8   0.337028  0.063606  0.493397  0.149323
    H   H9   0.658690  0.926509  0.499175  0.146878
    C   C21  0.663599  0.981756  0.301105  -0.396374
    C   C22  0.650555  0.005655  0.198305  0.129344
    C   C23  0.508753  0.027681  0.150661  -0.275075
    C   C24  0.377790  0.008167  0.200848  0.124830
    C   C25  0.387936  0.985944  0.304142  -0.381744
    H   H10  0.283259  0.971540  0.342895  0.152562
    C   C26  0.532451  0.980569  0.355576  0.385337
    H   H11  0.219065  0.021951  0.652581  0.134450
    H   H12  0.496556  0.961400  0.923467  0.150706
    H   H13  0.776466  0.969434  0.339319  0.150141
    H   H14  0.499580  0.051660  0.071379  0.171884
