# generated using pymatgen
data_Zn2H15C22N7O18
_symmetry_space_group_name_H-M   'P 1'
_cell_length_a   10.22410400
_cell_length_b   11.43745600
_cell_length_c   15.95025100
_cell_angle_alpha   89.99191300
_cell_angle_beta   80.50939300
_cell_angle_gamma   92.45873400
_symmetry_Int_Tables_number   1
_chemical_formula_structural   Zn2H15C22N7O18
_chemical_formula_sum   'Zn2 H15 C22 N7 O18'
_cell_volume   1837.91394232
_cell_formula_units_Z   1
loop_
 _symmetry_equiv_pos_site_id
 _symmetry_equiv_pos_as_xyz
  1  'x, y, z'
loop_
 _atom_site_type_symbol
 _atom_site_label
 _atom_site_symmetry_multiplicity
 _atom_site_fract_x
 _atom_site_fract_y
 _atom_site_fract_z
 _atom_site_occupancy
  Zn  Zn1  1  0.35136800  0.52130700  0.51182700  1
  Zn  Zn2  1  0.64944900  0.49058800  0.48744800  1
  H  H1  1  0.39701200  0.66561400  0.08913700  1
  H  H2  1  0.41228200  0.67627300  0.94505400  1
  H  H3  1  0.70741300  0.49587000  0.90011100  1
  H  H4  1  0.65035200  0.64245600  0.90696500  1
  H  H5  1  0.71595700  0.48981700  0.03826000  1
  H  H6  1  0.36958800  0.34938000  0.94791200  1
  H  H7  1  0.54466900  0.32466200  0.92096900  1
  H  H8  1  0.38779900  0.34328800  0.08686300  1
  H  H9  1  0.29104700  0.55547800  0.95392500  1
  H  H10  1  0.29701200  0.53312300  0.09295800  1
  H  H11  1  0.56409600  0.32593600  0.05988400  1
  H  H12  1  0.32851500  0.12347800  0.52679200  1
  H  H13  1  0.67121700  0.88835700  0.49655300  1
  H  H14  1  0.12033900  0.61782000  0.55269000  1
  H  H15  1  0.89028800  0.43325500  0.41749400  1
  C  C1  1  0.54052600  0.73389800  0.49611100  1
  C  C2  1  0.48855200  0.50589500  0.66457800  1
  C  C3  1  0.46033000  0.27800400  0.50346700  1
  C  C4  1  0.51215300  0.50579600  0.33469300  1
  C  C5  1  0.39046600  0.58450600  0.96717500  1
  C  C6  1  0.63111300  0.55289500  0.93393700  1
  C  C7  1  0.63887500  0.55119200  0.02809700  1
  C  C8  1  0.51499700  0.50538100  0.24443000  1
  C  C9  1  0.49465600  0.50645700  0.92108600  1
  C  C10  1  0.39142400  0.57694400  0.06182600  1
  C  C11  1  0.50667900  0.50519400  0.07810200  1
  C  C12  1  0.48134900  0.38100300  0.04968900  1
  C  C13  1  0.47029200  0.38240000  0.95602700  1
  C  C14  1  0.51295600  0.50522500  0.16909900  1
  C  C15  1  0.48796600  0.50643100  0.83014700  1
  C  C16  1  0.48575000  0.50628500  0.75483600  1
  C  C17  1  0.56876800  0.86133700  0.49554300  1
  C  C18  1  0.47922400  0.94314400  0.49208500  1
  C  C19  1  0.43187400  0.15055000  0.50778400  1
  C  C20  1  0.52240700  0.06879600  0.48840200  1
  C  C21  1  0.92417500  0.49802200  0.52588800  1
  C  C22  1  0.06522500  0.46866200  0.50635200  1
  N  N1  1  0.84565400  0.47141700  0.47262600  1
  N  N2  1  0.15525800  0.54083000  0.52636400  1
  N  N3  1  0.65999500  0.10124300  0.46404700  1
  N  N4  1  0.34278200  0.91076400  0.49155400  1
  N  N5  1  0.09968400  0.36093800  0.46470700  1
  N  N6  1  0.87745200  0.55748700  0.60314300  1
  N  N7  1  0.67800900  0.66619600  0.05721900  1
  O  O1  1  0.41767400  0.69110300  0.50655400  1
  O  O2  1  0.64323400  0.66738800  0.48736500  1
  O  O3  1  0.37761200  0.51907100  0.63501000  1
  O  O4  1  0.60330100  0.49292300  0.61588700  1
  O  O5  1  0.35750300  0.34449900  0.51281900  1
  O  O6  1  0.58332900  0.32074800  0.49208100  1
  O  O7  1  0.39732800  0.51786000  0.38341200  1
  O  O8  1  0.62316800  0.49358200  0.36428600  1
  O  O9  1  0.72839800  0.13621700  0.52197400  1
  O  O10  1  0.72218000  0.06806700  0.39072900  1
  O  O11  1  0.26842700  0.87524100  0.56183800  1
  O  O12  1  0.28689600  0.94455600  0.42862100  1
  O  O13  1  0.01989500  0.26923900  0.48135200  1
  O  O14  1  0.19020100  0.36140200  0.39718500  1
  O  O15  1  0.92756400  0.53457800  0.67084800  1
  O  O16  1  0.81212500  0.65205800  0.60077100  1
  O  O17  1  0.78318600  0.67731400  0.09304800  1
  O  O18  1  0.61835900  0.75931700  0.04007600  1
