# generated using pymatgen
data_Cu6H62(C5O2)17
_symmetry_space_group_name_H-M   'P 1'
_cell_length_a   18.60939400
_cell_length_b   18.69695200
_cell_length_c   18.65174200
_cell_angle_alpha   109.52811100
_cell_angle_beta   109.77743700
_cell_angle_gamma   109.09238600
_symmetry_Int_Tables_number   1
_chemical_formula_structural   Cu6H62(C5O2)17
_chemical_formula_sum   'Cu6 H62 C85 O34'
_cell_volume   4996.58065096
_cell_formula_units_Z   1
loop_
 _symmetry_equiv_pos_site_id
 _symmetry_equiv_pos_as_xyz
  1  'x, y, z'
loop_
 _atom_site_type_symbol
 _atom_site_label
 _atom_site_symmetry_multiplicity
 _atom_site_fract_x
 _atom_site_fract_y
 _atom_site_fract_z
 _atom_site_occupancy
  Cu  Cu1  1  0.50689900  0.44314300  0.42682900  1
  Cu  Cu2  1  0.50656400  0.56280400  0.55390600  1
  Cu  Cu3  1  0.94875600  0.44542700  0.99196000  1
  Cu  Cu4  1  0.06292500  0.56445400  0.98387100  1
  Cu  Cu5  1  0.08093400  0.00792900  0.55545100  1
  Cu  Cu6  1  0.94849000  0.00244200  0.43964800  1
  H  H1  1  0.63619300  0.35080300  0.59050900  1
  H  H2  1  0.60326000  0.37793800  0.67063500  1
  H  H3  1  0.76178800  0.36486400  0.68420800  1
  H  H4  1  0.87820200  0.49655500  0.72042300  1
  H  H5  1  0.73102000  0.61655600  0.78064200  1
  H  H6  1  0.64325400  0.52425400  0.76638500  1
  H  H7  1  0.74143800  0.51461300  0.86633400  1
  H  H8  1  0.82718500  0.61010000  0.88472000  1
  H  H9  1  0.79702500  0.59723800  0.69208700  1
  H  H10  1  0.89856100  0.60058200  0.79671900  1
  H  H11  1  0.38656900  0.35924000  0.61154800  1
  H  H12  1  0.25642200  0.30377100  0.31711200  1
  H  H13  1  0.11943400  0.19197700  0.18349600  1
  H  H14  1  0.01164700  0.07289800  0.18260600  1
  H  H15  1  0.03980900  0.06642800  0.31552800  1
  H  H16  1  0.27609400  0.24588300  0.61279300  1
  H  H17  1  0.24519300  0.50140000  0.35859500  1
  H  H18  1  0.47973100  0.55646300  0.29719300  1
  H  H19  1  0.49914600  0.57065200  0.18057500  1
  H  H20  1  0.38006000  0.55696300  0.05787800  1
  H  H21  1  0.24271700  0.53094400  0.05305200  1
  H  H22  1  0.13063700  0.49852000  0.24248300  1
  H  H23  1  0.63483100  0.65705000  0.37595200  1
  H  H24  1  0.75025200  0.68886900  0.65946800  1
  H  H25  1  0.88887300  0.77539700  0.79025500  1
  H  H26  1  0.99449400  0.91510200  0.68189000  1
  H  H27  1  0.74993000  0.76732400  0.38074900  1
  H  H28  1  0.00493200  0.37235600  0.72904600  1
  H  H29  1  0.02995700  0.29815200  0.95328100  1
  H  H30  1  0.04267400  0.18166200  0.97411500  1
  H  H31  1  0.04512200  0.06761500  0.86381800  1
  H  H32  1  0.03715100  0.07071400  0.73308700  1
  H  H33  1  0.00934800  0.25944600  0.61952600  1
  H  H34  1  0.84952000  0.58937100  0.01991600  1
  H  H35  1  0.71519300  0.59040800  0.99294100  1
  H  H36  1  0.83642500  0.79004100  0.25695400  1
  H  H37  1  0.13385400  0.85388200  0.38226100  1
  H  H38  1  0.21105000  0.96271100  0.91561700  1
  H  H39  1  0.18447900  0.04747700  0.95651000  1
  H  H40  1  0.25737000  0.02512700  0.83035900  1
  H  H41  1  0.31876400  0.10543600  0.94651500  1
  H  H42  1  0.23032300  0.10929100  0.87075500  1
  H  H43  1  0.68647300  0.30476900  0.88098500  1
  H  H44  1  0.58123300  0.23632400  0.77918100  1
  H  H45  1  0.63640500  0.40797900  0.93578000  1
  H  H46  1  0.56372800  0.29877200  0.90817000  1
  H  H47  1  0.53133700  0.33964000  0.83442700  1
  H  H48  1  0.33812300  0.82517700  0.37327900  1
  H  H49  1  0.28550300  0.70883700  0.33481800  1
  H  H50  1  0.34828700  0.85492700  0.51737800  1
  H  H51  1  0.40313100  0.79439000  0.49133600  1
  H  H52  1  0.29589600  0.73872900  0.47866500  1
  H  H53  1  0.54975900  0.68293200  0.13123600  1
  H  H54  1  0.58641800  0.76958900  0.10657500  1
  H  H55  1  0.63140600  0.79101200  0.28944500  1
  H  H56  1  0.55542900  0.81674100  0.22755800  1
  H  H57  1  0.67180800  0.87845800  0.26697900  1
  H  H58  1  0.72433000  0.43088800  0.42036300  1
  H  H59  1  0.84133800  0.47210000  0.48535200  1
  H  H60  1  0.75297200  0.56714600  0.41902800  1
  H  H61  1  0.81765500  0.52703500  0.38296600  1
  H  H62  1  0.86950100  0.61674800  0.49363900  1
  C  C1  1  0.37948600  0.38134200  0.47815600  1
  C  C2  1  0.62053100  0.49325400  0.60644700  1
  C  C3  1  0.63322400  0.62494400  0.50180600  1
  C  C4  1  0.39569700  0.51506300  0.37463200  1
  C  C5  1  0.65940500  0.39802100  0.65914100  1
  C  C6  1  0.73493100  0.39553600  0.72187400  1
  C  C7  1  0.77667900  0.52881500  0.67581300  1
  C  C8  1  0.70536500  0.54740200  0.76469000  1
  C  C9  1  0.68968200  0.49067800  0.67456400  1
  C  C10  1  0.80839500  0.48922500  0.79306300  1
  C  C11  1  0.84762300  0.53113500  0.74838600  1
  C  C12  1  0.77238700  0.54280800  0.83407500  1
  C  C13  1  0.21122800  0.25261200  0.31997900  1
  C  C14  1  0.13299400  0.18956200  0.24350100  1
  C  C15  1  0.07249800  0.12310500  0.24309000  1
  C  C16  1  0.08892500  0.12053500  0.31960400  1
  C  C17  1  0.16655700  0.18498400  0.39797000  1
  C  C18  1  0.22963600  0.24997500  0.39741700  1
  C  C19  1  0.30946100  0.31255800  0.47466800  1
  C  C20  1  0.32465800  0.31084500  0.55145100  1
  C  C21  1  0.26266800  0.24648600  0.55196200  1
  C  C22  1  0.18326500  0.18403600  0.47629400  1
  C  C23  1  0.42534700  0.54949900  0.24461500  1
  C  C24  1  0.43748600  0.55858000  0.17878800  1
  C  C25  1  0.37103200  0.55131600  0.11040900  1
  C  C26  1  0.29310000  0.53736000  0.10887900  1
  C  C27  1  0.28080200  0.53075100  0.17638300  1
  C  C28  1  0.34636100  0.53353400  0.24312500  1
  C  C29  1  0.33276200  0.52177600  0.30827300  1
  C  C30  1  0.25599000  0.51094800  0.30829700  1
  C  C31  1  0.19110300  0.50819100  0.24232100  1
  C  C32  1  0.20288500  0.51831900  0.17658500  1
  C  C33  1  0.80130800  0.73780400  0.66014600  1
  C  C34  1  0.88126900  0.78743300  0.73607800  1
  C  C35  1  0.95036000  0.85001000  0.74172300  1
  C  C36  1  0.93822300  0.86397000  0.67140700  1
  C  C37  1  0.85783800  0.81301000  0.59211400  1
  C  C38  1  0.78851900  0.74877400  0.58759800  1
  C  C39  1  0.70759400  0.69382200  0.51006700  1
  C  C40  1  0.69675400  0.70096500  0.43689600  1
  C  C41  1  0.76305400  0.76479900  0.44056100  1
  C  C42  1  0.84388100  0.82287900  0.51714800  1
  C  C43  1  0.01048200  0.38628600  0.87613700  1
  C  C44  1  0.88051600  0.49235800  0.86411600  1
  C  C45  1  0.00479900  0.62408100  0.10324700  1
  C  C46  1  0.13101800  0.51414500  0.10802600  1
  C  C47  1  0.02130600  0.12384500  0.62082900  1
  C  C48  1  0.12040900  0.11773100  0.48233500  1
  C  C49  1  0.00382700  0.88241600  0.37414800  1
  C  C50  1  0.90798900  0.89060400  0.51137100  1
  C  C51  1  0.03058600  0.24942900  0.90271700  1
  C  C52  1  0.03828300  0.18346000  0.91551300  1
  C  C53  1  0.03996400  0.11966400  0.85376500  1
  C  C54  1  0.03540200  0.12217400  0.77953600  1
  C  C55  1  0.02854900  0.18887000  0.76604000  1
  C  C56  1  0.02426300  0.25211700  0.82741700  1
  C  C57  1  0.01512000  0.31802600  0.81351700  1
  C  C58  1  0.01176200  0.32101400  0.73976500  1
  C  C59  1  0.01418300  0.25747500  0.67817100  1
  C  C60  1  0.02344400  0.19185300  0.69095100  1
  C  C61  1  0.85029600  0.63592800  0.07344700  1
  C  C62  1  0.77268700  0.63614100  0.05752100  1
  C  C63  1  0.76841000  0.69263800  0.12357500  1
  C  C64  1  0.84292500  0.74985400  0.20547300  1
  C  C65  1  0.92299000  0.75331000  0.22126300  1
  C  C66  1  0.92601800  0.69402300  0.15502800  1
  C  C67  1  0.00404400  0.69253700  0.17045700  1
  C  C68  1  0.07853900  0.74967900  0.25329600  1
  C  C69  1  0.07492000  0.80790600  0.31879200  1
  C  C70  1  0.99915200  0.81242700  0.30319000  1
  C  C71  1  0.03715400  0.90089300  0.82207400  1
  C  C72  1  0.18833800  0.00659200  0.90059400  1
  C  C73  1  0.25307100  0.06557200  0.88611200  1
  C  C74  1  0.70190900  0.33862100  0.75683500  1
  C  C75  1  0.63029500  0.30420300  0.83383700  1
  C  C76  1  0.58756000  0.34001700  0.88123400  1
  C  C77  1  0.16249600  0.75040700  0.27466600  1
  C  C78  1  0.29517200  0.77248700  0.37888600  1
  C  C79  1  0.33854500  0.79143000  0.47287900  1
  C  C80  1  0.68503800  0.69194700  0.10672300  1
  C  C81  1  0.60369900  0.74856500  0.15595900  1
  C  C82  1  0.61647400  0.81304200  0.24066400  1
  C  C83  1  0.77146800  0.48323200  0.58957300  1
  C  C84  1  0.78896400  0.49006600  0.47189100  1
  C  C85  1  0.80864500  0.55462300  0.43981300  1
  O  O1  1  0.41305800  0.35870500  0.42865700  1
  O  O2  1  0.41417600  0.46209800  0.53974600  1
  O  O3  1  0.58891900  0.44012200  0.52286700  1
  O  O4  1  0.59533500  0.55005400  0.63324400  1
  O  O5  1  0.60492200  0.54329800  0.44665900  1
  O  O6  1  0.60347700  0.64702700  0.55536100  1
  O  O7  1  0.41975400  0.45750900  0.34770800  1
  O  O8  1  0.42337600  0.56484800  0.45783700  1
  O  O9  1  0.94253600  0.36388600  0.88869000  1
  O  O10  1  0.07440200  0.46763900  0.91650400  1
  O  O11  1  0.86322700  0.46335500  0.91531000  1
  O  O12  1  0.96059300  0.53012400  0.87638000  1
  O  O13  1  0.97307300  0.54533600  0.09431700  1
  O  O14  1  0.03421500  0.64308600  0.05294600  1
  O  O15  1  0.05189700  0.44566200  0.06696900  1
  O  O16  1  0.14760600  0.57984600  0.09231400  1
  O  O17  1  0.09121900  0.11380700  0.63731900  1
  O  O18  1  0.94955900  0.07736300  0.54271600  1
  O  O19  1  0.14969900  0.07666000  0.51958600  1
  O  O20  1  0.03961600  0.10544700  0.45540800  1
  O  O21  1  0.04981300  0.90090800  0.45585200  1
  O  O22  1  0.96742700  0.92799200  0.35432700  1
  O  O23  1  0.99155500  0.93818700  0.57305900  1
  O  O24  1  0.87810400  0.90027400  0.44190900  1
  O  O25  1  0.04613500  0.89108500  0.88538100  1
  O  O26  1  0.10720400  0.95785300  0.82586500  1
  O  O27  1  0.71214800  0.27521500  0.74367600  1
  O  O28  1  0.65981700  0.35564200  0.80098200  1
  O  O29  1  0.18727900  0.73998500  0.22121700  1
  O  O30  1  0.21538300  0.76896500  0.35630400  1
  O  O31  1  0.62020500  0.64294300  0.03343400  1
  O  O32  1  0.68011400  0.74606900  0.17171700  1
  O  O33  1  0.75734100  0.40813200  0.55902800  1
  O  O34  1  0.78693500  0.52768500  0.54762600  1
