# Generated by REPEAT Assigner based on pymatgen
data_DB0-m3_o11_o23_f0_nbo.sym.109
_audit_creation_date              2022-05-24
_audit_creation_method            REPEAT_Assigner
_cell_length_a                    22.098531
_cell_length_b                    22.139247
_cell_length_c                    22.320467
_cell_angle_alpha                 119.718715
_cell_angle_beta                  119.656878
_cell_angle_gamma                 90.012971
_cell_volume                      7793.184025
_symmetry_space_group_name_H-M    P1
_symmetry_Int_Tables_number       1
loop_
    _symmetry_equiv_pos_site_id
    _symmetry_equiv_pos_as_xyz
    1  x,y,z
loop_
    _atom_site_type_symbol
    _atom_site_label
    _atom_site_fract_x
    _atom_site_fract_y
    _atom_site_fract_z
    _atom_type_partial_charge
    O   O1    0.073954  0.392666  0.494964  -0.644974
    O   O2    0.965743  0.566072  0.483291  -0.708238
    O   O3    0.971174  0.393745  0.498221  -0.685603
    O   O4    0.070269  0.566570  0.483178  -0.672955
    C   C1    0.024254  0.366491  0.499457  0.514767
    C   C2    0.017038  0.593471  0.481390  0.578241
    O   O5    0.132522  0.548488  0.615458  -0.662921
    O   O6    0.908072  0.410255  0.364312  -0.692570
    O   O7    0.027102  0.545598  0.613867  -0.662162
    O   O8    0.013026  0.414901  0.365416  -0.681620
    C   C3    0.098736  0.568124  0.653459  0.753959
    C   C4    0.941196  0.391749  0.325810  0.808576
    Zn  Zn1   0.089492  0.480601  0.491233  1.294541
    Zn  Zn2   0.950884  0.478748  0.488298  1.311550
    C   C5    0.282397  0.675281  0.945557  0.043629
    C   C6    0.749390  0.314317  0.047682  0.200568
    C   C7    0.168462  0.695205  0.935837  -0.539885
    C   C8    0.836844  0.253818  0.024832  -0.342695
    C   C9    0.214483  0.731574  0.030337  0.516288
    C   C10   0.779083  0.224353  0.933157  0.406338
    H   H1    0.332247  0.692778  0.064343  -0.149680
    H   H2    0.678645  0.295882  0.928242  -0.143394
    H   H3    0.257782  0.620025  0.926449  -0.058778
    H   H4    0.784125  0.356589  0.054749  -0.051388
    H   H5    0.125652  0.720152  0.915730  0.091662
    H   H6    0.865489  0.214331  0.031864  0.045917
    H   H7    0.140555  0.636199  0.903301  0.109027
    H   H8    0.878690  0.305056  0.054464  0.048982
    H   H9    0.221313  0.686755  0.039649  -0.087167
    H   H10   0.781773  0.270897  0.927244  -0.085217
    C   C11   0.363209  0.862379  0.236475  0.009221
    C   C12   0.607083  0.118380  0.744756  -0.017677
    C   C13   0.218822  0.702315  0.910172  0.872301
    C   C14   0.798530  0.269827  0.069151  0.807117
    C   C15   0.329172  0.726883  0.040666  0.758801
    C   C16   0.683440  0.264233  0.955198  0.687703
    C   C17   0.289762  0.780352  0.069146  0.145740
    C   C18   0.702992  0.196732  0.911456  0.091071
    C   C19   0.276722  0.829984  0.037045  0.558657
    C   C20   0.707001  0.147980  0.943213  0.489190
    C   C21   0.246356  0.782736  0.944361  -0.514103
    C   C22   0.753356  0.196912  0.038631  -0.404862
    C   C23   0.329843  0.824548  0.160939  -0.435265
    C   C24   0.649747  0.154675  0.820150  -0.296825
    C   C25   0.176689  0.656232  0.818554  -0.394385
    C   C26   0.853117  0.311994  0.160204  -0.407755
    C   C27   0.141892  0.616534  0.743179  -0.082993
    C   C28   0.895265  0.347585  0.235625  -0.102191
    H   H11   0.288797  0.791858  0.934572  0.094484
    H   H12   0.718746  0.206912  0.062886  0.060259
    H   H13   0.199813  0.798162  0.910642  0.079151
    H   H14   0.790811  0.169571  0.063082  0.059824
    H   H15   0.234416  0.853529  0.043268  -0.086667
    H   H16   0.735095  0.108873  0.923278  -0.081235
    C   C29   0.002110  0.231811  0.552690  0.550172
    C   C30   0.946330  0.728291  0.429163  0.675660
    C   C31   0.976274  0.162294  0.486321  -0.401542
    C   C32   0.981432  0.798190  0.497416  -0.444400
    H   H17   0.948955  0.152085  0.424785  0.128264
    H   H18   0.009440  0.807348  0.558523  0.144952
    C   C33   0.998050  0.291622  0.540045  -0.627902
    C   C34   0.950845  0.667957  0.440228  -0.560828
    C   C35   0.030344  0.304898  0.508174  0.561790
    C   C36   0.015058  0.657030  0.476478  0.437048
    H   H19   0.970402  0.328811  0.561005  0.230324
    H   H20   0.900223  0.626417  0.408863  0.234477
    O   O9    0.574569  0.940834  0.498242  -0.663343
    O   O10   0.386703  0.040381  0.482277  -0.672997
    O   O11   0.572144  0.042701  0.493469  -0.696879
    O   O12   0.389839  0.939517  0.488749  -0.688693
    C   C37   0.602509  0.992875  0.497841  0.677120
    C   C38   0.359255  0.989248  0.483994  0.687709
    O   O13   0.423784  0.876706  0.366667  -0.691474
    O   O14   0.537655  0.104845  0.614656  -0.667255
    O   O15   0.420125  0.979917  0.364471  -0.688050
    O   O16   0.542328  0.001571  0.616789  -0.683035
    C   C39   0.403653  0.908350  0.326495  0.753233
    C   C40   0.558706  0.073017  0.654745  0.714288
    Zn  Zn3   0.480876  0.922950  0.491641  1.294558
    Zn  Zn4   0.480714  0.058683  0.489658  1.301025
    O   O17   0.944313  0.026307  0.584316  -0.686136
    O   O18   0.018520  0.936758  0.402205  -0.696143
    O   O19   0.859273  0.955306  0.440457  -0.702032
    O   O20   0.103246  0.005201  0.545766  -0.705008
    C   C41   0.876474  0.993342  0.517468  0.722842
    C   C42   0.086512  0.967918  0.469143  0.696336
    O   O21   0.021246  0.105444  0.561847  -0.689368
    O   O22   0.942099  0.856478  0.424235  -0.686936
    O   O23   0.937912  0.033260  0.418042  -0.688006
    O   O24   0.023541  0.928531  0.568218  -0.665558
    C   C43   0.978886  0.097608  0.489741  0.778648
    C   C44   0.982851  0.864004  0.496041  0.760918
    Zn  Zn5   0.037364  0.028470  0.587234  1.280588
    Zn  Zn6   0.925241  0.933370  0.398986  1.282745
    C   C45   0.759243  0.938795  0.481791  -0.049204
    C   C46   0.210490  0.962949  0.516460  -0.050114
    C   C47   0.817081  0.998462  0.529660  -0.198706
    C   C48   0.146852  0.960183  0.458146  -0.134743
    H   H21   0.759280  0.886662  0.437775  0.124615
    H   H22   0.215407  0.966116  0.568792  0.128142
    H   H23   0.823194  0.049161  0.581539  0.144400
    H   H24   0.138067  0.948878  0.400813  0.113363
    C   C49   0.697642  0.940412  0.490782  -0.114700
    C   C50   0.273279  0.956197  0.509427  -0.119341
    C   C51   0.670621  0.995987  0.501702  -0.084810
    C   C52   0.291630  0.988916  0.481427  -0.129311
    H   H25   0.668600  0.891423  0.477680  0.125065
    H   H26   0.309735  0.931161  0.536603  0.148375
    H   H27   0.695602  0.042042  0.506992  0.103175
    H   H28   0.260004  0.021200  0.463064  0.107253
    N   N1    0.327498  0.670858  0.914399  -0.663851
    C   C53   0.333058  0.600541  0.870623  0.410748
    C   C54   0.322763  0.573424  0.794356  -0.238303
    C   C55   0.333624  0.507803  0.753794  -0.074073
    C   C56   0.356021  0.469402  0.789725  -0.169073
    C   C57   0.366468  0.496092  0.865703  -0.073275
    C   C58   0.355069  0.561392  0.906074  -0.245173
    H   H29   0.317975  0.695413  0.883280  0.284037
    H   H30   0.306423  0.603405  0.765809  0.115353
    H   H31   0.325385  0.486895  0.694163  0.097580
    H   H32   0.365339  0.418376  0.758285  0.101193
    H   H33   0.384148  0.466089  0.894093  0.076435
    H   H34   0.364716  0.581858  0.966047  0.134356
    N   N2    0.729720  0.351496  0.106931  -0.669222
    C   C59   0.692400  0.403464  0.104701  0.425858
    C   C60   0.655172  0.420822  0.142764  -0.287518
    C   C61   0.616739  0.469603  0.141042  -0.062932
    C   C62   0.615543  0.502187  0.101823  -0.109330
    C   C63   0.654040  0.487062  0.065779  0.022311
    C   C64   0.692698  0.438346  0.067359  -0.341726
    H   H35   0.715939  0.322264  0.125047  0.281289
    H   H36   0.654974  0.395356  0.173342  0.120469
    H   H37   0.587115  0.481926  0.170090  0.090712
    H   H38   0.584911  0.540002  0.099910  0.071896
    H   H39   0.653881  0.513444  0.035939  0.069802
    H   H40   0.721996  0.428832  0.038424  0.135704
    N   N3    0.402166  0.763044  0.070445  -0.730821
    C   C65   0.463220  0.773246  0.143996  0.441646
    C   C66   0.519451  0.839838  0.203514  -0.239525
    C   C67   0.581989  0.849701  0.272721  -0.098386
    C   C68   0.588749  0.793031  0.282913  -0.100143
    C   C69   0.533323  0.726467  0.223808  -0.082584
    C   C70   0.471254  0.716104  0.154081  -0.338442
    H   H41   0.408126  0.802896  0.061005  0.281954
    H   H42   0.515044  0.884566  0.195933  0.105635
    H   H43   0.625984  0.901760  0.318420  0.103298
    H   H44   0.637912  0.799749  0.336125  0.080961
    H   H45   0.539328  0.681598  0.231040  0.097729
    H   H46   0.430737  0.662092  0.107356  0.155212
    N   N4    0.614706  0.241571  0.943679  -0.740184
    C   C71   0.557951  0.268943  0.910370  0.349770
    C   C72   0.516936  0.290290  0.943606  -0.165753
    C   C73   0.461355  0.317012  0.912830  -0.094166
    C   C74   0.444916  0.320922  0.847063  -0.191104
    C   C75   0.483237  0.296888  0.811110  -0.115621
    C   C76   0.539083  0.270394  0.841938  -0.220530
    H   H47   0.618688  0.237883  0.989491  0.292523
    H   H48   0.528737  0.287257  0.994980  0.085273
    H   H49   0.430556  0.334814  0.940305  0.083183
    H   H50   0.401243  0.341689  0.822817  0.164012
    H   H51   0.469242  0.298453  0.758252  0.104076
    H   H52   0.566688  0.250383  0.810889  0.121821
    N   N5    0.034356  0.248578  0.634398  -0.575222
    C   C77   0.033442  0.316523  0.690730  0.323090
    C   C78   0.098572  0.373473  0.759309  -0.169079
    C   C79   0.097458  0.439485  0.814606  -0.128358
    C   C80   0.031492  0.448371  0.802487  -0.111929
    C   C81   0.966588  0.391060  0.735281  -0.150017
    C   C82   0.967547  0.325138  0.679677  -0.121202
    H   H53   0.086109  0.243694  0.658512  0.325856
    H   H54   0.150681  0.367197  0.769731  0.073096
    H   H55   0.148399  0.484299  0.867602  0.113955
    H   H56   0.030725  0.500123  0.845971  0.090723
    H   H57   0.914903  0.397790  0.726166  0.119234
    H   H58   0.916543  0.280245  0.627250  0.100942
    N   N6    0.913540  0.709470  0.346664  -0.725806
    C   C83   0.838685  0.704880  0.301914  0.467622
    C   C84   0.811551  0.710515  0.234892  -0.242950
    C   C85   0.738885  0.705287  0.188946  -0.090303
    C   C86   0.692608  0.694169  0.209467  -0.199918
    C   C87   0.719011  0.688206  0.275952  0.035210
    C   C88   0.791739  0.693441  0.322233  -0.318672
    H   H59   0.946241  0.734228  0.339243  0.370759
    H   H60   0.847188  0.718809  0.217741  0.103262
    H   H61   0.718128  0.709586  0.136517  0.101069
    H   H62   0.635477  0.689441  0.172865  0.125468
    H   H63   0.682443  0.678865  0.291582  0.080243
    H   H64   0.809846  0.687820  0.373298  0.095264
    N   N7    0.071433  0.262045  0.482909  -0.706505
    C   C89   0.129623  0.254292  0.543065  0.366284
    C   C90   0.143103  0.187876  0.517170  -0.267967
    C   C91   0.197806  0.178268  0.574901  -0.040320
    C   C92   0.239513  0.234977  0.658814  -0.231927
    C   C93   0.227431  0.301761  0.684804  -0.050760
    C   C94   0.173384  0.312021  0.627153  -0.159071
    H   H65   0.038964  0.213591  0.424231  0.332226
    H   H66   0.110083  0.142467  0.451625  0.128851
    H   H67   0.207574  0.126009  0.554403  0.119287
    H   H68   0.281777  0.227086  0.704177  0.095255
    H   H69   0.260071  0.346018  0.750728  0.106859
    H   H70   0.165345  0.365112  0.648984  0.110859
    N   N8    0.081534  0.705914  0.509615  -0.633175
    C   C95   0.095335  0.699611  0.451430  0.417606
    C   C96   0.155160  0.752084  0.481093  -0.256703
    C   C97   0.170886  0.748934  0.427294  -0.093851
    C   C98   0.127160  0.692718  0.343229  -0.223167
    C   C99   0.067912  0.639504  0.313086  -0.074165
    C   C100  0.051840  0.642428  0.366641  -0.223376
    H   H71   0.127097  0.710059  0.559797  0.305090
    H   H72   0.189546  0.796595  0.546990  0.125951
    H   H73   0.217550  0.790603  0.451098  0.113207
    H   H74   0.139558  0.690162  0.301066  0.151661
    H   H75   0.033943  0.595091  0.247135  0.099094
    H   H76   0.005432  0.598841  0.340113  0.122605
    N   N9    0.178465  0.773401  0.068159  -0.773921
    C   C101  0.145409  0.737459  0.087400  0.523485
    C   C102  0.070128  0.718723  0.048920  -0.300697
    C   C103  0.037452  0.684680  0.068152  -0.053620
    C   C104  0.079832  0.669856  0.126502  -0.218822
    C   C105  0.155056  0.689545  0.166106  -0.045705
    C   C106  0.187881  0.723617  0.147038  -0.291596
    H   H77   0.143175  0.792816  0.036179  0.311133
    H   H78   0.036121  0.729824  0.002848  0.121728
    H   H79   0.978477  0.669586  0.037381  0.106745
    H   H80   0.054107  0.643118  0.141454  0.125547
    H   H81   0.188438  0.678413  0.212321  0.089679
    H   H82   0.246984  0.739417  0.179215  0.157024
    N   N10   0.792986  0.166061  0.877356  -0.740730
    C   C107  0.819816  0.185902  0.841445  0.469124
    C   C108  0.885333  0.176650  0.851563  -0.300243
    C   C109  0.910765  0.192779  0.814133  -0.105903
    C   C110  0.870554  0.217431  0.765543  -0.104604
    C   C111  0.804665  0.225683  0.754093  -0.152289
    C   C112  0.779123  0.209710  0.791522  -0.204757
    H   H83   0.822837  0.138755  0.901203  0.317402
    H   H84   0.917437  0.157029  0.889155  0.130928
    H   H85   0.962230  0.185795  0.822682  0.113517
    H   H86   0.890450  0.229848  0.736030  0.093230
    H   H87   0.772719  0.244352  0.715320  0.121519
    H   H88   0.726829  0.215524  0.780708  0.129340
    N   N11   0.342208  0.890751  0.084094  -0.780623
    C   C113  0.330423  0.935240  0.053490  0.512565
    C   C114  0.362678  0.935195  0.013993  -0.273244
    C   C115  0.353224  0.980169  0.986289  -0.056319
    C   C116  0.312390  0.026149  0.999088  -0.165681
    C   C117  0.281598  0.027634  0.040299  -0.063831
    C   C118  0.291036  0.982684  0.068048  -0.295624
    H   H89   0.361831  0.923735  0.146515  0.304355
    H   H90   0.395353  0.899725  0.004643  0.131422
    H   H91   0.378092  0.979584  0.954824  0.101483
    H   H92   0.305072  0.061507  0.977490  0.116555
    H   H93   0.250279  0.064304  0.051192  0.108596
    H   H94   0.267395  0.984837  0.101155  0.134885
    N   N12   0.634950  0.105828  0.910032  -0.789939
    C   C119  0.638599  0.063196  0.941563  0.546237
    C   C120  0.617925  0.081425  0.995908  -0.288682
    C   C121  0.619297  0.038731  0.024901  -0.052690
    C   C122  0.640344  0.977076  0.998724  -0.163574
    C   C123  0.659375  0.957765  0.942954  -0.070873
    C   C124  0.658000  0.000417  0.913901  -0.307692
    H   H95   0.603999  0.071228  0.845630  0.300472
    H   H96   0.600699  0.129347  0.015881  0.127615
    H   H97   0.603585  0.053454  0.067917  0.101441
    H   H98   0.641310  0.943530  0.021351  0.113383
    H   H99   0.675102  0.908963  0.921703  0.108849
    H   H100  0.672229  0.984402  0.869462  0.139191
