# generated using pymatgen
data_Fe2H16C45N2(ClO8)2
_symmetry_space_group_name_H-M   'P 1'
_cell_length_a   14.10390500
_cell_length_b   9.47762200
_cell_length_c   15.81687900
_cell_angle_alpha   87.54753200
_cell_angle_beta   91.81013700
_cell_angle_gamma   109.85883700
_symmetry_Int_Tables_number   1
_chemical_formula_structural   Fe2H16C45N2(ClO8)2
_chemical_formula_sum   'Fe2 H16 C45 N2 Cl2 O16'
_cell_volume   1986.38688039
_cell_formula_units_Z   1
loop_
 _symmetry_equiv_pos_site_id
 _symmetry_equiv_pos_as_xyz
  1  'x, y, z'
loop_
 _atom_site_type_symbol
 _atom_site_label
 _atom_site_symmetry_multiplicity
 _atom_site_fract_x
 _atom_site_fract_y
 _atom_site_fract_z
 _atom_site_occupancy
  Fe  Fe1  1  0.49777700  0.00469400  0.18290500  1
  Fe  Fe2  1  0.51481500  0.01021900  0.81030400  1
  H  H1  1  0.85125600  0.98691900  0.16807600  1
  H  H2  1  0.82534000  0.04034300  0.85938200  1
  H  H3  1  0.99024800  0.03400400  0.84547200  1
  H  H4  1  0.15201400  0.02047500  0.82909000  1
  H  H5  1  0.19092900  0.95562900  0.13593800  1
  H  H6  1  0.13297600  0.15791700  0.21277900  1
  H  H7  1  0.10774800  0.04451700  0.36457500  1
  H  H8  1  0.96673600  0.77365300  0.36041400  1
  H  H9  1  0.90733400  0.72725200  0.19868500  1
  H  H10  1  0.46436400  0.14810900  0.58199200  1
  H  H11  1  0.50906900  0.54091600  0.77914500  1
  H  H12  1  0.53018900  0.75507600  0.54081300  1
  H  H13  1  0.50747200  0.73393600  0.41332800  1
  H  H14  1  0.54972400  0.46541600  0.98960800  1
  H  H15  1  0.24401100  0.35798200  0.06159100  1
  H  H16  1  0.29816000  0.38785000  0.21085500  1
  C  C1  1  0.84593400  0.99486900  0.10011500  1
  C  C2  1  0.75778700  0.00512700  0.06389800  1
  C  C3  1  0.75025800  0.02048500  0.97629300  1
  C  C4  1  0.83181200  0.03053900  0.92748600  1
  C  C5  1  0.91829100  0.01592900  0.96398700  1
  C  C6  1  0.92543600  0.99551400  0.05045700  1
  C  C7  1  0.99664300  0.01866700  0.91326500  1
  C  C8  1  0.08325600  0.00279600  0.94851600  1
  C  C9  1  0.09164600  0.98266000  0.03490300  1
  C  C10  1  0.01235100  0.97815100  0.08638000  1
  C  C11  1  0.16130000  0.00713900  0.89667800  1
  C  C12  1  0.25089800  0.99805400  0.93037700  1
  C  C13  1  0.26039800  0.98205700  0.01783500  1
  C  C14  1  0.17988700  0.96840800  0.06871700  1
  C  C15  1  0.06776600  0.99044900  0.30884300  1
  C  C16  1  0.99461600  0.84992100  0.30692100  1
  C  C17  1  0.96389500  0.82586700  0.22346700  1
  C  C18  1  0.01973500  0.95275000  0.17802300  1
  C  C19  1  0.67544700  0.99973000  0.12054800  1
  C  C20  1  0.48970100  0.73554900  0.24847000  1
  C  C21  1  0.35704700  0.99965600  0.06043500  1
  C  C22  1  0.47826100  0.21185000  0.29149500  1
  C  C23  1  0.52722700  0.79948200  0.69945300  1
  C  C24  1  0.65453500  0.00581100  0.93255800  1
  C  C25  1  0.50401700  0.27222300  0.73653600  1
  C  C26  1  0.33214900  0.00400100  0.87211800  1
  C  C27  1  0.50691000  0.53038700  0.71134600  1
  C  C28  1  0.51583100  0.65626800  0.66128100  1
  C  C29  1  0.51949700  0.65087100  0.57506100  1
  C  C30  1  0.50289300  0.39683800  0.67607900  1
  C  C31  1  0.49774900  0.38816400  0.58722700  1
  C  C32  1  0.50618600  0.51631900  0.53626100  1
  C  C33  1  0.49991200  0.50594500  0.44754500  1
  C  C34  1  0.50174500  0.62565200  0.39178800  1
  C  C35  1  0.49178300  0.60815500  0.30498600  1
  C  C36  1  0.48089800  0.25343200  0.54784300  1
  C  C37  1  0.48918600  0.36978700  0.41315400  1
  C  C38  1  0.48539500  0.35469100  0.32678600  1
  C  C39  1  0.48424000  0.47133000  0.27260100  1
  C  C40  1  0.45382500  0.43869200  0.18443400  1
  C  C41  1  0.52460400  0.46020800  0.12241300  1
  C  C42  1  0.49431600  0.44592100  0.03841500  1
  C  C43  1  0.39345200  0.40917800  0.01664800  1
  C  C44  1  0.32289200  0.38564700  0.07869900  1
  C  C45  1  0.35317900  0.40136500  0.16238300  1
  N  N1  1  0.08258800  0.05232500  0.23010200  1
  N  N2  1  0.47921700  0.24829800  0.46330100  1
  Cl  Cl1  1  0.65296800  0.51411800  0.14975800  1
  Cl  Cl2  1  0.35447600  0.39611400  0.91027700  1
  O  O1  1  0.59820000  0.03710900  0.09303300  1
  O  O2  1  0.49545300  0.73028600  0.16612900  1
  O  O3  1  0.68078400  0.96177700  0.20084500  1
  O  O4  1  0.48820200  0.86076300  0.27939800  1
  O  O5  1  0.36118200  0.91655800  0.12811400  1
  O  O6  1  0.43526800  0.11865400  0.04207000  1
  O  O7  1  0.53881800  0.20994000  0.23057700  1
  O  O8  1  0.40880100  0.08711600  0.31738700  1
  O  O9  1  0.46957800  0.80483000  0.76203600  1
  O  O10  1  0.59571200  0.92312600  0.67104100  1
  O  O11  1  0.65176300  0.09158500  0.86559200  1
  O  O12  1  0.57458800  0.88949100  0.95117800  1
  O  O13  1  0.32081500  0.02785700  0.79068900  1
  O  O14  1  0.52786400  0.15636400  0.71426700  1
  O  O15  1  0.41470400  0.98153100  0.90014000  1
  O  O16  1  0.48820100  0.28346500  0.81681500  1
