# Generated by REPEAT Assigner based on pymatgen
data_DB0-m9_o21_o26_f0_sra.sym.16
_audit_creation_date              2022-05-24
_audit_creation_method            REPEAT_Assigner
_cell_length_a                    24.122487
_cell_length_b                    6.444987
_cell_length_c                    19.750899
_cell_angle_alpha                 90.000000
_cell_angle_beta                  101.643881
_cell_angle_gamma                 90.000000
_cell_volume                      3007.463607
_symmetry_space_group_name_H-M    P1
_symmetry_Int_Tables_number       1
loop_
    _symmetry_equiv_pos_site_id
    _symmetry_equiv_pos_as_xyz
    1  x,y,z
loop_
    _atom_site_type_symbol
    _atom_site_label
    _atom_site_fract_x
    _atom_site_fract_y
    _atom_site_fract_z
    _atom_type_partial_charge
    O  O1   0.686969  0.351033  0.188934  -0.495423
    O  O2   0.313044  0.649085  0.811044  -0.495320
    O  O3   0.813031  0.851033  0.311066  -0.495441
    O  O4   0.186956  0.149085  0.688956  -0.495333
    O  O5   0.800826  0.709567  0.177795  -0.380579
    O  O6   0.199197  0.290550  0.822231  -0.380407
    O  O7   0.699174  0.209567  0.322205  -0.380568
    O  O8   0.300803  0.790550  0.677769  -0.380415
    C  C1   0.824487  0.524479  0.179138  0.336698
    C  C2   0.175539  0.475640  0.820899  0.335478
    C  C3   0.675513  0.024479  0.320862  0.336651
    C  C4   0.324461  0.975640  0.679101  0.335479
    O  O9   0.685611  0.710150  0.160323  -0.537814
    O  O10  0.314410  0.289967  0.839657  -0.537821
    O  O11  0.814390  0.210150  0.339678  -0.537809
    O  O12  0.185591  0.789967  0.660344  -0.537829
    O  O13  0.690509  0.851483  0.292714  -0.416144
    O  O14  0.309474  0.148635  0.707258  -0.415978
    O  O15  0.809491  0.351483  0.207286  -0.416161
    O  O16  0.190526  0.648635  0.792743  -0.415968
    C  C5   0.665132  0.518637  0.153869  0.738528
    C  C6   0.334889  0.481480  0.846103  0.738872
    C  C7   0.834869  0.018637  0.346131  0.738550
    C  C8   0.165111  0.981480  0.653897  0.738892
    O  O17  0.754838  0.557721  0.291801  -0.431958
    O  O18  0.245151  0.442396  0.708198  -0.432265
    O  O19  0.745162  0.057721  0.208199  -0.431942
    O  O20  0.254849  0.942396  0.791802  -0.432271
    V  V1   0.747342  0.810028  0.234603  1.297876
    V  V2   0.252661  0.190090  0.765397  1.298304
    V  V3   0.752658  0.310028  0.265398  1.298018
    V  V4   0.247339  0.690090  0.734603  1.298256
    C  C9   0.114729  0.012156  0.600883  -0.251902
    C  C10  0.885244  0.987962  0.399157  -0.251433
    C  C11  0.385272  0.512156  0.899117  -0.251907
    C  C12  0.614757  0.487962  0.100843  -0.251380
    C  C13  0.021731  0.066196  0.503664  -0.074669
    C  C14  0.978234  0.933929  0.496386  -0.075551
    C  C15  0.478269  0.566196  0.996336  -0.074824
    C  C16  0.521766  0.433929  0.003614  -0.075413
    C  C17  0.927703  0.964355  0.443296  0.031145
    C  C18  0.072265  0.035765  0.556750  0.031229
    C  C19  0.572297  0.464355  0.056704  0.031048
    C  C20  0.427735  0.535765  0.943250  0.031277
    H  H1   0.980712  0.801536  0.530722  0.155105
    H  H2   0.019253  0.198586  0.469327  0.154809
    H  H3   0.519288  0.301536  0.969278  0.155076
    H  H4   0.480747  0.698586  0.030673  0.154876
    C  C21  0.370474  0.993254  0.641681  0.094526
    C  C22  0.629483  0.006874  0.358256  0.092471
    C  C23  0.129526  0.493254  0.858319  0.094462
    C  C24  0.870517  0.506874  0.141745  0.092412
    C  C25  0.388013  0.824153  0.609204  -0.105199
    C  C26  0.611935  0.175980  0.390721  -0.104029
    C  C27  0.111988  0.324153  0.890796  -0.105142
    C  C28  0.888065  0.675980  0.109279  -0.103995
    C  C29  0.427501  0.847638  0.568341  -0.230931
    C  C30  0.572432  0.152502  0.431566  -0.231202
    C  C31  0.072499  0.347638  0.931660  -0.230966
    C  C32  0.927568  0.652502  0.068435  -0.231221
    C  C33  0.451984  0.039523  0.563559  0.347576
    C  C34  0.547947  0.960619  0.436341  0.348563
    C  C35  0.048016  0.539523  0.936441  0.347630
    C  C36  0.952053  0.460619  0.063659  0.348565
    C  C37  0.438571  0.202868  0.602053  -0.300337
    C  C38  0.561368  0.797270  0.397855  -0.301747
    C  C39  0.061429  0.702868  0.897947  -0.300434
    C  C40  0.938632  0.297270  0.102145  -0.301734
    C  C41  0.398111  0.177983  0.641288  0.003454
    C  C42  0.601841  0.822149  0.358637  0.005180
    C  C43  0.101889  0.677983  0.858713  0.003556
    C  C44  0.898159  0.322149  0.141363  0.005202
    C  C45  0.494764  0.071794  0.522011  -0.246576
    C  C46  0.505161  0.928350  0.477882  -0.247731
    C  C47  0.005236  0.571794  0.977989  -0.246585
    C  C48  0.994839  0.428350  0.022118  -0.247731
    H  H5   0.610812  0.701550  0.325705  0.095048
    H  H6   0.389149  0.298575  0.674227  0.095464
    H  H7   0.889188  0.201550  0.174295  0.095049
    H  H8   0.110851  0.798575  0.825773  0.095426
    H  H9   0.482213  0.783431  0.471818  0.133078
    H  H10  0.517713  0.216710  0.528076  0.133073
    H  H11  0.017787  0.283431  0.028183  0.133085
    H  H12  0.982287  0.716711  0.971924  0.133075
    H  H13  0.459868  0.350243  0.601492  0.173750
    H  H14  0.540071  0.649895  0.398410  0.174283
    H  H15  0.040133  0.850244  0.898508  0.173777
    H  H16  0.959929  0.149895  0.101590  0.174269
    H  H17  0.558935  0.288092  0.455786  0.145105
    H  H18  0.440994  0.712053  0.544113  0.145363
    H  H19  0.941065  0.788091  0.044214  0.145116
    H  H20  0.059007  0.212053  0.955887  0.145360
    N  N1   0.371015  0.622562  0.625065  0.561903
    O  O21  0.365414  0.586532  0.688116  -0.310007
    O  O22  0.378766  0.468277  0.585597  -0.331751
    N  N2   0.628942  0.377569  0.374871  0.561159
    O  O23  0.621178  0.531851  0.414335  -0.331541
    O  O24  0.634566  0.413606  0.311829  -0.309756
    N  N3   0.128985  0.122562  0.874935  0.561860
    O  O25  0.134586  0.086532  0.811884  -0.309994
    O  O26  0.121234  0.968277  0.914404  -0.331740
    N  N4   0.871058  0.877569  0.125129  0.561169
    O  O27  0.878822  0.031851  0.085665  -0.331546
    O  O28  0.865434  0.913606  0.188171  -0.309759
