# generated using pymatgen
data_ZnH22C37N2(O2F)2
_symmetry_space_group_name_H-M   'P 1'
_cell_length_a   17.13953300
_cell_length_b   18.24520000
_cell_length_c   19.43810500
_cell_angle_alpha   89.98986900
_cell_angle_beta   89.63033100
_cell_angle_gamma   93.62596200
_symmetry_Int_Tables_number   1
_chemical_formula_structural   ZnH22C37N2(O2F)2
_chemical_formula_sum   'Zn2 H44 C74 N4 O8 F4'
_cell_volume   6066.27605264
_cell_formula_units_Z   2
loop_
 _symmetry_equiv_pos_site_id
 _symmetry_equiv_pos_as_xyz
  1  'x, y, z'
loop_
 _atom_site_type_symbol
 _atom_site_label
 _atom_site_symmetry_multiplicity
 _atom_site_fract_x
 _atom_site_fract_y
 _atom_site_fract_z
 _atom_site_occupancy
  Zn  Zn1  1  0.50168600  0.58351500  0.50048500  1
  Zn  Zn2  1  0.49813700  0.41691600  0.49978200  1
  H  H1  1  0.10744400  0.58810400  0.45924000  1
  H  H2  1  0.89279400  0.41113700  0.53551100  1
  H  H3  1  0.74687100  0.62017900  0.46149400  1
  H  H4  1  0.25241100  0.37997900  0.53732000  1
  H  H5  1  0.49412800  0.38199900  0.71944400  1
  H  H6  1  0.50651200  0.61843600  0.28080200  1
  H  H7  1  0.49382400  0.38213700  0.84398000  1
  H  H8  1  0.50677900  0.61827600  0.15625500  1
  H  H9  1  0.50331000  0.61694800  0.84374200  1
  H  H10  1  0.49627200  0.38345900  0.15651900  1
  H  H11  1  0.50155900  0.61695300  0.71943200  1
  H  H12  1  0.49784300  0.38344800  0.28084800  1
  H  H13  1  0.42122800  0.58670700  0.93865400  1
  H  H14  1  0.57881200  0.41367600  0.06165400  1
  H  H15  1  0.42272700  0.58745200  0.06314100  1
  H  H16  1  0.57739700  0.41297500  0.93716200  1
  H  H17  1  0.41444100  0.69397100  0.57633900  1
  H  H18  1  0.58537200  0.30647500  0.42391300  1
  H  H19  1  0.41246500  0.82745300  0.57797100  1
  H  H20  1  0.58739800  0.17299500  0.42230000  1
  H  H21  1  0.59004300  0.83885300  0.42203100  1
  H  H22  1  0.40989600  0.16156800  0.57830400  1
  H  H23  1  0.59021300  0.70510900  0.42434300  1
  H  H24  1  0.40967300  0.29531000  0.57597600  1
  H  H25  1  0.62517300  0.94226700  0.49137300  1
  H  H26  1  0.37473500  0.05817200  0.50892200  1
  H  H27  1  0.62406800  0.07490200  0.49177500  1
  H  H28  1  0.37583700  0.92554100  0.50851100  1
  H  H29  1  0.21052900  0.68481400  0.51962800  1
  H  H30  1  0.27423000  0.79695900  0.46962900  1
  H  H31  1  0.37132500  0.67042300  0.31013500  1
  H  H32  1  0.30724700  0.55809800  0.35946000  1
  H  H33  1  0.69413600  0.44136500  0.63872700  1
  H  H34  1  0.63097000  0.32890900  0.68851600  1
  H  H35  1  0.72739300  0.20256900  0.52852200  1
  H  H36  1  0.78994500  0.31484300  0.47789500  1
  H  H37  1  0.84134200  0.71643100  0.51756500  1
  H  H38  1  0.90595100  0.83052700  0.47311600  1
  H  H39  1  0.02863500  0.70870300  0.32535100  1
  H  H40  1  0.96304700  0.59447300  0.36816100  1
  H  H41  1  0.16530100  0.35028200  0.64047300  1
  H  H42  1  0.09915600  0.23586900  0.68256100  1
  H  H43  1  0.95985800  0.22231600  0.50189200  1
  H  H44  1  0.02695500  0.33553600  0.45839100  1
  C  C1  1  0.50184300  0.50077400  0.36541600  1
  C  C2  1  0.49799800  0.49965500  0.63485100  1
  C  C3  1  0.65316100  0.50736500  0.50184400  1
  C  C4  1  0.34666500  0.49305800  0.49837400  1
  C  C5  1  0.73925600  0.51114700  0.50253900  1
  C  C6  1  0.26059600  0.48919500  0.49672900  1
  C  C7  1  0.78187000  0.45256400  0.52343400  1
  C  C8  1  0.21827300  0.54718600  0.47392800  1
  C  C9  1  0.86236600  0.45761600  0.51779000  1
  C  C10  1  0.13764100  0.54171600  0.47751000  1
  C  C11  1  0.90164800  0.52101800  0.49268700  1
  C  C12  1  0.09799800  0.47809300  0.50166500  1
  C  C13  1  0.85933900  0.57958000  0.47327000  1
  C  C14  1  0.13999400  0.41964900  0.52192800  1
  C  C15  1  0.77891400  0.57460400  0.47886800  1
  C  C16  1  0.22061300  0.42576300  0.52007700  1
  C  C17  1  0.49611400  0.43399600  0.74616900  1
  C  C18  1  0.50421600  0.56643100  0.25408600  1
  C  C19  1  0.49663200  0.43408300  0.81710300  1
  C  C20  1  0.50372000  0.56633800  0.18315300  1
  C  C21  1  0.49856200  0.49955800  0.85306500  1
  C  C22  1  0.50150900  0.50085100  0.14720600  1
  C  C23  1  0.50005900  0.56494200  0.81701600  1
  C  C24  1  0.49971100  0.43545900  0.18325600  1
  C  C25  1  0.49978700  0.56492400  0.74613000  1
  C  C26  1  0.49989300  0.43548100  0.25414300  1
  C  C27  1  0.49780500  0.49945300  0.71025900  1
  C  C28  1  0.50213100  0.50096800  0.29000600  1
  C  C29  1  0.45698500  0.54911700  0.96509400  1
  C  C30  1  0.54308700  0.45128100  0.03519600  1
  C  C31  1  0.45784600  0.54956400  0.03599400  1
  C  C32  1  0.54225500  0.45085300  0.96429400  1
  C  C33  1  0.50089100  0.50063900  0.07160200  1
  C  C34  1  0.49919600  0.49977000  0.92867900  1
  C  C35  1  0.45333400  0.72648700  0.54269900  1
  C  C36  1  0.54650000  0.27395400  0.45756800  1
  C  C37  1  0.45174000  0.80188800  0.54298300  1
  C  C38  1  0.54812500  0.19855500  0.45729400  1
  C  C39  1  0.50130000  0.84367500  0.50008200  1
  C  C40  1  0.49859700  0.15676200  0.50021600  1
  C  C41  1  0.55156000  0.80826400  0.45742600  1
  C  C42  1  0.44834800  0.19216300  0.54289000  1
  C  C43  1  0.55137100  0.73270000  0.45826900  1
  C  C44  1  0.44850500  0.26772500  0.54203600  1
  C  C45  1  0.56968500  0.96712800  0.49425400  1
  C  C46  1  0.43022200  0.03331100  0.50604000  1
  C  C47  1  0.56905800  0.04263300  0.49449400  1
  C  C48  1  0.43084900  0.95780700  0.50579700  1
  C  C49  1  0.49931500  0.07629100  0.50036200  1
  C  C50  1  0.50059100  0.92414800  0.49993400  1
  C  C51  1  0.25572800  0.61409400  0.44340100  1
  C  C52  1  0.24548000  0.68143500  0.47338600  1
  C  C53  1  0.28136600  0.74444000  0.44544500  1
  C  C54  1  0.32705400  0.74043000  0.38712900  1
  C  C55  1  0.33599200  0.67349900  0.35616200  1
  C  C56  1  0.29999500  0.61045700  0.38393200  1
  C  C57  1  0.74504600  0.38554000  0.55434500  1
  C  C58  1  0.70139300  0.38903900  0.61419400  1
  C  C59  1  0.66593800  0.32590400  0.64226000  1
  C  C60  1  0.67495100  0.25898200  0.61130000  1
  C  C61  1  0.72016000  0.25508300  0.55268300  1
  C  C62  1  0.75541000  0.31818900  0.52438700  1
  C  C63  1  0.89891700  0.64756000  0.44680700  1
  C  C64  1  0.88219900  0.71427300  0.47512800  1
  C  C65  1  0.91872800  0.77852800  0.45039400  1
  C  C66  1  0.97165300  0.77652800  0.39688000  1
  C  C67  1  0.98765400  0.71025900  0.36774500  1
  C  C68  1  0.95112900  0.64595500  0.39234600  1
  C  C69  1  0.09972800  0.35141100  0.54711900  1
  C  C70  1  0.12052700  0.32230000  0.60950900  1
  C  C71  1  0.08312800  0.25809600  0.63345800  1
  C  C72  1  0.02515300  0.22237400  0.59501100  1
  C  C73  1  0.00491800  0.25060000  0.53232900  1
  C  C74  1  0.04235500  0.31469700  0.50822000  1
  N  N1  1  0.98426500  0.52818000  0.48871300  1
  N  N2  1  0.01547200  0.47177700  0.50703900  1
  N  N3  1  0.50280400  0.69317300  0.50074900  1
  N  N4  1  0.49702800  0.30725800  0.49952300  1
  O  O1  1  0.50312000  0.56381200  0.39792600  1
  O  O2  1  0.49674000  0.43662400  0.60233900  1
  O  O3  1  0.49977300  0.43739700  0.39735100  1
  O  O4  1  0.50002300  0.56302800  0.60291500  1
  O  O5  1  0.61793900  0.56918800  0.50148400  1
  O  O6  1  0.38188700  0.43123900  0.49878400  1
  O  O7  1  0.61474900  0.44293400  0.50021600  1
  O  O8  1  0.38506600  0.55750400  0.49999000  1
  F  F1  1  0.36298700  0.80229700  0.36016600  1
  F  F2  1  0.63958000  0.19701400  0.63857300  1
  F  F3  1  0.00755400  0.83970900  0.37264200  1
  F  F4  1  0.98837200  0.15933500  0.61865300  1
