# generated using pymatgen
data_Zn6H48C64O35
_symmetry_space_group_name_H-M   'P 1'
_cell_length_a   19.01877400
_cell_length_b   19.09174200
_cell_length_c   19.18894400
_cell_angle_alpha   70.64334800
_cell_angle_beta   70.28498900
_cell_angle_gamma   109.06112900
_symmetry_Int_Tables_number   1
_chemical_formula_structural   Zn6H48C64O35
_chemical_formula_sum   'Zn6 H48 C64 O35'
_cell_volume   5381.99046724
_cell_formula_units_Z   1
loop_
 _symmetry_equiv_pos_site_id
 _symmetry_equiv_pos_as_xyz
  1  'x, y, z'
loop_
 _atom_site_type_symbol
 _atom_site_label
 _atom_site_symmetry_multiplicity
 _atom_site_fract_x
 _atom_site_fract_y
 _atom_site_fract_z
 _atom_site_occupancy
  Zn  Zn1  1  0.01102800  0.90751800  0.58695300  1
  Zn  Zn2  1  0.00172400  0.03366000  0.44971400  1
  Zn  Zn3  1  0.59185900  0.07832100  0.99482000  1
  Zn  Zn4  1  0.45603400  0.93995900  0.99542200  1
  Zn  Zn5  1  0.43875400  0.50077300  0.55580400  1
  Zn  Zn6  1  0.57185600  0.48008600  0.43613000  1
  H  H1  1  0.77222700  0.93562100  0.60299200  1
  H  H2  1  0.59392300  0.01880800  0.76967100  1
  H  H3  1  0.62047000  0.71667100  0.55045200  1
  H  H4  1  0.75887400  0.67667900  0.46750900  1
  H  H5  1  0.76048200  0.84926100  0.49844300  1
  H  H6  1  0.23693100  0.93918600  0.16094200  1
  H  H7  1  0.35249600  0.04505100  0.20804600  1
  H  H8  1  0.22971300  0.94458200  0.34930300  1
  H  H9  1  0.25302000  0.28229300  0.54239800  1
  H  H10  1  0.21561500  0.15176100  0.54544900  1
  H  H11  1  0.51384500  0.24175200  0.63317400  1
  H  H12  1  0.46048500  0.10924700  0.77470300  1
  H  H13  1  0.56578800  0.25921900  0.78765400  1
  H  H14  1  0.40584900  0.65371700  0.37168000  1
  H  H15  1  0.57870000  0.84620500  0.18958100  1
  H  H16  1  0.89864600  0.88457900  0.81658400  1
  H  H17  1  0.89053600  0.93054500  0.88532400  1
  H  H18  1  0.99469500  0.96230900  0.80334300  1
  H  H19  1  0.66407900  0.64106200  0.68996800  1
  H  H20  1  0.71973200  0.59225100  0.72822700  1
  H  H21  1  0.68048000  0.56302500  0.66288900  1
  H  H22  1  0.97819300  0.91625400  0.33614500  1
  H  H23  1  0.01708900  0.84391200  0.37137400  1
  H  H24  1  0.99475500  0.85404200  0.28566000  1
  H  H25  1  0.39956700  0.47626300  0.32926200  1
  H  H26  1  0.44052000  0.47647900  0.22951800  1
  H  H27  1  0.50838200  0.49539700  0.27546800  1
  H  H28  1  0.28026700  0.15745400  0.33824400  1
  H  H29  1  0.33451400  0.25160000  0.23538000  1
  H  H30  1  0.21999800  0.18294300  0.28772000  1
  H  H31  1  0.33278900  0.16572600  0.84298900  1
  H  H32  1  0.30276600  0.22969100  0.88438700  1
  H  H33  1  0.36937600  0.19040700  0.91221000  1
  H  H34  1  0.49820800  0.65301500  0.17065500  1
  H  H35  1  0.59707200  0.65321900  0.11984400  1
  H  H36  1  0.59488500  0.75237100  0.08596100  1
  H  H37  1  0.35349600  0.83665000  0.23918600  1
  H  H38  1  0.31610200  0.75973300  0.34701500  1
  H  H39  1  0.25420900  0.73727600  0.29574600  1
  H  H40  1  0.50907000  0.85061800  0.63675300  1
  H  H41  1  0.56286500  0.79114700  0.66026400  1
  H  H42  1  0.56974900  0.83148500  0.55729200  1
  H  H43  1  0.45586100  0.91226900  0.80484800  1
  H  H44  1  0.40827200  0.89841800  0.74022000  1
  H  H45  1  0.44231300  0.99685300  0.74311700  1
  H  H46  1  0.69504700  0.90280700  0.98250300  1
  H  H47  1  0.72331700  0.98511000  0.01142900  1
  H  H48  1  0.78806500  0.93506500  0.99569200  1
  C  C1  1  0.87940700  0.84349300  0.53697300  1
  C  C2  1  0.89533900  0.98250800  0.63315900  1
  C  C3  1  0.13374600  0.09745700  0.49948900  1
  C  C4  1  0.11657700  0.95821100  0.40330400  1
  C  C5  1  0.73550400  0.95551800  0.64032600  1
  C  C6  1  0.66487100  0.95256600  0.63399000  1
  C  C7  1  0.61376500  0.97523600  0.68154100  1
  C  C8  1  0.63150000  0.99556300  0.73850000  1
  C  C9  1  0.69874400  0.99183000  0.75054800  1
  C  C10  1  0.75515600  0.97820900  0.69590000  1
  C  C11  1  0.82966500  0.98589800  0.69796300  1
  C  C12  1  0.84465400  0.00214300  0.75817100  1
  C  C13  1  0.78541200  0.00958600  0.81720700  1
  C  C14  1  0.71172900  0.00435900  0.81410400  1
  C  C15  1  0.68200500  0.71880300  0.52854900  1
  C  C16  1  0.69494900  0.66828500  0.49752000  1
  C  C17  1  0.75325600  0.78597600  0.52315200  1
  C  C18  1  0.80699900  0.77193000  0.54921000  1
  C  C19  1  0.25275000  0.96760700  0.19772300  1
  C  C20  1  0.33480000  0.01009700  0.17675000  1
  C  C21  1  0.18195200  0.96343100  0.26478400  1
  C  C22  1  0.18091300  0.95450500  0.33764200  1
  C  C23  1  0.32967100  0.30852400  0.41854500  1
  C  C24  1  0.31694300  0.31836800  0.48726900  1
  C  C25  1  0.26014600  0.24283500  0.42049400  1
  C  C26  1  0.20542100  0.16631500  0.49131900  1
  C  C27  1  0.52774900  0.12715100  0.87306400  1
  C  C28  1  0.64550000  0.00677900  0.88018900  1
  C  C29  1  0.51980800  0.89136300  0.11774400  1
  C  C30  1  0.40240700  0.01133400  0.10952700  1
  C  C31  1  0.52357200  0.61105500  0.36415800  1
  C  C32  1  0.62557000  0.60412000  0.49863400  1
  C  C33  1  0.48569300  0.36876300  0.62801600  1
  C  C34  1  0.38538900  0.37851100  0.49121000  1
  C  C35  1  0.49439700  0.24130100  0.69335900  1
  C  C36  1  0.47353900  0.29973000  0.70210000  1
  C  C37  1  0.49006000  0.17394200  0.76299400  1
  C  C38  1  0.52952600  0.19315000  0.80511400  1
  C  C39  1  0.45982700  0.68831300  0.30748000  1
  C  C40  1  0.52502400  0.67149100  0.29193600  1
  C  C41  1  0.45339300  0.74912400  0.24245900  1
  C  C42  1  0.52051800  0.82766000  0.18563300  1
  C  C43  1  0.92516100  0.01384000  0.75759200  1
  C  C44  1  0.92714500  0.94343200  0.81969800  1
  C  C45  1  0.79293600  0.68540600  0.59607100  1
  C  C46  1  0.70888700  0.61625200  0.67389800  1
  C  C47  1  0.10937500  0.95995800  0.25126300  1
  C  C48  1  0.01941500  0.88923400  0.31549200  1
  C  C49  1  0.41048400  0.36593100  0.33640600  1
  C  C50  1  0.44156400  0.45936700  0.29016800  1
  C  C51  1  0.26027000  0.26154000  0.33953100  1
  C  C52  1  0.27436400  0.20983300  0.29797400  1
  C  C53  1  0.43306900  0.29465800  0.78537700  1
  C  C54  1  0.35485300  0.21494000  0.86082700  1
  C  C55  1  0.59199800  0.70243200  0.20513800  1
  C  C56  1  0.56888500  0.68965400  0.14153700  1
  C  C57  1  0.36692900  0.72569400  0.25410600  1
  C  C58  1  0.32004700  0.76772900  0.28564300  1
  C  C59  1  0.64670700  0.92508700  0.57613200  1
  C  C60  1  0.56696300  0.84479100  0.60990600  1
  C  C61  1  0.54350500  0.98225000  0.66951200  1
  C  C62  1  0.45740000  0.94531400  0.74427700  1
  C  C63  1  0.80303400  0.02426500  0.88154000  1
  C  C64  1  0.74870400  0.95747700  0.97352300  1
  O  O1  1  0.91527800  0.82524500  0.58283200  1
  O  O2  1  0.90447800  0.92205800  0.48243700  1
  O  O3  1  0.92405600  0.93033000  0.65754900  1
  O  O4  1  0.92087900  0.03062200  0.55288000  1
  O  O5  1  0.10683500  0.01919500  0.55566100  1
  O  O6  1  0.09842400  0.11589000  0.45292200  1
  O  O7  1  0.09372400  0.91233600  0.48336500  1
  O  O8  1  0.08769000  0.01006700  0.37907600  1
  O  O9  1  0.57946500  0.15239400  0.90124400  1
  O  O10  1  0.47475600  0.04647300  0.90324600  1
  O  O11  1  0.66857000  0.06229600  0.90547200  1
  O  O12  1  0.56471800  0.95251500  0.91131700  1
  O  O13  1  0.57440000  0.97180900  0.08566400  1
  O  O14  1  0.46732300  0.86606300  0.09020700  1
  O  O15  1  0.48316100  0.06434200  0.08077100  1
  O  O16  1  0.37917200  0.95686300  0.08349100  1
  O  O17  1  0.47043600  0.59128500  0.44108900  1
  O  O18  1  0.56998900  0.57422000  0.34925600  1
  O  O19  1  0.54584900  0.58408100  0.54513700  1
  O  O20  1  0.64698700  0.56952500  0.45217000  1
  O  O21  1  0.44151300  0.40750200  0.64254800  1
  O  O22  1  0.53891300  0.38840200  0.55098900  1
  O  O23  1  0.36346700  0.41040900  0.54067000  1
  O  O24  1  0.46500700  0.39794500  0.44565200  1
  O  O25  1  0.99225300  0.07940600  0.70187700  1
  O  O26  1  0.85301800  0.67180100  0.57542700  1
  O  O27  1  0.12417100  0.00930500  0.18176400  1
  O  O28  1  0.44750000  0.33574000  0.30119000  1
  O  O29  1  0.25809600  0.32541700  0.30135800  1
  O  O30  1  0.45925500  0.35879700  0.79107900  1
  O  O31  1  0.66695000  0.73151500  0.18739600  1
  O  O32  1  0.32868600  0.66355100  0.24977800  1
  O  O33  1  0.70186100  0.96241300  0.50133500  1
  O  O34  1  0.55478200  0.01751300  0.59774700  1
  O  O35  1  0.86519700  0.08988700  0.85932100  1
