# Generated by REPEAT Assigner based on pymatgen
data_DB0-m2_o10_o23_f0_pcu.sym.3
_audit_creation_date              2022-05-24
_audit_creation_method            REPEAT_Assigner
_cell_length_a                    15.862692
_cell_length_b                    8.787147
_cell_length_c                    7.397529
_cell_angle_alpha                 104.028958
_cell_angle_beta                  96.198785
_cell_angle_gamma                 89.999037
_cell_volume                      994.155688
_symmetry_space_group_name_H-M    P1
_symmetry_Int_Tables_number       1
loop_
    _symmetry_equiv_pos_site_id
    _symmetry_equiv_pos_as_xyz
    1  x,y,z
loop_
    _atom_site_type_symbol
    _atom_site_label
    _atom_site_fract_x
    _atom_site_fract_y
    _atom_site_fract_z
    _atom_type_partial_charge
    O   O1   0.500820  0.288876  0.623299  -0.525231
    O   O2   0.494926  0.257659  0.304543  -0.599693
    C   C1   0.497683  0.200947  0.452586  0.736345
    O   O3   0.384362  0.511194  0.655858  -0.502822
    O   O4   0.370491  0.489892  0.337403  -0.527750
    C   C2   0.337887  0.501558  0.495840  0.659903
    Cu  Cu1  0.507426  0.516877  0.686301  0.798351
    Cu  Cu2  0.492292  0.482013  0.314413  0.807656
    O   O5   0.506787  0.742303  0.697280  -0.597502
    O   O6   0.498633  0.710449  0.375917  -0.519744
    O   O7   0.629859  0.507989  0.663423  -0.537470
    O   O8   0.615728  0.490237  0.346617  -0.520956
    C   C3   0.504651  0.798779  0.547833  0.727857
    C   C4   0.661868  0.500636  0.506354  0.685470
    C   C5   0.054182  0.419113  0.645479  -0.142715
    C   C6   0.036981  0.412372  0.307866  -0.235459
    C   C7   0.943341  0.391268  0.322622  -0.060142
    H   H1   0.928894  0.337738  0.679682  0.034414
    H   H2   0.064365  0.291339  0.599896  0.014726
    H   H3   0.046334  0.482053  0.204546  0.044206
    H   H4   0.065756  0.296064  0.263456  0.057708
    H   H5   0.930441  0.268276  0.326648  0.008606
    H   H6   0.905576  0.418843  0.199963  0.010364
    C   C8   0.752104  0.500222  0.508041  -0.116690
    C   C9   0.078750  0.498937  0.497904  0.741863
    C   C10  0.961185  0.446904  0.669532  -0.124446
    C   C11  0.920007  0.500124  0.502199  0.641165
    C   C12  0.952576  0.664300  0.515151  -0.088270
    C   C13  0.048827  0.665809  0.540340  -0.164999
    C   C14  0.828224  0.499911  0.505346  -0.416953
    C   C15  0.171214  0.499307  0.495178  -0.427215
    C   C16  0.246837  0.500264  0.492595  -0.105936
    H   H7   0.072814  0.724479  0.686939  0.021538
    H   H8   0.073550  0.729061  0.443739  0.039440
    H   H9   0.929090  0.745901  0.637474  0.023427
    H   H10  0.093215  0.468002  0.780832  0.026536
    H   H11  0.954878  0.540310  0.798413  0.028547
    H   H12  0.929079  0.699503  0.384779  0.012121
    C   C17  0.495744  0.029579  0.424189  -0.228431
    H   H13  0.487178  0.954051  0.283364  0.154277
    C   C18  0.505818  0.968722  0.572763  -0.228398
    H   H14  0.514503  0.045485  0.712037  0.149778
    N   N1   0.480421  0.454790  0.036230  0.035577
    N   N2   0.520519  0.545359  0.964672  0.032621
    C   C19  0.397745  0.401285  0.943634  -0.234036
    H   H15  0.367855  0.334521  0.031092  0.081261
    H   H16  0.356293  0.501030  0.929236  0.107899
    H   H17  0.402176  0.319453  0.805743  0.129947
    C   C20  0.603184  0.598239  0.058396  -0.195299
    H   H18  0.632017  0.670567  0.976150  0.071425
    H   H19  0.599632  0.670298  0.202112  0.114081
    H   H20  0.645886  0.499298  0.060174  0.103047
