# generated using pymatgen
data_ZnH14C19NO12
_symmetry_space_group_name_H-M   'P 1'
_cell_length_a   10.82669600
_cell_length_b   14.53606700
_cell_length_c   13.38412600
_cell_angle_alpha   90.00000000
_cell_angle_beta   90.00000000
_cell_angle_gamma   90.00000000
_symmetry_Int_Tables_number   1
_chemical_formula_structural   ZnH14C19NO12
_chemical_formula_sum   'Zn2 H28 C38 N2 O24'
_cell_volume   2106.36133948
_cell_formula_units_Z   2
loop_
 _symmetry_equiv_pos_site_id
 _symmetry_equiv_pos_as_xyz
  1  'x, y, z'
loop_
 _atom_site_type_symbol
 _atom_site_label
 _atom_site_symmetry_multiplicity
 _atom_site_fract_x
 _atom_site_fract_y
 _atom_site_fract_z
 _atom_site_occupancy
  Zn  Zn1  1  0.48512900  0.49684100  0.62031700  1
  Zn  Zn2  1  0.48779800  0.49730900  0.39305700  1
  H  H1  1  0.07788000  0.49173400  0.66602800  1
  H  H2  1  0.09378300  0.46319600  0.34393300  1
  H  H3  1  0.88033100  0.46906200  0.66869000  1
  H  H4  1  0.89343700  0.50514700  0.34957300  1
  H  H5  1  0.20606100  0.20689600  0.63026800  1
  H  H6  1  0.16353500  0.19731300  0.76069500  1
  H  H7  1  0.31175800  0.24554300  0.72637200  1
  H  H8  1  0.09757500  0.17509100  0.44655800  1
  H  H9  1  0.24892100  0.17379700  0.38888600  1
  H  H10  1  0.11220400  0.15797600  0.31309600  1
  H  H11  1  0.82887500  0.18329200  0.56141100  1
  H  H12  1  0.70093800  0.18815400  0.64863400  1
  H  H13  1  0.85374300  0.15846500  0.69246900  1
  H  H14  1  0.74224700  0.22532800  0.35767900  1
  H  H15  1  0.84495400  0.19656400  0.25557300  1
  H  H16  1  0.70380400  0.25958300  0.23135400  1
  H  H17  1  0.23301000  0.81044400  0.58485300  1
  H  H18  1  0.30936600  0.76113400  0.69318800  1
  H  H19  1  0.16068100  0.81661100  0.70625400  1
  H  H20  1  0.03609400  0.65301400  0.20815700  1
  H  H21  1  0.20035300  0.66947800  0.18991200  1
  H  H22  1  0.10302500  0.76653600  0.22152300  1
  H  H23  1  0.89944700  0.73702500  0.78686000  1
  H  H24  1  0.82905700  0.62680700  0.81413300  1
  H  H25  1  0.73303700  0.72726700  0.79490400  1
  H  H26  1  0.83932500  0.77024200  0.29092800  1
  H  H27  1  0.83742200  0.87256900  0.36807300  1
  H  H28  1  0.71078600  0.79138600  0.37413500  1
  C  C1  1  0.49026400  0.31728800  0.50683000  1
  C  C2  1  0.24422400  0.49386500  0.50472100  1
  C  C3  1  0.72908300  0.50019300  0.50887000  1
  C  C4  1  0.48213800  0.67685400  0.50637900  1
  C  C5  1  0.05606700  0.44970400  0.60116100  1
  C  C6  1  0.05372400  0.43991900  0.41561400  1
  C  C7  1  0.91641600  0.44189700  0.59727000  1
  C  C8  1  0.91425800  0.45645500  0.41109100  1
  C  C9  1  0.05843400  0.59518500  0.49154600  1
  C  C10  1  0.92056200  0.59848600  0.52062200  1
  C  C11  1  0.10535900  0.49498400  0.50463000  1
  C  C12  1  0.86857200  0.49946400  0.50972200  1
  C  C13  1  0.49026700  0.21856700  0.50643200  1
  C  C14  1  0.48960100  0.13566200  0.50623800  1
  C  C15  1  0.48823400  0.03853000  0.50618200  1
  C  C16  1  0.48675300  0.95564000  0.50622700  1
  C  C17  1  0.48483100  0.85851300  0.50633800  1
  C  C18  1  0.48324200  0.77561200  0.50643400  1
  C  C19  1  0.48890600  0.49702500  0.15719200  1
  C  C20  1  0.48413500  0.49706200  0.85618400  1
  C  C21  1  0.48730100  0.49703300  0.05170000  1
  C  C22  1  0.48574500  0.49705200  0.96167600  1
  C  C23  1  0.15696700  0.33321500  0.70094600  1
  C  C24  1  0.21317100  0.23979000  0.70479300  1
  C  C25  1  0.14327500  0.29531300  0.36301400  1
  C  C26  1  0.15103400  0.19410800  0.37896800  1
  C  C27  1  0.82740100  0.30021200  0.65773700  1
  C  C28  1  0.80101200  0.20123900  0.63872600  1
  C  C29  1  0.84752900  0.33740600  0.30010200  1
  C  C30  1  0.78034000  0.24908800  0.28523000  1
  C  C31  1  0.15596600  0.68455800  0.63742200  1
  C  C32  1  0.21909800  0.77378800  0.65655800  1
  C  C33  1  0.14008700  0.67404800  0.34152700  1
  C  C34  1  0.11851100  0.69191300  0.23338000  1
  C  C35  1  0.81315400  0.67108700  0.66276100  1
  C  C36  1  0.81908000  0.69186100  0.77160500  1
  C  C37  1  0.87698900  0.74770500  0.44539300  1
  C  C38  1  0.81196000  0.79873900  0.36452700  1
  N  N1  1  0.48979600  0.49704500  0.24363500  1
  N  N2  1  0.48323200  0.49704900  0.76974000  1
  O  O1  1  0.48825600  0.35974000  0.59324600  1
  O  O2  1  0.49051700  0.36029600  0.42072700  1
  O  O3  1  0.30149300  0.49422100  0.59125500  1
  O  O4  1  0.30331800  0.49541500  0.41892400  1
  O  O5  1  0.66959100  0.49886100  0.59442100  1
  O  O6  1  0.67149900  0.49992600  0.42226200  1
  O  O7  1  0.48182400  0.63383700  0.59255500  1
  O  O8  1  0.48459300  0.63438100  0.42009400  1
  O  O9  1  0.10626100  0.36337100  0.61448500  1
  O  O10  1  0.15510000  0.38037000  0.77631200  1
  O  O11  1  0.07617000  0.34719100  0.42713000  1
  O  O12  1  0.19678900  0.32978600  0.29210200  1
  O  O13  1  0.88390000  0.35082800  0.58620000  1
  O  O14  1  0.80105100  0.33348900  0.73862500  1
  O  O15  1  0.85366800  0.37498900  0.39233100  1
  O  O16  1  0.89668200  0.37498000  0.22898700  1
  O  O17  1  0.12905500  0.66085500  0.54148000  1
  O  O18  1  0.12688600  0.63719500  0.70846900  1
  O  O19  1  0.06352300  0.61542300  0.39049600  1
  O  O20  1  0.22872000  0.70959400  0.38229000  1
  O  O21  1  0.90945800  0.62797200  0.61842500  1
  O  O22  1  0.72279100  0.69460400  0.61524100  1
  O  O23  1  0.85780000  0.65599200  0.45580000  1
  O  O24  1  0.94587700  0.78916200  0.50164700  1
