# generated using pymatgen
data_Fe2H28C49O22
_symmetry_space_group_name_H-M   'P 1'
_cell_length_a   16.25068100
_cell_length_b   9.44271000
_cell_length_c   17.17540600
_cell_angle_alpha   89.22481700
_cell_angle_beta   85.31834200
_cell_angle_gamma   105.16845700
_symmetry_Int_Tables_number   1
_chemical_formula_structural   Fe2H28C49O22
_chemical_formula_sum   'Fe2 H28 C49 O22'
_cell_volume   2533.59770641
_cell_formula_units_Z   1
loop_
 _symmetry_equiv_pos_site_id
 _symmetry_equiv_pos_as_xyz
  1  'x, y, z'
loop_
 _atom_site_type_symbol
 _atom_site_label
 _atom_site_symmetry_multiplicity
 _atom_site_fract_x
 _atom_site_fract_y
 _atom_site_fract_z
 _atom_site_occupancy
  Fe  Fe1  1  0.50592000  0.99341300  0.14048400  1
  Fe  Fe2  1  0.49524700  0.99055300  0.85612100  1
  H  H1  1  0.17978200  0.95024500  0.89382500  1
  H  H2  1  0.22282500  0.08527000  0.16309200  1
  H  H3  1  0.06835800  0.95386500  0.85054300  1
  H  H4  1  0.93368100  0.94045700  0.80819000  1
  H  H5  1  0.95046200  0.14155900  0.13015700  1
  H  H6  1  0.79174400  0.94925300  0.82923400  1
  H  H7  1  0.82684800  0.06886400  0.10234400  1
  H  H8  1  0.50318700  0.25453000  0.63376400  1
  H  H9  1  0.51619900  0.70683100  0.59748000  1
  H  H10  1  0.50214700  0.73057600  0.36259700  1
  H  H11  1  0.48017100  0.27399400  0.39576500  1
  H  H12  1  0.48498100  0.52384900  0.82900100  1
  H  H13  1  0.56013900  0.40285500  0.49965200  1
  H  H14  1  0.45967600  0.38512900  0.00540900  1
  H  H15  1  0.50923000  0.58113400  0.00184900  1
  H  H16  1  0.31670100  0.43206600  0.03081100  1
  H  H17  1  0.37158400  0.52152600  0.94018800  1
  H  H18  1  0.36637000  0.62776700  0.02653000  1
  H  H19  1  0.23128300  0.53473300  0.55237100  1
  H  H20  1  0.29806400  0.69735800  0.59269100  1
  H  H21  1  0.23093400  0.39334700  0.67511500  1
  H  H22  1  0.18986700  0.55168700  0.69335100  1
  H  H23  1  0.29752000  0.55559700  0.71538200  1
  H  H24  1  0.04930500  0.33565100  0.31495900  1
  H  H25  1  0.08898600  0.18684000  0.35121200  1
  H  H26  1  0.90030200  0.18912600  0.35147000  1
  H  H27  1  0.96307500  0.21511400  0.43506100  1
  H  H28  1  0.93987600  0.04064800  0.38768200  1
  C  C1  1  0.27579900  0.02598100  0.05771500  1
  C  C2  1  0.26455200  0.99182600  0.98039300  1
  C  C3  1  0.18594300  0.98398900  0.95270600  1
  C  C4  1  0.21115800  0.06174100  0.10319600  1
  C  C5  1  0.13450300  0.06451700  0.07379100  1
  C  C6  1  0.11957200  0.02013400  0.99835500  1
  C  C7  1  0.03952100  0.01428100  0.97020400  1
  C  C8  1  0.02270000  0.97696100  0.89378500  1
  C  C9  1  0.94437500  0.96976200  0.86785500  1
  C  C10  1  0.07236500  0.10966200  0.11955200  1
  C  C11  1  0.99369700  0.09876600  0.09280400  1
  C  C12  1  0.97466000  0.04754000  0.01927000  1
  C  C13  1  0.89294300  0.03354800  0.99298600  1
  C  C14  1  0.87961500  0.99551400  0.91692800  1
  C  C15  1  0.80092200  0.98003800  0.88893500  1
  C  C16  1  0.82285500  0.05080800  0.04116600  1
  C  C17  1  0.74292100  0.03425900  0.01365200  1
  C  C18  1  0.73281800  0.00074800  0.93579900  1
  C  C19  1  0.67002100  0.03910000  0.07034300  1
  C  C20  1  0.52778200  0.74484500  0.20735400  1
  C  C21  1  0.35731300  0.04284100  0.09176200  1
  C  C22  1  0.50030200  0.21124000  0.24704800  1
  C  C23  1  0.50267800  0.77435300  0.74773000  1
  C  C24  1  0.65040600  0.97034300  0.90240100  1
  C  C25  1  0.49076400  0.25138700  0.79165200  1
  C  C26  1  0.33536600  0.97758500  0.92391400  1
  C  C27  1  0.49363700  0.37493800  0.73757500  1
  C  C28  1  0.50135500  0.35910100  0.65760600  1
  C  C29  1  0.50518000  0.47649400  0.60731300  1
  C  C30  1  0.50777600  0.61289100  0.63685400  1
  C  C31  1  0.49856500  0.62915800  0.71649600  1
  C  C32  1  0.48999700  0.50950600  0.76669500  1
  C  C33  1  0.51315500  0.45809000  0.52254800  1
  C  C34  1  0.46942900  0.51368600  0.47254200  1
  C  C35  1  0.50263800  0.62552600  0.33870200  1
  C  C36  1  0.51768400  0.61475500  0.25901400  1
  C  C37  1  0.51993300  0.48041900  0.22825000  1
  C  C38  1  0.50805800  0.35790900  0.27794600  1
  C  C39  1  0.49275900  0.37045600  0.35748200  1
  C  C40  1  0.48959100  0.50355200  0.38810000  1
  C  C41  1  0.51925400  0.46434800  0.14348600  1
  C  C42  1  0.45430900  0.49222400  0.02761100  1
  C  C43  1  0.37176900  0.52027800  0.00471400  1
  C  C44  1  0.39570900  0.57087600  0.49905900  1
  C  C45  1  0.28143700  0.57567100  0.59280600  1
  C  C46  1  0.24768200  0.51501900  0.67463600  1
  C  C47  1  0.08772200  0.17684100  0.19570800  1
  C  C48  1  0.03529800  0.21488100  0.32417300  1
  C  C49  1  0.95421500  0.16136300  0.37821100  1
  O  O1  1  0.59129300  0.00503300  0.04999500  1
  O  O2  1  0.57108600  0.75649100  0.13869900  1
  O  O3  1  0.68265800  0.06432900  0.14396100  1
  O  O4  1  0.49234400  0.84981700  0.22877300  1
  O  O5  1  0.39004700  0.93056300  0.09976500  1
  O  O6  1  0.39573400  0.17065700  0.11786000  1
  O  O7  1  0.54627600  0.19419800  0.18311100  1
  O  O8  1  0.44273800  0.09802700  0.28055200  1
  O  O9  1  0.46459200  0.78544100  0.81707700  1
  O  O10  1  0.54919600  0.89234100  0.70863400  1
  O  O11  1  0.61044800  0.07360400  0.89552900  1
  O  O12  1  0.61797400  0.83942800  0.87643400  1
  O  O13  1  0.32735900  0.98471300  0.84863200  1
  O  O14  1  0.50054300  0.12593300  0.76570100  1
  O  O15  1  0.40938800  0.97183400  0.94687800  1
  O  O16  1  0.48040100  0.26697800  0.86728000  1
  O  O17  1  0.58184300  0.44607000  0.10494000  1
  O  O18  1  0.45353300  0.48971600  0.10747800  1
  O  O19  1  0.36744700  0.64237300  0.45347900  1
  O  O20  1  0.35293200  0.53017300  0.56984000  1
  O  O21  1  0.15473200  0.26807600  0.20425700  1
  O  O22  1  0.02415700  0.14821400  0.25393800  1
