# Generated by REPEAT Assigner based on pymatgen
data_DB0-m3_o12_o26_f0_pcu.sym.51
_audit_creation_date              2022-05-24
_audit_creation_method            REPEAT_Assigner
_cell_length_a                    9.973009
_cell_length_b                    11.255843
_cell_length_c                    17.521732
_cell_angle_alpha                 90.762887
_cell_angle_beta                  77.419350
_cell_angle_gamma                 92.437034
_cell_volume                      1917.918353
_symmetry_space_group_name_H-M    P1
_symmetry_Int_Tables_number       1
loop_
    _symmetry_equiv_pos_site_id
    _symmetry_equiv_pos_as_xyz
    1  x,y,z
loop_
    _atom_site_type_symbol
    _atom_site_label
    _atom_site_fract_x
    _atom_site_fract_y
    _atom_site_fract_z
    _atom_type_partial_charge
    O   O1   0.419914  0.688089  0.504883  -0.691062
    O   O2   0.573682  0.306197  0.484433  -0.698038
    O   O3   0.652439  0.656396  0.480446  -0.684860
    O   O4   0.341146  0.337891  0.508864  -0.701967
    C   C1   0.548630  0.727063  0.491876  0.816890
    C   C2   0.444961  0.267226  0.497432  0.853165
    O   O5   0.372423  0.512042  0.621488  -0.665879
    O   O6   0.621180  0.482204  0.367835  -0.646814
    O   O7   0.604503  0.479847  0.597097  -0.619871
    O   O8   0.389058  0.514418  0.392205  -0.611384
    C   C3   0.485985  0.494952  0.645530  0.773387
    C   C4   0.507632  0.499257  0.343801  0.730652
    Zn  Zn1  0.343551  0.517985  0.510667  1.055094
    Zn  Zn2  0.650039  0.476303  0.478649  1.048268
    C   C5   0.479111  0.493239  0.730361  -0.257322
    C   C6   0.514501  0.499748  0.258988  -0.226128
    C   C7   0.581072  0.443580  0.761158  0.420181
    C   C8   0.412331  0.548421  0.227864  0.425409
    C   C9   0.572475  0.447046  0.841271  -0.374475
    C   C10  0.424262  0.548196  0.147415  -0.369428
    C   C11  0.460790  0.495663  0.891203  0.288106
    C   C12  0.534126  0.496130  0.098177  0.267782
    C   C13  0.356764  0.538779  0.860277  -0.278645
    C   C14  0.635282  0.449148  0.129691  -0.247368
    C   C15  0.366185  0.538592  0.780691  -0.022317
    C   C16  0.625939  0.451180  0.209234  -0.074139
    C   C17  0.445262  0.499433  0.976927  -0.222040
    C   C18  0.551144  0.493902  0.012447  -0.182261
    H   H1   0.706520  0.412486  0.231940  0.128714
    H   H2   0.284337  0.576008  0.758462  0.111131
    H   H3   0.654636  0.485439  0.978513  0.113096
    H   H4   0.341978  0.507508  0.011376  0.170573
    H   H5   0.268006  0.575606  0.898442  0.126582
    H   H6   0.722732  0.409760  0.091938  0.139814
    H   H7   0.351710  0.595294  0.122950  0.158748
    H   H8   0.653816  0.410901  0.864225  0.183642
    H   H9   0.620919  0.091613  0.483112  0.115611
    H   H10  0.372668  0.902683  0.506196  0.125546
    C   C19  0.579220  0.855661  0.488909  -0.369464
    C   C20  0.414371  0.138627  0.500397  -0.389504
    C   C21  0.479515  0.933105  0.496836  -0.009517
    C   C22  0.514075  0.061182  0.492470  0.014199
    H   H11  0.308032  0.106481  0.510146  0.163986
    H   H12  0.685559  0.887810  0.479159  0.160313
    H   H13  0.121149  0.428331  0.443918  0.121580
    H   H14  0.872547  0.566407  0.545155  0.100630
    N   N1   0.851679  0.449100  0.457855  -0.272287
    N   N2   0.141910  0.545192  0.531476  -0.280312
    C   C23  0.922674  0.505783  0.500395  0.129349
    C   C24  0.070991  0.488818  0.488761  0.100321
    H   H15  0.088682  0.601428  0.572927  0.258745
    H   H16  0.904868  0.392708  0.416500  0.256180
    O   O9   0.689284  0.394498  0.712979  -0.411570
    C   C25  0.747653  0.294570  0.729619  0.851774
    O   O10  0.686200  0.226479  0.780113  -0.550575
    C   C26  0.883376  0.262089  0.681326  -0.630835
    H   H17  0.921779  0.332265  0.637253  0.137001
    H   H18  0.871872  0.176161  0.651237  0.193928
    H   H19  0.957603  0.253630  0.719570  0.181504
    O   O11  0.307974  0.603420  0.275477  -0.389110
    C   C27  0.179032  0.606547  0.263112  0.777288
    O   O12  0.137683  0.533514  0.220656  -0.546399
    C   C28  0.082861  0.694117  0.306755  -0.482210
    H   H20  0.136294  0.749669  0.344625  0.111611
    H   H21  0.992609  0.646225  0.343372  0.139051
    H   H22  0.047990  0.751783  0.264664  0.155927
