# Generated by REPEAT Assigner based on pymatgen
data_DB0-m2_o17_o20_f0_pcu.sym.89
_audit_creation_date              2022-05-24
_audit_creation_method            REPEAT_Assigner
_cell_length_a                    15.177881
_cell_length_b                    13.658628
_cell_length_c                    14.510909
_cell_angle_alpha                 90.000000
_cell_angle_beta                  89.990031
_cell_angle_gamma                 90.000000
_cell_volume                      3008.242299
_symmetry_space_group_name_H-M    P1
_symmetry_Int_Tables_number       1
loop_
    _symmetry_equiv_pos_site_id
    _symmetry_equiv_pos_as_xyz
    1  x,y,z
loop_
    _atom_site_type_symbol
    _atom_site_label
    _atom_site_fract_x
    _atom_site_fract_y
    _atom_site_fract_z
    _atom_type_partial_charge
    O   O1    0.371661  0.587745  0.500206  -0.506922
    O   O2    0.628893  0.420039  0.500405  -0.634698
    O   O3    0.627845  0.588529  0.492690  -0.539007
    O   O4    0.372362  0.419427  0.506983  -0.632535
    C   C1    0.329907  0.503976  0.505388  0.613773
    C   C2    0.670493  0.504801  0.494734  0.662489
    O   O5    0.493128  0.587814  0.365968  -0.535456
    O   O6    0.506714  0.419821  0.634520  -0.673785
    O   O7    0.500184  0.588511  0.633646  -0.559406
    O   O8    0.500538  0.419307  0.366384  -0.677003
    C   C3    0.496119  0.503867  0.322834  0.857134
    C   C4    0.504322  0.504717  0.677334  0.891767
    Cu  Cu1   0.498011  0.601939  0.499523  0.765119
    Cu  Cu2   0.501163  0.405567  0.500904  0.958293
    C   C5    0.496156  0.506556  0.223153  -0.329763
    C   C6    0.504828  0.507416  0.776906  -0.341767
    C   C7    0.496966  0.512236  0.139745  0.145548
    C   C8    0.504247  0.512821  0.860287  0.150619
    C   C9    0.499253  0.518083  0.041755  -0.027060
    C   C10   0.502133  0.518316  0.958236  -0.028104
    C   C11   0.816322  0.495911  0.412856  -0.082493
    C   C12   0.184266  0.495162  0.587526  -0.084149
    C   C13   0.768812  0.506664  0.494101  -0.016635
    C   C14   0.231663  0.505907  0.506219  -0.006340
    C   C15   0.813988  0.524189  0.574744  -0.179304
    C   C16   0.186411  0.524460  0.425832  -0.186443
    C   C17   0.905342  0.516055  0.577396  0.191222
    C   C18   0.095131  0.516499  0.423273  0.190178
    C   C19   0.953947  0.507815  0.497582  -0.002401
    C   C20   0.046556  0.507836  0.503054  0.003791
    C   C21   0.909981  0.501358  0.413056  -0.027124
    C   C22   0.090608  0.500940  0.587510  -0.034199
    C   C23   0.948686  0.515108  0.660672  -0.281258
    C   C24   0.051881  0.515866  0.340008  -0.278555
    C   C25   0.037816  0.499902  0.667317  -0.031902
    C   C26   0.962824  0.500583  0.333303  -0.037033
    H   H1    0.912988  0.516350  0.724718  0.122145
    H   H2    0.087628  0.517186  0.276006  0.118245
    C   C27   0.445689  0.797743  0.556479  -0.152351
    C   C28   0.553251  0.208015  0.441729  -0.214715
    C   C29   0.554870  0.797699  0.443920  -0.141259
    C   C30   0.447225  0.207884  0.558842  -0.209448
    N   N1    0.500162  0.748550  0.498935  0.081295
    N   N2    0.501339  0.258355  0.501084  0.093282
    C   C31   0.555213  0.899741  0.442483  0.181625
    C   C32   0.445289  0.105221  0.559079  0.113061
    C   C33   0.445544  0.899766  0.558144  0.186073
    C   C34   0.554631  0.105328  0.440697  0.119561
    C   C35   0.500274  0.951592  0.500184  -0.074218
    C   C36   0.499969  0.053918  0.499847  0.006858
    C   C37   0.609791  0.950250  0.383382  -0.258772
    C   C38   0.390517  0.052001  0.618380  -0.040695
    C   C39   0.390252  0.950240  0.616567  -0.265529
    C   C40   0.609289  0.052141  0.381330  -0.048830
    H   H3    0.402010  0.755298  0.599366  0.064517
    H   H4    0.595763  0.248830  0.396362  0.183631
    H   H5    0.597192  0.755169  0.399637  0.062592
    H   H6    0.406676  0.248394  0.606514  0.180713
    C   C41   0.764572  0.474020  0.330565  0.166008
    C   C42   0.735960  0.379561  0.318054  -0.057876
    C   C43   0.698695  0.352698  0.235890  0.051341
    C   C44   0.692647  0.418311  0.164947  -0.024029
    Br  Br1   0.663761  0.368635  0.045986  -0.084770
    C   C45   0.713060  0.515581  0.179948  0.136759
    C   C46   0.746626  0.544144  0.264393  -0.335965
    H   H7    0.747660  0.325367  0.370839  0.038779
    H   H8    0.679438  0.278544  0.224260  -0.027960
    H   H9    0.706879  0.568220  0.124706  0.013842
    H   H10   0.766856  0.619109  0.275227  0.161094
    C   C47   0.236064  0.473501  0.669827  0.183702
    C   C48   0.263963  0.378898  0.682798  -0.059291
    C   C49   0.301132  0.352117  0.765024  0.025590
    C   C50   0.307931  0.418083  0.835618  -0.021311
    Br  Br2   0.337379  0.369031  0.954668  -0.086068
    C   C51   0.288306  0.515460  0.820127  0.131208
    C   C52   0.254610  0.543854  0.735665  -0.340538
    H   H11   0.251985  0.324651  0.630161  0.042089
    H   H12   0.319791  0.277811  0.776911  -0.014923
    H   H13   0.295304  0.568404  0.875025  0.018466
    H   H14   0.235206  0.619082  0.724582  0.163153
    C   C53   0.766693  0.567139  0.652637  0.091602
    C   C54   0.754914  0.667319  0.653996  -0.099242
    C   C55   0.719308  0.712304  0.730196  -0.167531
    C   C56   0.697532  0.657432  0.806344  0.135890
    Br  Br3   0.651828  0.720623  0.912985  -0.164778
    C   C57   0.709248  0.557300  0.805293  -0.241319
    C   C58   0.741679  0.511617  0.727633  0.047809
    H   H15   0.775266  0.710894  0.595565  0.107028
    H   H16   0.710407  0.790817  0.731025  0.104232
    H   H17   0.692831  0.514487  0.865450  0.167738
    H   H18   0.751762  0.433261  0.727378  0.108150
    C   C59   0.233490  0.567169  0.347735  0.121957
    C   C60   0.243535  0.667564  0.344979  -0.119749
    C   C61   0.278771  0.712008  0.268320  -0.156062
    C   C62   0.302068  0.656323  0.193209  0.124932
    Br  Br4   0.347553  0.718774  0.086088  -0.164320
    C   C63   0.291662  0.556026  0.195505  -0.233043
    C   C64   0.259432  0.510977  0.273570  0.045477
    H   H19   0.222128  0.711730  0.402618  0.109396
    H   H20   0.286174  0.790685  0.266215  0.102896
    H   H21   0.308770  0.512592  0.135958  0.168268
    H   H22   0.250125  0.432532  0.274780  0.100870
    C   C65   0.066917  0.480951  0.761656  0.383951
    C   C66   0.080758  0.385927  0.790403  -0.261952
    C   C67   0.100042  0.366921  0.881429  0.039857
    C   C68   0.102709  0.441844  0.944634  0.097802
    Br  Br5   0.129268  0.413966  0.070243  -0.161340
    C   C69   0.083971  0.536014  0.917247  -0.208677
    C   C70   0.064840  0.555384  0.826093  -0.210181
    H   H23   0.077157  0.326453  0.741434  0.093265
    H   H24   0.113485  0.293403  0.903652  0.027871
    H   H25   0.083370  0.594150  0.967618  0.183526
    H   H26   0.048531  0.628980  0.804858  0.082428
    C   C71   0.933884  0.481702  0.238944  0.388946
    C   C72   0.919764  0.386695  0.210366  -0.257739
    C   C73   0.900539  0.367594  0.119363  0.020892
    C   C74   0.898160  0.442416  0.056028  0.104530
    Br  Br6   0.871653  0.414259  0.930450  -0.164263
    C   C75   0.917302  0.536573  0.083241  -0.212807
    C   C76   0.936459  0.556016  0.174385  -0.207011
    H   H27   0.923199  0.327303  0.259461  0.092428
    H   H28   0.886948  0.294061  0.097258  0.034940
    H   H29   0.918260  0.594643  0.032786  0.187492
    H   H30   0.953123  0.629563  0.195557  0.080830
    C   C77   0.667362  0.896774  0.319637  0.488807
    C   C78   0.755999  0.885779  0.338702  -0.361513
    C   C79   0.812288  0.851467  0.271462  0.028883
    C   C80   0.779639  0.826534  0.185984  0.045196
    Br  Br7   0.857890  0.794937  0.087931  -0.074374
    C   C81   0.690313  0.829507  0.169780  -0.265527
    C   C82   0.634053  0.863956  0.236681  -0.149630
    H   H31   0.782125  0.909575  0.404282  0.152483
    H   H32   0.882370  0.848480  0.284356  0.059064
    H   H33   0.664772  0.809435  0.103075  0.242616
    H   H34   0.564579  0.871253  0.221914  0.094952
    C   C83   0.330722  0.097249  0.685078  0.122352
    C   C84   0.350810  0.090296  0.777852  -0.175244
    C   C85   0.284532  0.093514  0.842826  0.083970
    C   C86   0.198304  0.105512  0.815392  -0.043989
    Br  Br8   0.105550  0.086901  0.902319  -0.038055
    C   C87   0.179047  0.121883  0.723771  -0.023696
    C   C88   0.245168  0.117398  0.658567  -0.080737
    H   H35   0.416969  0.071419  0.798912  0.109176
    H   H36   0.299609  0.080271  0.914554  0.026375
    H   H37   0.111324  0.130633  0.702171  0.069888
    H   H38   0.228327  0.119011  0.586204  0.080207
    C   C89   0.332767  0.896974  0.680495  0.498120
    C   C90   0.244124  0.886144  0.661654  -0.372236
    C   C91   0.188027  0.851689  0.728930  0.035558
    C   C92   0.220859  0.826621  0.814271  0.040090
    Br  Br9   0.142363  0.795122  0.912030  -0.071650
    C   C93   0.310265  0.829554  0.830357  -0.268643
    C   C94   0.366372  0.863783  0.763186  -0.146981
    H   H39   0.217876  0.910717  0.596409  0.155393
    H   H40   0.117935  0.848469  0.716126  0.057203
    H   H41   0.336102  0.809411  0.896969  0.244249
    H   H42   0.435897  0.871349  0.777732  0.094959
    C   C95   0.668474  0.097717  0.314243  0.124674
    C   C96   0.647765  0.091166  0.221562  -0.157317
    C   C97   0.713729  0.094139  0.156208  0.064957
    C   C98   0.800186  0.105464  0.183192  -0.039536
    Br  Br10  0.892756  0.087281  0.095891  -0.038497
    C   C99   0.819922  0.121626  0.274685  -0.025162
    C   C100  0.754162  0.117704  0.340224  -0.086272
    H   H43   0.581278  0.073406  0.200715  0.106217
    H   H44   0.698186  0.080980  0.084599  0.031703
    H   H45   0.887761  0.129650  0.295925  0.071223
    H   H46   0.771351  0.119883  0.412477  0.082086
