# generated using pymatgen
data_V2H23C48N2ClO14
_symmetry_space_group_name_H-M   'P 1'
_cell_length_a   6.70252500
_cell_length_b   26.93883000
_cell_length_c   32.41888500
_cell_angle_alpha   101.19407000
_cell_angle_beta   89.56051400
_cell_angle_gamma   90.52914200
_symmetry_Int_Tables_number   1
_chemical_formula_structural   V2H23C48N2ClO14
_chemical_formula_sum   'V4 H46 C96 N4 Cl2 O28'
_cell_volume   5741.78571831
_cell_formula_units_Z   2
loop_
 _symmetry_equiv_pos_site_id
 _symmetry_equiv_pos_as_xyz
  1  'x, y, z'
loop_
 _atom_site_type_symbol
 _atom_site_label
 _atom_site_symmetry_multiplicity
 _atom_site_fract_x
 _atom_site_fract_y
 _atom_site_fract_z
 _atom_site_occupancy
  V  V1  1  0.90171900  0.49492900  0.50088800  1
  V  V2  1  0.40216200  0.50614100  0.50183100  1
  V  V3  1  0.25637700  0.00739200  0.00202600  1
  V  V4  1  0.75597100  0.99431900  0.00059800  1
  H  H1  1  0.36272300  0.90761700  0.88960400  1
  H  H2  1  0.38128300  0.84620800  0.82377100  1
  H  H3  1  0.75492700  0.81727800  0.83213000  1
  H  H4  1  0.73827200  0.88036000  0.89715800  1
  H  H5  1  0.76712600  0.79146300  0.77093900  1
  H  H6  1  0.78443800  0.72775600  0.70702200  1
  H  H7  1  0.41478200  0.71800800  0.72220900  1
  H  H8  1  0.39564600  0.77895800  0.78724200  1
  H  H9  1  0.39211900  0.65002000  0.68733200  1
  H  H10  1  0.41127800  0.58554900  0.62356900  1
  H  H11  1  0.85110600  0.63205300  0.58382000  1
  H  H12  1  0.83241200  0.69836700  0.64700800  1
  H  H13  1  0.44473800  0.79358400  0.32742600  1
  H  H14  1  0.43125200  0.84745400  0.27420900  1
  H  H15  1  0.75620100  0.69272600  0.16794100  1
  H  H16  1  0.77512400  0.63793800  0.22038400  1
  H  H17  1  0.75703800  0.83509300  0.13060300  1
  H  H18  1  0.73844600  0.88994200  0.07866300  1
  H  H19  1  0.35336800  0.92805000  0.09766700  1
  H  H20  1  0.37320700  0.87349200  0.14975800  1
  H  H21  1  0.42598800  0.65524200  0.37155800  1
  H  H22  1  0.42373300  0.60425200  0.42634400  1
  H  H23  1  0.82470100  0.55871700  0.39551300  1
  H  H24  1  0.81990700  0.61199000  0.34277500  1
  H  H25  1  0.65631100  0.12285200  0.70343400  1
  H  H26  1  0.64828700  0.17495300  0.64886400  1
  H  H27  1  0.50669900  0.38024200  0.79615900  1
  H  H28  1  0.49018200  0.32733100  0.85013200  1
  H  H29  1  0.75311900  0.41488600  0.68350800  1
  H  H30  1  0.78532800  0.46737000  0.62973100  1
  H  H31  1  0.45741900  0.35731300  0.54377800  1
  H  H32  1  0.44082500  0.30262000  0.59643800  1
  H  H33  1  0.79737000  0.09884200  0.82778600  1
  H  H34  1  0.79215000  0.04720500  0.88262800  1
  H  H35  1  0.31694500  0.13637300  0.94491000  1
  H  H36  1  0.33440400  0.19074300  0.89220500  1
  H  H37  1  0.87960400  0.15653400  0.17854500  1
  H  H38  1  0.26404200  0.19141400  0.16552900  1
  H  H39  1  0.24488000  0.12568000  0.10259700  1
  H  H40  1  0.26697300  0.22069400  0.22567800  1
  H  H41  1  0.28371900  0.28564100  0.28844200  1
  H  H42  1  0.91887600  0.28721200  0.27969800  1
  H  H43  1  0.90379400  0.22327500  0.21562600  1
  H  H44  1  0.90831800  0.31359300  0.34192400  1
  H  H45  1  0.32388600  0.42152300  0.38239700  1
  H  H46  1  0.31485300  0.35676900  0.31828200  1
  C  C1  1  0.64212200  0.44784100  0.55221500  1
  C  C2  1  0.61788200  0.44204100  0.43685200  1
  C  C3  1  0.12042500  0.54704700  0.44645000  1
  C  C4  1  0.14693700  0.56504700  0.56264700  1
  C  C5  1  0.22960000  0.88754000  0.87689800  1
  C  C6  1  0.23963600  0.85251400  0.83985300  1
  C  C7  1  0.06934900  0.82715000  0.82320600  1
  C  C8  1  0.88915000  0.83725600  0.84403700  1
  C  C9  1  0.87949100  0.87248200  0.88099100  1
  C  C10  1  0.04963200  0.89756800  0.89739400  1
  C  C11  1  0.90968800  0.77499800  0.76083100  1
  C  C12  1  0.91996700  0.73937300  0.72408500  1
  C  C13  1  0.10061800  0.71806300  0.71003600  1
  C  C14  1  0.27103800  0.73320300  0.73288200  1
  C  C15  1  0.26076800  0.76874100  0.76958300  1
  C  C16  1  0.08001100  0.78974400  0.78387800  1
  C  C17  1  0.27407600  0.64742100  0.66458500  1
  C  C18  1  0.28457600  0.61058100  0.62876600  1
  C  C19  1  0.13297800  0.60498700  0.59982800  1
  C  C20  1  0.97015600  0.63641600  0.60657900  1
  C  C21  1  0.95944600  0.67353500  0.64242900  1
  C  C22  1  0.11162000  0.67920400  0.67161600  1
  C  C23  1  0.00134800  0.65461600  0.28776200  1
  C  C24  1  0.23529900  0.70996400  0.32602100  1
  C  C25  1  0.23047400  0.74028400  0.29623600  1
  C  C26  1  0.10652900  0.72773400  0.26222200  1
  C  C27  1  0.99118100  0.68472200  0.25795300  1
  C  C28  1  0.34723300  0.78345500  0.30065000  1
  C  C29  1  0.33963900  0.81368200  0.27079700  1
  C  C30  1  0.21408700  0.80091100  0.23675900  1
  C  C31  1  0.09745400  0.75809500  0.23269800  1
  C  C32  1  0.97115200  0.74588600  0.19903000  1
  C  C33  1  0.85523900  0.70258600  0.19448600  1
  C  C34  1  0.86595200  0.67185000  0.22388300  1
  C  C35  1  0.20352600  0.83100000  0.20689500  1
  C  C36  1  0.96165300  0.77698000  0.16993200  1
  C  C37  1  0.88925000  0.85494800  0.12321500  1
  C  C38  1  0.87802000  0.88616700  0.09421300  1
  C  C39  1  0.04479400  0.91236600  0.08492300  1
  C  C40  1  0.22232000  0.90763100  0.10497000  1
  C  C41  1  0.23275800  0.87725400  0.13459100  1
  C  C42  1  0.06643600  0.85061500  0.14370000  1
  C  C43  1  0.29170300  0.63501900  0.37705900  1
  C  C44  1  0.29171200  0.60578200  0.40770100  1
  C  C45  1  0.12431300  0.57806800  0.41415300  1
  C  C46  1  0.95689100  0.57992300  0.39014300  1
  C  C47  1  0.95561700  0.60951900  0.35992200  1
  C  C48  1  0.12332600  0.63706900  0.35300200  1
  C  C49  1  0.53502700  0.22839900  0.83618100  1
  C  C50  1  0.60762000  0.15672400  0.78484200  1
  C  C51  1  0.60490200  0.18542700  0.75389300  1
  C  C52  1  0.57376100  0.23665000  0.76479700  1
  C  C53  1  0.54105600  0.25842700  0.80622200  1
  C  C54  1  0.63265400  0.16318000  0.71217900  1
  C  C55  1  0.62786800  0.19239700  0.68155800  1
  C  C56  1  0.60046000  0.24399700  0.69281500  1
  C  C57  1  0.57583100  0.26598400  0.73445800  1
  C  C58  1  0.55423800  0.31750900  0.74564500  1
  C  C59  1  0.52445200  0.33971700  0.78728400  1
  C  C60  1  0.51513300  0.31005300  0.81754400  1
  C  C61  1  0.59948500  0.27389900  0.66269800  1
  C  C62  1  0.56350700  0.34664300  0.71507700  1
  C  C63  1  0.68873500  0.40208000  0.65277400  1
  C  C64  1  0.70756800  0.43142300  0.62253800  1
  C  C65  1  0.62255400  0.41574700  0.58354100  1
  C  C66  1  0.52311500  0.36986600  0.57441900  1
  C  C67  1  0.51467200  0.33907700  0.60390100  1
  C  C68  1  0.59523200  0.35551500  0.64331500  1
  C  C69  1  0.69348000  0.10749100  0.85380800  1
  C  C70  1  0.69139300  0.07871200  0.88471800  1
  C  C71  1  0.55451700  0.08869600  0.91721700  1
  C  C72  1  0.42454800  0.12854900  0.91951800  1
  C  C73  1  0.43476200  0.15914400  0.89001200  1
  C  C74  1  0.56668900  0.14810200  0.85669800  1
  C  C75  1  0.72880600  0.11454200  0.12567100  1
  C  C76  1  0.73997200  0.15091900  0.16192000  1
  C  C77  1  0.57314100  0.17868100  0.17698900  1
  C  C78  1  0.39539400  0.16953200  0.15529000  1
  C  C79  1  0.38421100  0.13270600  0.11938200  1
  C  C80  1  0.55076900  0.10528500  0.10455900  1
  C  C81  1  0.41121100  0.23560200  0.23647300  1
  C  C82  1  0.42044100  0.27250600  0.27231400  1
  C  C83  1  0.60239400  0.29116800  0.28809500  1
  C  C84  1  0.77553000  0.27248900  0.26788200  1
  C  C85  1  0.76649700  0.23605000  0.23159900  1
  C  C86  1  0.58402500  0.21741300  0.21560700  1
  C  C87  1  0.77998900  0.33742800  0.35052100  1
  C  C88  1  0.78380300  0.37381400  0.38693200  1
  C  C89  1  0.61956500  0.40392200  0.39832100  1
  C  C90  1  0.45222100  0.39774400  0.37344900  1
  C  C91  1  0.44682600  0.36092000  0.33756200  1
  C  C92  1  0.61041500  0.33054200  0.32602400  1
  C  C93  1  0.53823300  0.06639100  0.06662100  1
  C  C94  1  0.54212100  0.05617800  0.94834000  1
  C  C95  1  0.03843100  0.93554500  0.93592000  1
  C  C96  1  0.03411300  0.94531600  0.05415300  1
  N  N1  1  0.12100700  0.66768100  0.32157100  1
  N  N2  1  0.07751500  0.81889000  0.17410700  1
  N  N3  1  0.57055100  0.17837600  0.82524900  1
  N  N4  1  0.58396800  0.32458400  0.67424300  1
  Cl  Cl1  1  0.94027200  0.07931300  0.10694700  1
  Cl  Cl2  1  0.99654500  0.38162000  0.41862200  1
  O  O1  1  0.44516800  0.46613000  0.44493000  1
  O  O2  1  0.80931600  0.47430600  0.55308700  1
  O  O3  1  0.99463700  0.55902400  0.53608300  1
  O  O4  1  0.75689400  0.43805600  0.46537700  1
  O  O5  1  0.94705200  0.52370100  0.45020400  1
  O  O6  1  0.49102300  0.44819500  0.52592800  1
  O  O7  1  0.62829100  0.53421100  0.50376300  1
  O  O8  1  0.26103400  0.55665600  0.47607300  1
  O  O9  1  0.31191500  0.53819000  0.55879800  1
  O  O10  1  0.12582500  0.46672700  0.49769000  1
  O  O11  1  0.89416000  0.61152500  0.28238200  1
  O  O12  1  0.35018000  0.72368400  0.36014000  1
  O  O13  1  0.31541700  0.87327900  0.21127800  1
  O  O14  1  0.83984400  0.76461400  0.13676800  1
  O  O15  1  0.49899000  0.24935200  0.87659000  1
  O  O16  1  0.64158100  0.10678200  0.77448300  1
  O  O17  1  0.62127000  0.25258600  0.62190500  1
  O  O18  1  0.54793700  0.39716600  0.72599200  1
  O  O19  1  0.70765700  0.03836400  0.95983400  1
  O  O20  1  0.36369600  0.05708200  0.04973100  1
  O  O21  1  0.20136400  0.96279200  0.04227900  1
  O  O22  1  0.36742500  0.05023300  0.96432400  1
  O  O23  1  0.20511600  0.95546000  0.95142300  1
  O  O24  1  0.70434200  0.04672900  0.05085100  1
  O  O25  1  0.52894700  0.96912000  0.99803000  1
  O  O26  1  0.86383800  0.94430900  0.95319600  1
  O  O27  1  0.86030200  0.95192200  0.03874200  1
  O  O28  1  0.03121900  0.03261700  0.00460600  1
