data_DB0-m3_o11_o17_f0_pcu.sym.45_repeat
_audit_creation_date              2024-02-23
_audit_creation_method            'Materials Studio'
_symmetry_space_group_name_H-M    'P1'
_symmetry_Int_Tables_number       1
_symmetry_cell_setting            triclinic
loop_
_symmetry_equiv_pos_as_xyz
  x,y,z
_cell_length_a                    15.0937
_cell_length_b                    11.1384
_cell_length_c                    9.9161
_cell_angle_alpha                 89.9974
_cell_angle_beta                  89.9854
_cell_angle_gamma                 90.0089
loop_
_atom_site_label
_atom_site_type_symbol
_atom_site_fract_x
_atom_site_fract_y
_atom_site_fract_z
_atom_site_U_iso_or_equiv
_atom_site_adp_type
_atom_site_occupancy
O1     O     0.50037   0.34159   0.59198   0.00000  Uiso   1.00
O2     O     0.50131   0.33995   0.35969   0.00000  Uiso   1.00
C1     C     0.50049   0.28469   0.47631   0.00000  Uiso   1.00
O3     O     0.36853   0.52177   0.58437   0.00000  Uiso   1.00
O4     O     0.36928   0.51922   0.35224   0.00000  Uiso   1.00
C2     C     0.32731   0.52058   0.46821   0.00000  Uiso   1.00
Zn1    Zn    0.49985   0.52091   0.62597   0.00000  Uiso   1.00
Zn2    Zn    0.50181   0.51823   0.31912   0.00000  Uiso   1.00
O5     O     0.50132   0.69907   0.58591   0.00000  Uiso   1.00
O6     O     0.50214   0.69788   0.35259   0.00000  Uiso   1.00
O7     O     0.63240   0.52069   0.59332   0.00000  Uiso   1.00
O8     O     0.63328   0.51826   0.36016   0.00000  Uiso   1.00
C3     C     0.50166   0.75434   0.46929   0.00000  Uiso   1.00
C4     C     0.67427   0.51906   0.47699   0.00000  Uiso   1.00
C5     C     0.81800   0.54056   0.59421   0.00000  Uiso   1.00
C6     C     0.77146   0.51848   0.47688   0.00000  Uiso   1.00
C7     C     0.81737   0.49599   0.35890   0.00000  Uiso   1.00
C8     C     0.90881   0.49461   0.35872   0.00000  Uiso   1.00
C9     C     0.95507   0.51698   0.47602   0.00000  Uiso   1.00
C10    C     0.90949   0.54064   0.59325   0.00000  Uiso   1.00
C11    C     0.95394   0.47067   0.24090   0.00000  Uiso   1.00
C12    C     0.04511   0.47015   0.24014   0.00000  Uiso   1.00
C13    C     0.09159   0.49398   0.35689   0.00000  Uiso   1.00
C14    C     0.04669   0.51646   0.47580   0.00000  Uiso   1.00
C15    C     0.09326   0.53907   0.59357   0.00000  Uiso   1.00
C16    C     0.04661   0.56099   0.71282   0.00000  Uiso   1.00
C17    C     0.95523   0.56354   0.71045   0.00000  Uiso   1.00
C18    C     0.18291   0.49511   0.35382   0.00000  Uiso   1.00
C19    C     0.23004   0.52001   0.46951   0.00000  Uiso   1.00
C20    C     0.18520   0.54326   0.58833   0.00000  Uiso   1.00
H1     H     0.78326   0.55910   0.68719   0.00000  Uiso   1.00
H2     H     0.78227   0.47792   0.26614   0.00000  Uiso   1.00
H3     H     0.91823   0.45253   0.14865   0.00000  Uiso   1.00
H4     H     0.07992   0.45140   0.14726   0.00000  Uiso   1.00
H5     H     0.21705   0.47636   0.26038   0.00000  Uiso   1.00
H6     H     0.22345   0.56836   0.67533   0.00000  Uiso   1.00
H7     H     0.91901   0.58012   0.80261   0.00000  Uiso   1.00
C21    C     0.50133   0.95421   0.36342   0.00000  Uiso   1.00
C22    C     0.50221   0.88576   0.47423   0.00000  Uiso   1.00
H8     H     0.50055   0.91143   0.26529   0.00000  Uiso   1.00
H9     H     0.50333   0.92420   0.57400   0.00000  Uiso   1.00
C23    C     0.50150   0.08731   0.36640   0.00000  Uiso   1.00
C24    C     0.50032   0.15312   0.47974   0.00000  Uiso   1.00
H10    H     0.50236   0.13256   0.26970   0.00000  Uiso   1.00
H11    H     0.49900   0.11287   0.57865   0.00000  Uiso   1.00
C25    C     0.55373   0.58452   0.89810   0.00000  Uiso   1.00
N1     N     0.49738   0.52493   0.82760   0.00000  Uiso   1.00
H12    H     0.60662   0.63251   0.84748   0.00000  Uiso   1.00
H13    H     0.44162   0.49492   0.87641   0.00000  Uiso   1.00
C26    C     0.54576   0.59508   0.04659   0.00000  Uiso   1.00
N2     N     0.50532   0.51548   0.11748   0.00000  Uiso   1.00
H14    H     0.57819   0.66948   0.09681   0.00000  Uiso   1.00
H15    H     0.48611   0.43841   0.06881   0.00000  Uiso   1.00
C27    C     0.08969   0.58003   0.84428   0.00000  Uiso   1.00
O9     O     0.15154   0.51716   0.87994   0.00000  Uiso   1.00
O10    O     0.05378   0.66235   0.93459   0.00000  Uiso   1.00
H16    H     0.08926   0.66277   0.02115   0.00000  Uiso   1.00
