# generated using pymatgen
data_ZnH22C26NO6
_symmetry_space_group_name_H-M   'P 1'
_cell_length_a   10.96581900
_cell_length_b   16.13630000
_cell_length_c   14.98716500
_cell_angle_alpha   90.00834900
_cell_angle_beta   89.98418100
_cell_angle_gamma   89.98745800
_symmetry_Int_Tables_number   1
_chemical_formula_structural   ZnH22C26NO6
_chemical_formula_sum   'Zn2 H44 C52 N2 O12'
_cell_volume   2651.94485985
_cell_formula_units_Z   2
loop_
 _symmetry_equiv_pos_site_id
 _symmetry_equiv_pos_as_xyz
  1  'x, y, z'
loop_
 _atom_site_type_symbol
 _atom_site_label
 _atom_site_symmetry_multiplicity
 _atom_site_fract_x
 _atom_site_fract_y
 _atom_site_fract_z
 _atom_site_occupancy
  Zn  Zn1  1  0.56323700  0.49360500  0.59628300  1
  Zn  Zn2  1  0.56568900  0.49379100  0.39326600  1
  H  H1  1  0.31272600  0.70778300  0.15810500  1
  H  H2  1  0.81703900  0.27885600  0.83122700  1
  H  H3  1  0.34867300  0.75009500  0.31352100  1
  H  H4  1  0.78016700  0.23715500  0.67573700  1
  H  H5  1  0.26130200  0.66935200  0.43656300  1
  H  H6  1  0.86712700  0.31821400  0.55279600  1
  H  H7  1  0.10174800  0.50288200  0.24847200  1
  H  H8  1  0.02798500  0.48387000  0.74113800  1
  H  H9  1  0.18851000  0.58451000  0.12586500  1
  H  H10  1  0.94172800  0.40187000  0.86363500  1
  H  H11  1  0.94536900  0.55369500  0.37239500  1
  H  H12  1  0.18360100  0.43362600  0.61710700  1
  H  H13  1  0.55600700  0.07070600  0.63631900  1
  H  H14  1  0.56741700  0.91670200  0.35317200  1
  H  H15  1  0.55080600  0.36234900  0.07771000  1
  H  H16  1  0.57680700  0.62482500  0.91180100  1
  H  H17  1  0.39757300  0.33318600  0.82155900  1
  H  H18  1  0.36636900  0.37668300  0.93014700  1
  H  H19  1  0.44701500  0.19767900  0.89206000  1
  H  H20  1  0.41565600  0.24126100  0.00089100  1
  H  H21  1  0.20267200  0.27175000  0.95404800  1
  H  H22  1  0.23809100  0.16278000  0.94315300  1
  H  H23  1  0.23407000  0.22797600  0.84508900  1
  H  H24  1  0.72169400  0.70392900  0.02535400  1
  H  H25  1  0.76235100  0.60723000  0.07913100  1
  H  H26  1  0.67767400  0.76596900  0.17382700  1
  H  H27  1  0.71913500  0.66937200  0.22707200  1
  H  H28  1  0.92757400  0.67989800  0.16229600  1
  H  H29  1  0.89062700  0.76941900  0.22965900  1
  H  H30  1  0.88601500  0.77679700  0.10932800  1
  H  H31  1  0.41662500  0.82948400  0.67511300  1
  H  H32  1  0.37631900  0.92933800  0.62956500  1
  H  H33  1  0.47537700  0.89682700  0.81820300  1
  H  H34  1  0.43459100  0.99684200  0.77257300  1
  H  H35  1  0.22164200  0.94796900  0.75003100  1
  H  H36  1  0.26778300  0.93929800  0.86546500  1
  H  H37  1  0.26249600  0.84783900  0.79586700  1
  H  H38  1  0.41591700  0.15413800  0.31116600  1
  H  H39  1  0.37934500  0.05292600  0.35490100  1
  H  H40  1  0.48577900  0.08947100  0.16926700  1
  H  H41  1  0.44863800  0.98811600  0.21309200  1
  H  H42  1  0.23199200  0.03108400  0.23022900  1
  H  H43  1  0.28337300  0.04188500  0.11617700  1
  H  H44  1  0.26919500  0.13258200  0.18626700  1
  C  C1  1  0.55906200  0.33176900  0.49453700  1
  C  C2  1  0.56979600  0.65563100  0.49501000  1
  C  C3  1  0.32553500  0.49833500  0.49336400  1
  C  C4  1  0.80339400  0.48905400  0.49618500  1
  C  C5  1  0.29502000  0.69546300  0.29936200  1
  C  C6  1  0.83400700  0.29168400  0.68997400  1
  C  C7  1  0.24643700  0.64971000  0.36846600  1
  C  C8  1  0.88234000  0.33763100  0.62092600  1
  C  C9  1  0.17811600  0.57961400  0.35066700  1
  C  C10  1  0.95089400  0.40760400  0.63881900  1
  C  C11  1  0.15618600  0.55702900  0.26321000  1
  C  C12  1  0.97333900  0.42984000  0.72631500  1
  C  C13  1  0.20505200  0.60276700  0.19419800  1
  C  C14  1  0.92477500  0.38388300  0.79527200  1
  C  C15  1  0.27469000  0.67185500  0.21224700  1
  C  C16  1  0.85486500  0.31494400  0.77713000  1
  C  C17  1  0.99747700  0.52532200  0.42540800  1
  C  C18  1  0.13146600  0.46202500  0.56412500  1
  C  C19  1  0.93766300  0.48814700  0.49602300  1
  C  C20  1  0.19127000  0.49921600  0.49352300  1
  C  C21  1  0.00595000  0.45518600  0.56575500  1
  C  C22  1  0.12299300  0.53214500  0.42378100  1
  C  C23  1  0.55722400  0.95120000  0.57479000  1
  C  C24  1  0.55848900  0.03609700  0.41461000  1
  C  C25  1  0.56247100  0.90815600  0.49519800  1
  C  C26  1  0.55708500  0.07919200  0.49425100  1
  C  C27  1  0.56325400  0.95058000  0.41532900  1
  C  C28  1  0.55673300  0.03677700  0.57412300  1
  C  C29  1  0.56670500  0.81922600  0.49518100  1
  C  C30  1  0.55735400  0.16816500  0.49431600  1
  C  C31  1  0.55782700  0.24284400  0.49441800  1
  C  C32  1  0.56899300  0.74456100  0.49511100  1
  C  C33  1  0.55272300  0.41957800  0.94909000  1
  C  C34  1  0.57438000  0.56763100  0.04050300  1
  C  C35  1  0.56167500  0.49331300  0.90272200  1
  C  C36  1  0.56596000  0.49389800  0.08684300  1
  C  C37  1  0.57133700  0.56721600  0.94840700  1
  C  C38  1  0.55630200  0.41999300  0.04119300  1
  C  C39  1  0.56171400  0.49337800  0.80692800  1
  C  C40  1  0.56668700  0.49396200  0.18262000  1
  C  C41  1  0.42115900  0.33004700  0.89343300  1
  C  C42  1  0.39238500  0.24428400  0.92896700  1
  C  C43  1  0.25792700  0.22561900  0.91694800  1
  C  C44  1  0.70449400  0.66344100  0.08381800  1
  C  C45  1  0.73586700  0.70995700  0.16863500  1
  C  C46  1  0.86879400  0.73563900  0.16723000  1
  C  C47  1  0.43703500  0.89676700  0.67720700  1
  C  C48  1  0.41466700  0.92949700  0.77062100  1
  C  C49  1  0.28293800  0.91513500  0.79707800  1
  C  C50  1  0.44040400  0.08747600  0.30913900  1
  C  C51  1  0.42468400  0.05486200  0.21496800  1
  C  C52  1  0.29363500  0.06589600  0.18510400  1
  N  N1  1  0.56700100  0.49394600  0.25982100  1
  N  N2  1  0.56190200  0.49345300  0.72972700  1
  O  O1  1  0.55929100  0.37018400  0.57163700  1
  O  O2  1  0.56955800  0.61721300  0.41791400  1
  O  O3  1  0.56120000  0.37032300  0.41754700  1
  O  O4  1  0.56765500  0.61707500  0.57199900  1
  O  O5  1  0.38187600  0.49656000  0.57066300  1
  O  O6  1  0.74705100  0.49083400  0.41888500  1
  O  O7  1  0.38379200  0.49668600  0.41680600  1
  O  O8  1  0.74513700  0.49070400  0.57274500  1
  O  O9  1  0.54563900  0.34598900  0.90393600  1
  O  O10  1  0.58142500  0.64111000  0.08582500  1
  O  O11  1  0.55919200  0.90935700  0.65422100  1
  O  O12  1  0.56198200  0.07801800  0.33525600  1
