# generated using pymatgen
data_V4H16C27O23
_symmetry_space_group_name_H-M   'P 1'
_cell_length_a   6.32500000
_cell_length_b   13.20740800
_cell_length_c   16.01211000
_cell_angle_alpha   90.00474400
_cell_angle_beta   89.99435700
_cell_angle_gamma   90.00728400
_symmetry_Int_Tables_number   1
_chemical_formula_structural   V4H16C27O23
_chemical_formula_sum   'V4 H16 C27 O23'
_cell_volume   1337.60129904
_cell_formula_units_Z   1
loop_
 _symmetry_equiv_pos_site_id
 _symmetry_equiv_pos_as_xyz
  1  'x, y, z'
loop_
 _atom_site_type_symbol
 _atom_site_label
 _atom_site_symmetry_multiplicity
 _atom_site_fract_x
 _atom_site_fract_y
 _atom_site_fract_z
 _atom_site_occupancy
  V  V1  1  0.06226500  0.51457500  0.50332600  1
  V  V2  1  0.56242800  0.48991600  0.50298600  1
  V  V3  1  0.66206800  0.99089000  0.00428800  1
  V  V4  1  0.16204300  0.01569800  0.00369100  1
  H  H1  1  0.63895100  0.09865400  0.74764700  1
  H  H2  1  0.94211500  0.25013800  0.82841300  1
  H  H3  1  0.58463800  0.24947900  0.64862800  1
  H  H4  1  0.10262300  0.25796000  0.36640100  1
  H  H5  1  0.73442400  0.34148800  0.26363200  1
  H  H6  1  0.14329300  0.13679700  0.24581300  1
  H  H7  1  0.73488600  0.23366500  0.18099100  1
  H  H8  1  0.12659400  0.88829300  0.76004900  1
  H  H9  1  0.44738900  0.74455400  0.83968500  1
  H  H10  1  0.12180000  0.75986600  0.14125300  1
  H  H11  1  0.49352200  0.84093800  0.24337900  1
  H  H12  1  0.08153300  0.63676600  0.26039400  1
  H  H13  1  0.48912700  0.73301400  0.32631000  1
  H  H14  1  0.88078600  0.78252000  0.67001800  1
  H  H15  1  0.61857800  0.78050800  0.74316800  1
  H  H16  1  0.13395200  0.21727600  0.73737800  1
  C  C1  1  0.36080500  0.60323800  0.62085300  1
  C  C2  1  0.32411200  0.60906100  0.38970500  1
  C  C3  1  0.82313300  0.40369000  0.38478800  1
  C  C4  1  0.86640300  0.39147300  0.61511600  1
  C  C5  1  0.73779000  0.16551100  0.75196700  1
  C  C6  1  0.85754000  0.17958300  0.81950300  1
  C  C7  1  0.72629800  0.24316800  0.68635900  1
  C  C8  1  0.88462000  0.30813800  0.67493700  1
  C  C9  1  0.99307000  0.26255700  0.31448600  1
  C  C10  1  0.84498300  0.33403100  0.31460100  1
  C  C11  1  0.01149400  0.18925400  0.24568000  1
  C  C12  1  0.87084200  0.18434900  0.18372600  1
  C  C13  1  0.22969500  0.82291700  0.76401500  1
  C  C14  1  0.35860600  0.81364000  0.82927800  1
  C  C15  1  0.21059700  0.74226800  0.70157500  1
  C  C16  1  0.37530900  0.68283000  0.68411000  1
  C  C17  1  0.23235300  0.76343100  0.19288400  1
  C  C18  1  0.38152800  0.83452900  0.19277000  1
  C  C19  1  0.21349300  0.68913700  0.26107500  1
  C  C20  1  0.35356800  0.68343100  0.32317300  1
  C  C21  1  0.40215600  0.90495000  0.12286900  1
  C  C22  1  0.36288500  0.89361500  0.89217500  1
  C  C23  1  0.86184400  0.10374900  0.88614400  1
  C  C24  1  0.90036600  0.11051300  0.11697700  1
  C  C25  1  0.00539900  0.72736700  0.66070300  1
  C  C26  1  0.58397800  0.70547600  0.71926900  1
  C  C27  1  0.08848800  0.29235800  0.71649400  1
  O  O1  1  0.44133500  0.61557900  0.45672400  1
  O  O2  1  0.23981900  0.62124700  0.55459100  1
  O  O3  1  0.02488500  0.45631900  0.61536600  1
  O  O4  1  0.14929500  0.55715700  0.39023700  1
  O  O5  1  0.94057400  0.39231500  0.45130600  1
  O  O6  1  0.52334500  0.54059200  0.61748500  1
  O  O7  1  0.33651600  0.42425800  0.50260900  1
  O  O8  1  0.64984000  0.45603300  0.38801300  1
  O  O9  1  0.73913000  0.37962900  0.54942000  1
  O  O10  1  0.83675300  0.58022100  0.50673600  1
  O  O11  1  0.20049600  0.95636000  0.89203400  1
  O  O12  1  0.57507000  0.95783300  0.11948500  1
  O  O13  1  0.78344100  0.11686600  0.04989900  1
  O  O14  1  0.48463500  0.88023600  0.95898000  1
  O  O15  1  0.70045800  0.04038100  0.88938300  1
  O  O16  1  0.28347700  0.89366400  0.05658600  1
  O  O17  1  0.38789900  0.08113100  0.00028400  1
  O  O18  1  0.98463000  0.12211100  0.95193400  1
  O  O19  1  0.07490300  0.05868700  0.11664100  1
  O  O20  1  0.88775100  0.92522900  0.00475100  1
  O  O21  1  0.97035900  0.65135500  0.61988900  1
  O  O22  1  0.72593900  0.64348300  0.71329800  1
  O  O23  1  0.21743200  0.36090900  0.71869500  1
