# generated using pymatgen
data_ZnH10C17(NO2)2
_symmetry_space_group_name_H-M   'P 1'
_cell_length_a   16.01916400
_cell_length_b   10.99770900
_cell_length_c   9.81953500
_cell_angle_alpha   90.00017600
_cell_angle_beta   90.00919800
_cell_angle_gamma   90.00439000
_symmetry_Int_Tables_number   1
_chemical_formula_structural   ZnH10C17(NO2)2
_chemical_formula_sum   'Zn2 H20 C34 N4 O8'
_cell_volume   1729.94775388
_cell_formula_units_Z   2
loop_
 _symmetry_equiv_pos_site_id
 _symmetry_equiv_pos_as_xyz
  1  'x, y, z'
loop_
 _atom_site_type_symbol
 _atom_site_label
 _atom_site_symmetry_multiplicity
 _atom_site_fract_x
 _atom_site_fract_y
 _atom_site_fract_z
 _atom_site_occupancy
  Zn  Zn1  1  0.49828400  0.50128200  0.65414600  1
  Zn  Zn2  1  0.49845000  0.50083700  0.34450200  1
  H  H1  1  0.04261800  0.31885200  0.38410100  1
  H  H2  1  0.05517900  0.67996900  0.37771300  1
  H  H3  1  0.95347100  0.69147800  0.61472300  1
  H  H4  1  0.05055100  0.50226900  0.73287100  1
  H  H5  1  0.50722200  0.11060000  0.28672100  1
  H  H6  1  0.57153200  0.19257000  0.75835900  1
  H  H7  1  0.53241300  0.09551400  0.96755900  1
  H  H8  1  0.45067700  0.90655100  0.96374200  1
  H  H9  1  0.41881900  0.80956800  0.75094500  1
  H  H10  1  0.49858400  0.89143100  0.28630100  1
  H  H11  1  0.58455000  0.63916700  0.12405100  1
  H  H12  1  0.39320800  0.32942000  0.24495300  1
  H  H13  1  0.30722400  0.19265000  0.12399400  1
  H  H14  1  0.30617800  0.19396500  0.87463400  1
  H  H15  1  0.39122700  0.33183600  0.75362200  1
  H  H16  1  0.58443400  0.63930800  0.87453700  1
  H  H17  1  0.98421200  0.25580000  0.66715900  1
  H  H18  1  0.89959900  0.25922200  0.56493200  1
  H  H19  1  0.99063500  0.50285600  0.17300500  1
  H  H20  1  0.90389500  0.42934200  0.22512500  1
  C  C1  1  0.50929500  0.26218400  0.50052900  1
  C  C2  1  0.33513600  0.49227500  0.49914600  1
  C  C3  1  0.48961600  0.73977000  0.50004000  1
  C  C4  1  0.66123500  0.51330400  0.49952000  1
  C  C5  1  0.96919800  0.41312700  0.56259900  1
  C  C6  1  0.02281400  0.40344200  0.43640800  1
  C  C7  1  0.24555500  0.49276000  0.49893300  1
  C  C8  1  0.75080400  0.51511100  0.49970900  1
  C  C9  1  0.02644900  0.50563300  0.62706000  1
  C  C10  1  0.07907200  0.49972100  0.49884200  1
  C  C11  1  0.97442900  0.60733500  0.56271700  1
  C  C12  1  0.91734500  0.51204700  0.50086500  1
  C  C13  1  0.02893300  0.60179700  0.43477200  1
  C  C14  1  0.97158300  0.50595100  0.37696100  1
  C  C15  1  0.17034900  0.49513500  0.49883300  1
  C  C16  1  0.82602400  0.51455300  0.50010700  1
  C  C17  1  0.53431200  0.11130700  0.75116400  1
  C  C18  1  0.51533400  0.05420100  0.87162600  1
  C  C19  1  0.47106200  0.94787900  0.86956300  1
  C  C20  1  0.45624600  0.89087300  0.74749900  1
  C  C21  1  0.48461300  0.94079300  0.62548900  1
  C  C22  1  0.51041700  0.06127500  0.62664400  1
  C  C23  1  0.51206300  0.12706300  0.50424900  1
  C  C24  1  0.50496700  0.06352700  0.38322600  1
  C  C25  1  0.49774900  0.93843500  0.38290100  1
  C  C26  1  0.48695800  0.87492800  0.50320900  1
  C  C27  1  0.39636700  0.33583600  0.13744400  1
  C  C28  1  0.34617500  0.25585800  0.06859100  1
  C  C29  1  0.34561300  0.25656600  0.93001300  1
  C  C30  1  0.39537800  0.33706800  0.86112200  1
  C  C31  1  0.44708100  0.41912900  0.92852800  1
  C  C32  1  0.44741900  0.41870300  0.07000500  1
  C  C33  1  0.54506800  0.57579400  0.06990500  1
  C  C34  1  0.54496500  0.57592100  0.92866400  1
  N  N1  1  0.49660900  0.49764700  0.14014900  1
  N  N2  1  0.49624100  0.49811900  0.85839300  1
  N  N3  1  0.93439400  0.30976300  0.63479500  1
  N  N4  1  0.93953600  0.50789500  0.23875000  1
  O  O1  1  0.50467600  0.32098500  0.61506900  1
  O  O2  1  0.50669900  0.31987500  0.38354100  1
  O  O3  1  0.37408200  0.49589100  0.61553600  1
  O  O4  1  0.37428100  0.49323400  0.38288400  1
  O  O5  1  0.49400300  0.68206300  0.61702300  1
  O  O6  1  0.49240900  0.68237600  0.38123800  1
  O  O7  1  0.62265700  0.51012900  0.61785200  1
  O  O8  1  0.62272300  0.51188800  0.38105400  1
