# Generated by REPEAT Assigner based on pymatgen
data_DB0-m29_o80_o149_f0_pts.sym.37
_audit_creation_date              2022-05-24
_audit_creation_method            REPEAT_Assigner
_cell_length_a                    13.881137
_cell_length_b                    9.371566
_cell_length_c                    18.519233
_cell_angle_alpha                 86.888471
_cell_angle_beta                  90.614630
_cell_angle_gamma                 110.102836
_cell_volume                      2258.942827
_symmetry_space_group_name_H-M    P1
_symmetry_Int_Tables_number       1
loop_
    _symmetry_equiv_pos_site_id
    _symmetry_equiv_pos_as_xyz
    1  x,y,z
loop_
    _atom_site_type_symbol
    _atom_site_label
    _atom_site_fract_x
    _atom_site_fract_y
    _atom_site_fract_z
    _atom_type_partial_charge
    H   H1   0.864174  0.922160  0.246589  0.193491
    C   C1   0.742697  0.055907  0.886971  -0.211685
    C   C2   0.819322  0.125759  0.837645  -0.253629
    C   C3   0.908185  0.114223  0.867037  0.486283
    N   N1   0.890300  0.050874  0.935067  -0.608757
    C   C4   0.788846  0.016715  0.947998  0.497104
    C   C5   0.996893  0.146876  0.830732  -0.286008
    C   C6   0.078972  0.091803  0.856244  0.375833
    C   C7   0.136052  0.043797  0.809335  -0.273345
    C   C8   0.207898  0.005865  0.849847  -0.128784
    C   C9   0.192006  0.032202  0.921009  0.346458
    N   N2   0.112396  0.084233  0.924405  -0.361263
    C   C10  0.253176  0.011795  0.983544  -0.286725
    C   C11  0.208892  0.962036  0.047851  0.443326
    C   C12  0.255504  0.925195  0.109088  -0.163020
    C   C13  0.179086  0.863446  0.159878  -0.262974
    C   C14  0.090637  0.871379  0.128944  0.511318
    N   N3   0.107820  0.929960  0.060427  -0.589116
    C   C15  0.003881  0.840773  0.165911  -0.362109
    C   C16  0.917586  0.886218  0.141095  0.338621
    C   C17  0.855932  0.922875  0.188471  -0.273975
    C   C18  0.782805  0.959237  0.148382  -0.071409
    C   C19  0.802804  0.941174  0.076093  0.293642
    N   N4   0.885821  0.897026  0.072722  -0.299080
    C   C20  0.743163  0.961351  0.012194  -0.299469
    H   H2   0.805979  0.165614  0.784100  0.206602
    H   H3   0.127227  0.038394  0.751374  0.207572
    H   H4   0.332452  0.022203  0.975587  0.200447
    H   H5   0.188171  0.829717  0.215576  0.169174
    H   H6   0.003610  0.803858  0.222426  0.176320
    H   H7   0.086444  0.122716  0.969508  0.323363
    H   H8   0.915526  0.865818  0.027155  0.309304
    O   O1   0.625782  0.026639  0.155007  -0.527381
    C   C21  0.702672  0.997215  0.186489  0.579946
    O   O2   0.524483  0.713715  0.222225  -0.512189
    O   O3   0.703107  0.985760  0.257357  -0.530522
    O   O4   0.512473  0.850858  0.316684  -0.507489
    C   C22  0.517034  0.724397  0.292156  0.540477
    Fe  Fe1  0.521833  0.993820  0.232273  1.434729
    O   O5   0.383595  0.897819  0.187919  -0.606939
    O   O6   0.434963  0.078441  0.095243  -0.498453
    C   C23  0.363834  0.962325  0.127585  0.624205
    O   O7   0.560600  0.202895  0.269924  -0.606956
    O   O8   0.437119  0.072192  0.351874  -0.536421
    C   C24  0.507930  0.200024  0.329251  0.596844
    C   C25  0.464904  0.504652  0.687152  -0.096815
    C   C26  0.478240  0.633431  0.643774  0.096223
    C   C27  0.492703  0.630992  0.570243  -0.233715
    C   C28  0.471023  0.375347  0.658054  -0.208130
    C   C29  0.483943  0.372057  0.583877  0.292731
    C   C30  0.491886  0.498301  0.538683  0.003783
    C   C31  0.501098  0.488473  0.463659  0.113953
    C   C32  0.503943  0.607682  0.414864  -0.196849
    C   C33  0.515254  0.597161  0.341926  0.053997
    N   N5   0.491003  0.246415  0.556141  -0.173302
    C   C34  0.502841  0.235720  0.485062  -0.016008
    C   C35  0.505372  0.354693  0.436680  0.030819
    C   C36  0.514595  0.343049  0.362129  -0.040278
    C   C37  0.522278  0.466402  0.315798  -0.115670
    H   H9   0.455907  0.509208  0.744731  0.165526
    H   H10  0.528194  0.456747  0.258287  0.150127
    H   H11  0.505254  0.736567  0.539827  0.180633
    H   H12  0.495288  0.710394  0.431302  0.153935
    H   H13  0.512162  0.133314  0.467765  0.178525
    O   O9   0.610001  0.094701  0.815739  -0.633848
    O   O10  0.572946  0.869649  0.880480  -0.576679
    C   C38  0.635403  0.008897  0.865079  0.747844
    O   O11  0.440141  0.775521  0.738779  -0.569359
    O   O12  0.540322  0.905937  0.643690  -0.522809
    C   C39  0.484586  0.776295  0.676046  0.544617
    O   O13  0.456189  0.256059  0.777453  -0.495995
    O   O14  0.368569  0.953966  0.849324  -0.557531
    C   C40  0.287369  0.962597  0.815152  0.604197
    O   O15  0.477880  0.122035  0.685241  -0.477345
    C   C41  0.466985  0.245945  0.707815  0.659256
    O   O16  0.286763  0.961264  0.744368  -0.535258
    Fe  Fe2  0.472857  0.987282  0.772198  1.458193
    C   C42  0.009527  0.212728  0.755801  0.634381
    O   O17  0.942306  0.166446  0.711205  -0.478763
    O   O18  0.104651  0.315383  0.733446  -0.532071
    H   H14  0.103000  0.344675  0.680159  0.406257
    C   C43  0.633456  0.932355  0.022431  0.705562
    O   O19  0.597369  0.031489  0.006554  -0.408813
    O   O20  0.572385  0.796687  0.057424  -0.511040
    H   H15  0.499746  0.796129  0.062569  0.402359
