# generated using pymatgen
data_Cu2H31C64Br(NO3)4
_symmetry_space_group_name_H-M   'P 1'
_cell_length_a   27.47138000
_cell_length_b   10.82634200
_cell_length_c   9.39744500
_cell_angle_alpha   89.98645300
_cell_angle_beta   90.00042100
_cell_angle_gamma   89.99462300
_symmetry_Int_Tables_number   1
_chemical_formula_structural   Cu2H31C64Br(NO3)4
_chemical_formula_sum   'Cu2 H31 C64 Br1 N4 O12'
_cell_volume   2794.93683317
_cell_formula_units_Z   1
loop_
 _symmetry_equiv_pos_site_id
 _symmetry_equiv_pos_as_xyz
  1  'x, y, z'
loop_
 _atom_site_type_symbol
 _atom_site_label
 _atom_site_symmetry_multiplicity
 _atom_site_fract_x
 _atom_site_fract_y
 _atom_site_fract_z
 _atom_site_occupancy
  Cu  Cu1  1  0.49806700  0.48715900  0.63052600  1
  Cu  Cu2  1  0.49552600  0.49219000  0.35184300  1
  H  H1  1  0.34327500  0.45777200  0.27742900  1
  H  H2  1  0.25507300  0.46535000  0.28054200  1
  H  H3  1  0.11676600  0.22420000  0.36728800  1
  H  H4  1  0.74197700  0.32900000  0.57785900  1
  H  H5  1  0.87604300  0.26107300  0.28875100  1
  H  H6  1  0.96137200  0.25619000  0.29061900  1
  H  H7  1  0.03146400  0.22436500  0.35917100  1
  H  H8  1  0.34582800  0.53693100  0.72391500  1
  H  H9  1  0.25727200  0.54109700  0.72617100  1
  H  H10  1  0.11838900  0.79130000  0.63603600  1
  H  H11  1  0.96047700  0.77645000  0.68177900  1
  H  H12  1  0.64393600  0.67033100  0.38744200  1
  H  H13  1  0.87503600  0.77422600  0.67545700  1
  H  H14  1  0.73275900  0.68675600  0.39122700  1
  H  H15  1  0.03299200  0.79860900  0.63230500  1
  H  H16  1  0.48674500  0.09870700  0.27164000  1
  H  H17  1  0.54059900  0.20479500  0.74107800  1
  H  H18  1  0.53575700  0.10395100  0.96858600  1
  H  H19  1  0.50085400  0.89596600  0.98814400  1
  H  H20  1  0.47571300  0.78620900  0.77897300  1
  H  H21  1  0.48455500  0.87575300  0.27744800  1
  H  H22  1  0.44201500  0.35938400  0.11961700  1
  H  H23  1  0.54757300  0.69369500  0.23978200  1
  H  H24  1  0.60984000  0.79924300  0.12115600  1
  H  H25  1  0.62761900  0.75425300  0.87222000  1
  H  H26  1  0.57898000  0.61399100  0.74433700  1
  H  H27  1  0.44368900  0.35748700  0.85971600  1
  H  H28  1  0.68018300  0.25100700  0.76630200  1
  H  H29  1  0.65496400  0.03426300  0.78934000  1
  H  H30  1  0.59509200  0.04557900  0.37176100  1
  H  H31  1  0.61821900  0.26274200  0.35009100  1
  C  C1  1  0.49859700  0.25514200  0.48911500  1
  C  C2  1  0.40448200  0.49285600  0.49807500  1
  C  C3  1  0.49390100  0.72455800  0.50068500  1
  C  C4  1  0.58919000  0.48500000  0.48352500  1
  C  C5  1  0.17336300  0.40607400  0.45620100  1
  C  C6  1  0.17406500  0.60538600  0.55180200  1
  C  C7  1  0.27612900  0.52420500  0.62709800  1
  C  C8  1  0.32635800  0.52102700  0.62570900  1
  C  C9  1  0.32499600  0.47610600  0.37700400  1
  C  C10  1  0.27487100  0.47982300  0.37855400  1
  C  C11  1  0.25014700  0.50335900  0.50354700  1
  C  C12  1  0.09773200  0.50901400  0.49936000  1
  C  C13  1  0.12304700  0.40739600  0.45189700  1
  C  C14  1  0.09799200  0.30654500  0.40199000  1
  C  C15  1  0.12365100  0.60822600  0.55060700  1
  C  C16  1  0.35109000  0.49652000  0.50061600  1
  C  C17  1  0.64249500  0.49063600  0.48180700  1
  C  C18  1  0.97117700  0.41805600  0.42549700  1
  C  C19  1  0.97111800  0.61132000  0.55276800  1
  C  C20  1  0.94604900  0.51541700  0.48754200  1
  C  C21  1  0.94480500  0.32906800  0.35126300  1
  C  C22  1  0.89493300  0.33257000  0.34688300  1
  C  C23  1  0.87000500  0.42472700  0.41597900  1
  C  C24  1  0.89540300  0.51650600  0.48472300  1
  C  C25  1  0.86955300  0.60903000  0.55091200  1
  C  C26  1  0.81910400  0.60704500  0.55038000  1
  C  C27  1  0.81969900  0.42577000  0.41532200  1
  C  C28  1  0.72029800  0.40557500  0.53997800  1
  C  C29  1  0.67031600  0.39435500  0.53437900  1
  C  C30  1  0.66529600  0.59537300  0.43059700  1
  C  C31  1  0.71537400  0.60536900  0.43434400  1
  C  C32  1  0.74308100  0.51015400  0.48894300  1
  C  C33  1  0.02187500  0.41228800  0.43756500  1
  C  C34  1  0.04709800  0.51136100  0.49543100  1
  C  C35  1  0.02213400  0.61268800  0.54923000  1
  C  C36  1  0.04813400  0.30862300  0.39486500  1
  C  C37  1  0.09908800  0.71093200  0.59784500  1
  C  C38  1  0.94426600  0.70302400  0.62125400  1
  C  C39  1  0.89425300  0.70153100  0.62026000  1
  C  C40  1  0.04909400  0.71338600  0.59748700  1
  C  C41  1  0.52434300  0.11423000  0.74449100  1
  C  C42  1  0.52323800  0.05616900  0.87445900  1
  C  C43  1  0.50443100  0.93943100  0.88513000  1
  C  C44  1  0.49175800  0.87596900  0.76405400  1
  C  C45  1  0.49706400  0.92960800  0.63024800  1
  C  C46  1  0.50710000  0.05528700  0.62280400  1
  C  C47  1  0.50086100  0.11873400  0.49426200  1
  C  C48  1  0.49167900  0.05198700  0.37225300  1
  C  C49  1  0.48928600  0.92479900  0.37654200  1
  C  C50  1  0.49212900  0.86154500  0.50450100  1
  C  C51  1  0.55288600  0.66643700  0.13268600  1
  C  C52  1  0.58872000  0.73096100  0.06432700  1
  C  C53  1  0.59817300  0.70696700  0.92533300  1
  C  C54  1  0.56933200  0.62531400  0.85268200  1
  C  C55  1  0.53160600  0.56068300  0.91871300  1
  C  C56  1  0.52590400  0.57431000  0.06501300  1
  C  C57  1  0.46678300  0.42017400  0.06415700  1
  C  C58  1  0.46844600  0.41731200  0.91654200  1
  C  C59  1  0.64913000  0.27250800  0.55895200  1
  C  C60  1  0.66004500  0.20735400  0.68123000  1
  C  C61  1  0.64613500  0.08544300  0.69398300  1
  C  C62  1  0.62263300  0.02756800  0.58284800  1
  C  C63  1  0.61209400  0.09210100  0.46048500  1
  C  C64  1  0.62472700  0.21472400  0.44913100  1
  Br  Br1  1  0.60664000  0.85691500  0.59459000  1
  N  N1  1  0.19814800  0.50488200  0.50468700  1
  N  N2  1  0.79499600  0.51524600  0.48403000  1
  N  N3  1  0.49452800  0.50017100  0.13838400  1
  N  N4  1  0.50134100  0.48507500  0.84385000  1
  O  O1  1  0.48410200  0.31183500  0.60598500  1
  O  O2  1  0.50767100  0.31456600  0.36765700  1
  O  O3  1  0.42846500  0.52197200  0.61574800  1
  O  O4  1  0.42604800  0.46111900  0.37748100  1
  O  O5  1  0.51127200  0.66359400  0.61064200  1
  O  O6  1  0.48298900  0.66821500  0.38055900  1
  O  O7  1  0.56713400  0.45163100  0.60159000  1
  O  O8  1  0.56539800  0.52185700  0.37027200  1
  O  O9  1  0.19775400  0.30481500  0.41424200  1
  O  O10  1  0.79518100  0.33792800  0.34409700  1
  O  O11  1  0.19922500  0.70448600  0.59653900  1
  O  O12  1  0.79395200  0.69487800  0.61965900  1
