# generated using pymatgen
data_CuH24C47(NO3)3
_symmetry_space_group_name_H-M   'P 1'
_cell_length_a   27.52782400
_cell_length_b   10.86701000
_cell_length_c   26.12020300
_cell_angle_alpha   90.00821300
_cell_angle_beta   90.00271000
_cell_angle_gamma   89.99666400
_symmetry_Int_Tables_number   1
_chemical_formula_structural   CuH24C47(NO3)3
_chemical_formula_sum   'Cu2 H48 C94 N6 O18'
_cell_volume   7813.73164669
_cell_formula_units_Z   2
loop_
 _symmetry_equiv_pos_site_id
 _symmetry_equiv_pos_as_xyz
  1  'x, y, z'
loop_
 _atom_site_type_symbol
 _atom_site_label
 _atom_site_symmetry_multiplicity
 _atom_site_fract_x
 _atom_site_fract_y
 _atom_site_fract_z
 _atom_site_occupancy
  Cu  Cu1  1  0.49805100  0.49938700  0.55189500  1
  Cu  Cu2  1  0.50038900  0.50219800  0.44947800  1
  H  H1  1  0.34498600  0.50137700  0.57598700  1
  H  H2  1  0.65448200  0.51477700  0.42610900  1
  H  H3  1  0.25668300  0.50585400  0.57387900  1
  H  H4  1  0.74237200  0.51087500  0.42807100  1
  H  H5  1  0.12178800  0.23773700  0.43684900  1
  H  H6  1  0.87875300  0.73314100  0.58232700  1
  H  H7  1  0.54822700  0.78596200  0.03751900  1
  H  H8  1  0.46935800  0.19884700  0.96494500  1
  H  H9  1  0.44439500  0.62770900  0.73339500  1
  H  H10  1  0.54998500  0.36444600  0.26766600  1
  H  H11  1  0.65106800  0.45949700  0.58853100  1
  H  H12  1  0.34811800  0.52416800  0.41226600  1
  H  H13  1  0.73919000  0.45546800  0.58986000  1
  H  H14  1  0.25954900  0.52699200  0.41102300  1
  H  H15  1  0.87915600  0.24048600  0.43203000  1
  H  H16  1  0.11908700  0.78185100  0.55239300  1
  H  H17  1  0.96397600  0.24477300  0.42660400  1
  H  H18  1  0.03416300  0.77798800  0.55717900  1
  H  H19  1  0.03697800  0.22536500  0.44086400  1
  H  H20  1  0.96369300  0.74421400  0.57929500  1
  H  H21  1  0.36703900  0.23766800  0.31042900  1
  H  H22  1  0.63608900  0.76248600  0.68835000  1
  H  H23  1  0.34457700  0.27636400  0.39996500  1
  H  H24  1  0.65517700  0.71847600  0.59845600  1
  H  H25  1  0.39486000  0.19587800  0.46968500  1
  H  H26  1  0.60342200  0.80016500  0.52981600  1
  H  H27  1  0.49125600  0.03706400  0.35991700  1
  H  H28  1  0.51273300  0.97064200  0.64188000  1
  H  H29  1  0.44049600  0.11833300  0.29048300  1
  H  H30  1  0.56482100  0.88822600  0.71005800  1
  H  H31  1  0.46456600  0.87930000  0.43068600  1
  H  H32  1  0.53569500  0.12079500  0.57029300  1
  H  H33  1  0.53574600  0.78656000  0.87113900  1
  H  H34  1  0.44738900  0.22866600  0.12942000  1
  H  H35  1  0.53349600  0.79688700  0.96052200  1
  H  H36  1  0.44862200  0.22055800  0.03989900  1
  H  H37  1  0.45430500  0.64561200  0.37270900  1
  H  H38  1  0.54887000  0.36510500  0.62890400  1
  H  H39  1  0.44846100  0.65725400  0.28000600  1
  H  H40  1  0.55463300  0.35413800  0.72150500  1
  H  H41  1  0.54468200  0.78777000  0.12702500  1
  H  H42  1  0.47158400  0.19795700  0.87555000  1
  H  H43  1  0.39289200  0.63898900  0.64842700  1
  H  H44  1  0.43021500  0.67345700  0.59458600  1
  H  H45  1  0.40736200  0.81675200  0.66523300  1
  H  H46  1  0.55556200  0.23655000  0.35122300  1
  H  H47  1  0.56824800  0.32580500  0.40650800  1
  H  H48  1  0.62610000  0.27286800  0.33500000  1
  C  C1  1  0.49554600  0.26348800  0.50083700  1
  C  C2  1  0.50383800  0.73686700  0.50060400  1
  C  C3  1  0.40639500  0.50775400  0.49592100  1
  C  C4  1  0.59293000  0.49234400  0.50546700  1
  C  C5  1  0.53169500  0.70677500  0.05479900  1
  C  C6  1  0.47746900  0.28578300  0.94742100  1
  C  C7  1  0.17684600  0.41933100  0.47158100  1
  C  C8  1  0.82292700  0.57072700  0.53512500  1
  C  C9  1  0.17590100  0.60940900  0.51345700  1
  C  C10  1  0.82318400  0.39611500  0.48290500  1
  C  C11  1  0.27843600  0.52182900  0.44723800  1
  C  C12  1  0.72065700  0.46894300  0.55383200  1
  C  C13  1  0.32857800  0.52031100  0.44809100  1
  C  C14  1  0.67055500  0.47118500  0.55295400  1
  C  C15  1  0.32686600  0.50798600  0.53938500  1
  C  C16  1  0.67246000  0.50113900  0.46241200  1
  C  C17  1  0.27683700  0.51084500  0.53841000  1
  C  C18  1  0.72244300  0.49854200  0.46337200  1
  C  C19  1  0.25245100  0.51719800  0.49239000  1
  C  C20  1  0.74684400  0.48255400  0.50904300  1
  C  C21  1  0.10059700  0.50804000  0.49557600  1
  C  C22  1  0.89886700  0.48892100  0.50606200  1
  C  C23  1  0.12661500  0.41417100  0.47321900  1
  C  C24  1  0.87317600  0.57521700  0.53355900  1
  C  C25  1  0.10240700  0.31414800  0.45366100  1
  C  C26  1  0.89779300  0.66584800  0.55941500  1
  C  C27  1  0.12569700  0.60643200  0.51560900  1
  C  C28  1  0.87340300  0.39846700  0.48082800  1
  C  C29  1  0.35310800  0.51229800  0.49421000  1
  C  C30  1  0.64616000  0.48809800  0.50720300  1
  C  C31  1  0.97455300  0.40289100  0.47697800  1
  C  C32  1  0.02472700  0.59701500  0.52248100  1
  C  C33  1  0.97416000  0.58850800  0.52765900  1
  C  C34  1  0.02544700  0.40455000  0.47650300  1
  C  C35  1  0.94936700  0.49326500  0.50366500  1
  C  C36  1  0.05009300  0.50333200  0.49808000  1
  C  C37  1  0.94794000  0.31360400  0.45083100  1
  C  C38  1  0.05080900  0.69772800  0.54083300  1
  C  C39  1  0.89815600  0.31147100  0.45296800  1
  C  C40  1  0.10051500  0.70196300  0.53746800  1
  C  C41  1  0.05262900  0.30890100  0.45539000  1
  C  C42  1  0.94750800  0.67258400  0.55665900  1
  C  C43  1  0.37717100  0.22523100  0.39127300  1
  C  C44  1  0.62345200  0.77236000  0.60784500  1
  C  C45  1  0.40574300  0.18057700  0.43041600  1
  C  C46  1  0.59409600  0.81747000  0.56939200  1
  C  C47  1  0.44722200  0.11392700  0.41939300  1
  C  C48  1  0.55361000  0.88704000  0.58134000  1
  C  C49  1  0.45929200  0.09063300  0.36896100  1
  C  C50  1  0.54366800  0.91403300  0.63202100  1
  C  C51  1  0.43079900  0.13609600  0.32988600  1
  C  C52  1  0.57292200  0.86812000  0.67042500  1
  C  C53  1  0.38966600  0.20312600  0.34104500  1
  C  C54  1  0.61283300  0.79740000  0.65832000  1
  C  C55  1  0.48127600  0.93247600  0.46090000  1
  C  C56  1  0.51861600  0.06777200  0.54030800  1
  C  C57  1  0.50435000  0.87234200  0.50059700  1
  C  C58  1  0.49519300  0.12789100  0.50082200  1
  C  C59  1  0.52396000  0.94142500  0.54045900  1
  C  C60  1  0.47602900  0.05896300  0.46073400  1
  C  C61  1  0.51136600  0.61054100  0.18681000  1
  C  C62  1  0.49182100  0.38644600  0.81515300  1
  C  C63  1  0.47804400  0.41272400  0.18771900  1
  C  C64  1  0.51529600  0.59310400  0.81374900  1
  C  C65  1  0.52867900  0.42680400  0.29081800  1
  C  C66  1  0.46794700  0.56961900  0.71049300  1
  C  C67  1  0.53222700  0.42216600  0.34347800  1
  C  C68  1  0.46566700  0.57602800  0.65775400  1
  C  C69  1  0.47574600  0.58270900  0.34996700  1
  C  C70  1  0.52539800  0.42299300  0.65165700  1
  C  C71  1  0.47211100  0.58961300  0.29732900  1
  C  C72  1  0.52866300  0.41625800  0.70429600  1
  C  C73  1  0.49835200  0.50974900  0.26735900  1
  C  C74  1  0.49983300  0.49063200  0.73419000  1
  C  C75  1  0.49597200  0.50787100  0.10729700  1
  C  C76  1  0.50273900  0.49386800  0.89443200  1
  C  C77  1  0.51210300  0.60951500  0.13380800  1
  C  C78  1  0.49141000  0.38780200  0.86817700  1
  C  C79  1  0.53049400  0.70812900  0.10729400  1
  C  C80  1  0.47949200  0.28346800  0.89497700  1
  C  C81  1  0.47846000  0.40924500  0.13473100  1
  C  C82  1  0.51505800  0.59682300  0.86670000  1
  C  C83  1  0.51415500  0.60451900  0.97339100  1
  C  C84  1  0.48274700  0.39928100  0.02818800  1
  C  C85  1  0.48700700  0.39341600  0.97476700  1
  C  C86  1  0.51444300  0.60619600  0.02708400  1
  C  C87  1  0.50151300  0.49713300  0.94772200  1
  C  C88  1  0.49770700  0.50446800  0.05402300  1
  C  C89  1  0.52568700  0.70824800  0.94436700  1
  C  C90  1  0.46349100  0.30249600  0.05667900  1
  C  C91  1  0.52634000  0.70392900  0.89189400  1
  C  C92  1  0.46172400  0.30727000  0.10911700  1
  C  C93  1  0.42998800  0.66676600  0.63641600  1
  C  C94  1  0.56690300  0.32906400  0.36459500  1
  N  N1  1  0.20064900  0.51618900  0.49173300  1
  N  N2  1  0.79871000  0.48198300  0.50972700  1
  N  N3  1  0.49485400  0.51223800  0.21288100  1
  N  N4  1  0.50330700  0.48896100  0.78875700  1
  N  N5  1  0.50630000  0.49890400  0.37300200  1
  N  N6  1  0.49404700  0.50099800  0.62848300  1
  O  O1  1  0.49693100  0.32122100  0.54493700  1
  O  O2  1  0.50249600  0.67917200  0.45655500  1
  O  O3  1  0.49722300  0.32173600  0.45695500  1
  O  O4  1  0.50207400  0.67868700  0.54444300  1
  O  O5  1  0.42726200  0.50144000  0.54085500  1
  O  O6  1  0.57207900  0.49866100  0.46055600  1
  O  O7  1  0.43115600  0.51084600  0.45306100  1
  O  O8  1  0.56819100  0.48963600  0.54830500  1
  O  O9  1  0.52773900  0.69377500  0.78688300  1
  O  O10  1  0.46083700  0.31648500  0.21443800  1
  O  O11  1  0.20223900  0.32574400  0.45120200  1
  O  O12  1  0.79797600  0.65767000  0.56059300  1
  O  O13  1  0.79855900  0.30686300  0.45853600  1
  O  O14  1  0.20028400  0.70597700  0.53278400  1
  O  O15  1  0.52881300  0.70801500  0.21258000  1
  O  O16  1  0.47878200  0.28401700  0.78980300  1
  O  O17  1  0.43972000  0.78315000  0.65639700  1
  O  O18  1  0.61348400  0.35380500  0.34621900  1
