# Generated by REPEAT Assigner based on pymatgen
data_DB0-m2_o8_cdl-e
_audit_creation_date              2022-05-24
_audit_creation_method            REPEAT_Assigner
_cell_length_a                    27.637177
_cell_length_b                    27.641273
_cell_length_c                    73.898071
_cell_angle_alpha                 91.235539
_cell_angle_beta                  88.524501
_cell_angle_gamma                 92.005467
_cell_volume                      56387.366126
_symmetry_space_group_name_H-M    P1
_symmetry_Int_Tables_number       1
loop_
    _symmetry_equiv_pos_site_id
    _symmetry_equiv_pos_as_xyz
    1  x,y,z
loop_
    _atom_site_type_symbol
    _atom_site_label
    _atom_site_fract_x
    _atom_site_fract_y
    _atom_site_fract_z
    _atom_type_partial_charge
    C   C1    0.521582  0.588628  0.501248  0.814434
    C   C2    0.535177  0.070524  0.588173  0.750917
    C   C3    0.137359  0.471720  0.343162  -0.043086
    C   C4    0.197012  0.521683  0.327394  0.474965
    C   C5    0.111199  0.512060  0.347932  -0.179804
    C   C6    0.127678  0.556892  0.341962  0.079650
    C   C7    0.169982  0.561469  0.331739  -0.366634
    C   C8    0.521504  0.899381  0.650622  -0.175388
    C   C9    0.562160  0.874013  0.654470  -0.048467
    C   C10   0.558316  0.832555  0.664659  -0.144721
    C   C11   0.513330  0.815887  0.671214  0.474968
    C   C12   0.473034  0.841934  0.667684  -0.366533
    C   C13   0.523144  0.940916  0.588936  0.730871
    C   C14   0.476916  0.883186  0.657439  0.069134
    C   C15   0.495470  0.690645  0.699585  -0.155914
    C   C16   0.492562  0.649068  0.709770  -0.034834
    C   C17   0.540033  0.707838  0.692803  0.476010
    C   C18   0.533797  0.624286  0.713379  -0.184520
    C   C19   0.577887  0.641110  0.706328  0.072577
    C   C20   0.580790  0.682326  0.696095  -0.357984
    C   C21   0.541761  0.122237  0.649707  -0.163052
    C   C22   0.500894  0.147109  0.654876  -0.052950
    C   C23   0.504655  0.189835  0.664902  -0.158539
    C   C24   0.525099  0.940887  0.638399  0.696013
    C   C25   0.549794  0.208350  0.669973  0.480552
    C   C26   0.590405  0.182888  0.665118  -0.368223
    C   C27   0.586583  0.140305  0.655018  0.062955
    C   C28   0.566288  0.336640  0.698222  -0.142974
    C   C29   0.568687  0.379219  0.708450  -0.047449
    C   C30   0.521863  0.318054  0.692400  0.478026
    C   C31   0.527090  0.403654  0.713036  -0.179070
    C   C32   0.483120  0.385467  0.706914  0.079678
    C   C33   0.480711  0.343197  0.696654  -0.370532
    C   C34   0.907217  0.508032  0.151044  -0.159856
    C   C35   0.582371  0.530764  0.226417  0.699362
    C   C36   0.885140  0.550738  0.155972  -0.065575
    C   C37   0.842292  0.550094  0.166150  -0.127595
    C   C38   0.820974  0.506324  0.171565  0.458749
    C   C39   0.843726  0.463991  0.166951  -0.364441
    C   C40   0.886307  0.464667  0.156764  0.066767
    C   C41   0.691069  0.494319  0.198535  -0.164592
    C   C42   0.648000  0.492053  0.208481  -0.049698
    C   C43   0.712910  0.538881  0.194406  0.486200
    C   C44   0.626017  0.533846  0.214526  -0.174042
    C   C45   0.647390  0.578186  0.210160  0.072204
    C   C46   0.575904  0.524181  0.275128  0.696500
    C   C47   0.690328  0.580540  0.200121  -0.365220
    C   C48   0.405117  0.526226  0.212785  -0.190843
    C   C49   0.379694  0.484266  0.207753  -0.027616
    C   C50   0.338510  0.486299  0.197533  -0.153598
    C   C51   0.322408  0.530713  0.192139  0.479870
    C   C52   0.348692  0.572258  0.196776  -0.360006
    C   C53   0.389486  0.570204  0.207066  0.076948
    C   C54   0.198080  0.544904  0.164369  -0.139478
    C   C55   0.156510  0.547037  0.154374  -0.054271
    C   C56   0.213780  0.500526  0.169969  0.464648
    C   C57   0.439554  0.516289  0.273863  0.699327
    C   C58   0.130224  0.505226  0.149798  -0.167672
    C   C59   0.145565  0.461278  0.155666  0.058597
    C   C60   0.186823  0.459118  0.165699  -0.359957
    C   C61   0.529740  0.406534  0.786253  -0.196617
    C   C62   0.487489  0.380651  0.790716  -0.031149
    C   C63   0.488786  0.338903  0.800725  -0.155795
    C   C64   0.532755  0.322583  0.806457  0.481757
    C   C65   0.574589  0.349178  0.802322  -0.369563
    C   C66   0.573265  0.390609  0.792275  0.080865
    C   C67   0.544883  0.196789  0.833781  -0.152813
    C   C68   0.445798  0.525000  0.225244  0.695749
    C   C69   0.546264  0.155175  0.843860  -0.051473
    C   C70   0.500780  0.213620  0.828403  0.478225
    C   C71   0.503958  0.129982  0.848776  -0.170529
    C   C72   0.460276  0.146379  0.843093  0.074757
    C   C73   0.458869  0.187621  0.832941  -0.366092
    C   C74   0.531213  0.627736  0.786651  -0.175670
    C   C75   0.488255  0.648706  0.792028  -0.051371
    C   C76   0.488460  0.691333  0.802205  -0.148657
    C   C77   0.532063  0.713607  0.807187  0.481705
    C   C78   0.574763  0.691977  0.802138  -0.369403
    C   C79   0.530900  0.584941  0.774405  0.692900
    C   C80   0.574503  0.649536  0.791920  0.080664
    C   C81   0.540930  0.842671  0.834703  -0.148637
    C   C82   0.541821  0.885545  0.844696  -0.063819
    C   C83   0.496999  0.820352  0.830145  0.474101
    C   C84   0.499255  0.906831  0.850332  -0.158704
    C   C85   0.455566  0.884973  0.845536  0.057560
    C   C86   0.454599  0.842199  0.835480  -0.361496
    C   C87   0.659658  0.533696  0.008111  -0.214757
    C   C88   0.671766  0.498460  0.019898  -0.047790
    C   C89   0.717542  0.497440  0.026609  -0.230904
    C   C90   0.531816  0.582773  0.725604  0.699051
    C   C91   0.751900  0.533077  0.021920  0.576653
    C   C92   0.740292  0.567504  0.009560  -0.354092
    C   C93   0.694387  0.567526  0.002458  0.017308
    C   C94   0.868179  0.547048  0.054896  -0.137134
    C   C95   0.904353  0.548561  0.067521  -0.092541
    C   C96   0.845539  0.503137  0.050220  0.502759
    C   C97   0.918293  0.506487  0.075430  -0.194097
    C   C98   0.896559  0.462788  0.070296  0.074139
    C   C99   0.860266  0.461353  0.057903  -0.367287
    C   C100  0.120480  0.506375  0.073018  -0.193801
    C   C101  0.528732  0.446285  0.725353  0.689812
    C   C102  0.136521  0.549099  0.065098  -0.093637
    C   C103  0.170230  0.548701  0.050954  -0.113495
    C   C104  0.188386  0.505158  0.044603  0.450742
    C   C105  0.171883  0.462636  0.052428  -0.348054
    C   C106  0.138031  0.463060  0.066459  0.068478
    C   C107  0.300475  0.497500  0.008671  -0.126634
    C   C108  0.346427  0.498318  0.000940  -0.132527
    C   C109  0.277870  0.540687  0.012573  0.473636
    C   C110  0.370049  0.541587  0.996827  -0.150266
    C   C111  0.345881  0.584129  0.999220  -0.029273
    C   C112  0.608941  0.491455  0.505200  0.845169
    C   C113  0.529318  0.448222  0.774145  0.709412
    C   C114  0.299767  0.583567  0.006873  -0.302663
    C   C115  0.502521  0.927250  0.927020  -0.186928
    C   C116  0.544693  0.912329  0.934528  -0.095017
    C   C117  0.542807  0.880593  0.948781  -0.110122
    C   C118  0.498331  0.863457  0.955639  0.449585
    C   C119  0.456498  0.878881  0.948209  -0.346570
    C   C120  0.458407  0.910627  0.934087  0.058007
    C   C121  0.483963  0.757214  0.992232  -0.123018
    C   C122  0.481400  0.712384  0.000141  -0.152038
    C   C123  0.528791  0.778413  0.987630  0.479766
    C   C124  0.955063  0.507520  0.089401  0.740701
    C   C125  0.523010  0.688537  0.003645  -0.150548
    C   C126  0.567404  0.711527  0.000502  -0.012465
    C   C127  0.570230  0.756535  0.992769  -0.309070
    C   C128  0.513376  0.128994  0.924270  -0.179148
    C   C129  0.472918  0.147140  0.933104  -0.096876
    C   C130  0.477741  0.184653  0.945727  -0.124504
    C   C131  0.523367  0.204285  0.949481  0.481089
    C   C132  0.563425  0.185430  0.940860  -0.355326
    C   C133  0.558691  0.147947  0.928455  0.057112
    C   C134  0.542693  0.332882  0.974029  -0.217601
    C   C135  0.084945  0.506868  0.088144  0.743413
    C   C136  0.546509  0.379305  0.980934  -0.045024
    C   C137  0.502954  0.303284  0.978735  0.564986
    C   C138  0.512046  0.396701  0.992922  -0.220850
    C   C139  0.474056  0.366579  0.998616  0.024055
    C   C140  0.469303  0.320087  0.991349  -0.360782
    C   C141  0.088435  0.506589  0.137855  0.697677
    C   C142  0.950184  0.508128  0.138779  0.687652
    C   C143  0.509280  0.090510  0.910359  0.731256
    C   C144  0.503852  0.960740  0.911835  0.747717
    C   C145  0.500791  0.950385  0.862192  0.694163
    C   C146  0.504590  0.088659  0.861051  0.691100
    C   C147  0.512418  0.448873  0.996362  0.840264
    C   C148  0.511563  0.401136  0.498384  0.844333
    C   C149  0.608340  0.538581  0.004671  0.842382
    C   C150  0.520646  0.635806  0.003309  0.830207
    C   C151  0.422726  0.543298  0.997332  0.839019
    C   C152  0.375406  0.497813  0.486862  -0.234440
    C   C153  0.363068  0.476038  0.470601  0.022721
    C   C154  0.317583  0.480151  0.463923  -0.331964
    C   C155  0.283682  0.507342  0.473332  0.658620
    C   C156  0.295780  0.528951  0.489741  -0.405266
    C   C157  0.341362  0.523602  0.496667  0.039442
    C   C158  0.164755  0.532818  0.443359  -0.182791
    C   C159  0.426040  0.496977  0.492040  0.816785
    C   C160  0.126516  0.537651  0.431839  -0.072325
    C   C161  0.184740  0.487911  0.445243  0.566281
    C   C162  0.107856  0.497756  0.422389  -0.211234
    C   C163  0.127096  0.452995  0.424816  0.092475
    C   C164  0.165486  0.448405  0.435988  -0.403231
    C   C165  0.905081  0.503250  0.428460  -0.175811
    C   C166  0.886951  0.460886  0.436121  -0.091797
    C   C167  0.855085  0.462530  0.450905  -0.113926
    C   C168  0.841249  0.506912  0.458126  0.445223
    C   C169  0.859936  0.548812  0.450545  -0.341944
    C   C170  0.931034  0.506894  0.362909  0.695551
    C   C171  0.891627  0.547183  0.435916  0.047199
    C   C172  0.735225  0.523920  0.495669  -0.138392
    C   C173  0.689571  0.528139  0.503371  -0.122432
    C   C174  0.752408  0.478387  0.491318  0.488984
    C   C175  0.660960  0.487568  0.507070  -0.169599
    C   C176  0.680239  0.442455  0.504638  -0.005797
    C   C177  0.725933  0.437925  0.496917  -0.318952
    C   C178  0.537604  0.104783  0.573246  -0.200051
    C   C179  0.495553  0.120302  0.565870  -0.084432
    C   C180  0.497451  0.152977  0.551990  -0.126391
    C   C181  0.068969  0.508745  0.360503  0.692940
    C   C182  0.541897  0.170709  0.545319  0.476009
    C   C183  0.583801  0.154631  0.552561  -0.348992
    C   C184  0.581814  0.121740  0.566369  0.064231
    C   C185  0.551567  0.279543  0.509046  -0.136825
    C   C186  0.552295  0.324455  0.501132  -0.139854
    C   C187  0.507835  0.258364  0.514973  0.488109
    C   C188  0.509843  0.348508  0.499295  -0.178545
    C   C189  0.466355  0.325904  0.504093  0.025255
    C   C190  0.465326  0.280657  0.511522  -0.333317
    C   C191  0.518345  0.903451  0.574665  -0.177072
    C   C192  0.068874  0.501641  0.409467  0.747690
    C   C193  0.558706  0.885498  0.565710  -0.104256
    C   C194  0.553749  0.849247  0.552619  -0.107953
    C   C195  0.508032  0.830557  0.548477  0.448019
    C   C196  0.467995  0.849126  0.557260  -0.351184
    C   C197  0.472910  0.885468  0.570164  0.063629
    C   C198  0.486996  0.706757  0.520386  -0.146476
    C   C199  0.483719  0.660363  0.513376  -0.124037
    C   C200  0.529519  0.734340  0.517966  0.510557
    C   C201  0.521575  0.641162  0.503480  -0.164140
    C   C202  0.562503  0.669589  0.499805  -0.000406
    C   C203  0.938794  0.502856  0.412750  0.736116
    C   C204  0.566497  0.716018  0.507153  -0.326468
    C   C205  0.888997  0.506344  0.351030  -0.163883
    C   C206  0.864171  0.547930  0.348021  -0.064559
    C   C207  0.822657  0.546005  0.337849  -0.135009
    C   C208  0.805672  0.502115  0.330484  0.461952
    C   C209  0.831154  0.461054  0.333243  -0.358905
    C   C210  0.872244  0.462959  0.343455  0.062696
    C   C211  0.682495  0.486972  0.301456  -0.163799
    C   C212  0.641695  0.484472  0.290939  -0.023175
    C   C213  0.698425  0.531041  0.308986  0.489374
    C   C214  0.537654  0.078990  0.637756  0.692107
    C   C215  0.616372  0.525604  0.287744  -0.193660
    C   C216  0.631794  0.569162  0.295564  0.070717
    C   C217  0.672315  0.571681  0.306123  -0.356752
    C   C218  0.395999  0.511123  0.285706  -0.177961
    C   C219  0.369283  0.550893  0.290698  -0.047915
    C   C220  0.326128  0.545298  0.300507  -0.153879
    C   C221  0.309185  0.499446  0.305530  0.474898
    C   C222  0.336549  0.460065  0.300870  -0.367836
    C   C223  0.379396  0.465678  0.290990  0.069262
    C   C224  0.180097  0.476322  0.332993  -0.156445
    Cu  Cu1   0.506589  0.494120  0.516649  0.995313
    Cu  Cu2   0.482672  0.514839  0.750323  1.032877
    Cu  Cu3   0.021862  0.554839  0.114525  1.005194
    Cu  Cu4   0.017936  0.460071  0.113958  1.046692
    Cu  Cu5   0.457185  0.022359  0.886605  1.028345
    Cu  Cu6   0.551868  0.022188  0.884698  1.022761
    Cu  Cu7   0.522598  0.546139  0.982864  0.997249
    Cu  Cu8   0.509046  0.538280  0.017981  1.001314
    Cu  Cu9   0.527863  0.495601  0.481835  1.003720
    Cu  Cu10  0.002813  0.552459  0.386901  1.019261
    Cu  Cu11  0.999777  0.457786  0.384682  1.032960
    Cu  Cu12  0.577599  0.005259  0.613263  1.024647
    Cu  Cu13  0.483236  0.010713  0.614782  1.025414
    Cu  Cu14  0.510037  0.571324  0.251516  1.028127
    Cu  Cu15  0.511791  0.476735  0.248773  1.029278
    Cu  Cu16  0.577565  0.516264  0.749477  1.030964
    H   H1    0.111919  0.572971  0.430110  0.132259
    H   H2    0.754590  0.557081  0.492004  0.069670
    H   H3    0.684857  0.596130  0.993603  0.122973
    H   H4    0.906574  0.429340  0.076253  0.115028
    H   H5    0.723753  0.469834  0.036345  0.103285
    H   H6    0.842239  0.427163  0.054490  0.136993
    H   H7    0.644627  0.472092  0.024495  0.131681
    H   H8    0.365944  0.465113  0.999882  0.152244
    H   H9    0.284973  0.462705  0.012576  0.067374
    H   H10   0.186257  0.428635  0.047696  0.139338
    H   H11   0.126140  0.429134  0.072376  0.108181
    H   H12   0.364941  0.618387  0.996991  0.123641
    H   H13   0.848846  0.583450  0.455955  0.139606
    H   H14   0.182261  0.583149  0.045484  0.074840
    H   H15   0.282775  0.617422  0.010091  0.137838
    H   H16   0.123162  0.583416  0.069942  0.131188
    H   H17   0.446591  0.693689  0.001754  0.162428
    H   H18   0.450208  0.772891  0.988776  0.067608
    H   H19   0.421773  0.865274  0.953336  0.140230
    H   H20   0.424824  0.921630  0.928535  0.111421
    H   H21   0.600182  0.692130  0.002285  0.118168
    H   H22   0.576731  0.869236  0.953959  0.072834
    H   H23   0.605264  0.772376  0.989008  0.138282
    H   H24   0.905113  0.580968  0.430315  0.113059
    H   H25   0.579593  0.925016  0.929263  0.132549
    H   H26   0.576120  0.402838  0.976291  0.129324
    H   H27   0.570183  0.322522  0.964163  0.095410
    H   H28   0.598964  0.201065  0.943568  0.136348
    H   H29   0.590997  0.134658  0.921795  0.115525
    H   H30   0.446055  0.380350  0.007607  0.122717
    H   H31   0.445235  0.198856  0.951948  0.083364
    H   H32   0.437983  0.297502  0.994972  0.147397
    H   H33   0.437140  0.132738  0.930039  0.136141
    H   H34   0.657300  0.410391  0.506530  0.117350
    H   H35   0.840929  0.428632  0.456230  0.077160
    H   H36   0.738636  0.402317  0.493395  0.141358
    H   H37   0.897139  0.426131  0.430548  0.132333
    H   H38   0.586639  0.342828  0.498128  0.162154
    H   H39   0.585885  0.263328  0.511274  0.076779
    H   H40   0.618539  0.168609  0.547585  0.139084
    H   H41   0.179580  0.564913  0.450090  0.101528
    H   H42   0.615242  0.110165  0.571879  0.110273
    H   H43   0.433196  0.345328  0.503407  0.105520
    H   H44   0.463344  0.164423  0.547003  0.073285
    H   H45   0.431245  0.264707  0.516329  0.143788
    H   H46   0.460549  0.107374  0.570946  0.130626
    H   H47   0.451970  0.637890  0.516562  0.156546
    H   H48   0.456573  0.718579  0.528621  0.069629
    H   H49   0.432348  0.834252  0.554246  0.139581
    H   H50   0.440735  0.898713  0.576935  0.111981
    H   H51   0.593107  0.654254  0.492630  0.124626
    H   H52   0.269675  0.550507  0.497113  0.157462
    H   H53   0.586283  0.835377  0.546302  0.079721
    H   H54   0.599953  0.736989  0.505351  0.140100
    H   H55   0.594596  0.899165  0.568990  0.133086
    H   H56   0.630593  0.450049  0.284891  0.122761
    H   H57   0.701218  0.453829  0.303314  0.066833
    H   H58   0.818354  0.426773  0.327530  0.148476
    H   H59   0.890744  0.429814  0.345526  0.111530
    H   H60   0.612907  0.601970  0.293292  0.103971
    H   H61   0.804323  0.579390  0.336024  0.069386
    H   H62   0.684290  0.606124  0.311937  0.144347
    H   H63   0.350897  0.541669  0.509261  0.123312
    H   H64   0.876390  0.582223  0.353883  0.134873
    H   H65   0.125490  0.436339  0.347799  0.130077
    H   H66   0.199608  0.443844  0.329881  0.071069
    H   H67   0.323850  0.424243  0.304742  0.153440
    H   H68   0.399322  0.433873  0.287274  0.103742
    H   H69   0.108199  0.589130  0.345461  0.104612
    H   H70   0.306536  0.577561  0.303888  0.066678
    H   H71   0.182708  0.596898  0.327420  0.149054
    H   H72   0.381263  0.586769  0.286645  0.137097
    H   H73   0.457704  0.636881  0.715231  0.129764
    H   H74   0.113600  0.421151  0.417583  0.117712
    H   H75   0.462299  0.708961  0.697344  0.068096
    H   H76   0.437852  0.829407  0.672740  0.150752
    H   H77   0.444468  0.902072  0.654614  0.108365
    H   H78   0.610772  0.622702  0.708924  0.103222
    H   H79   0.591243  0.813996  0.667074  0.068302
    H   H80   0.615625  0.695302  0.690853  0.146725
    H   H81   0.597420  0.885697  0.649239  0.133097
    H   H82   0.603472  0.392488  0.713169  0.129683
    H   H83   0.599732  0.318640  0.695215  0.064875
    H   H84   0.625719  0.196862  0.669021  0.149260
    H   H85   0.310839  0.463477  0.450819  0.144466
    H   H86   0.619161  0.121804  0.651128  0.112181
    H   H87   0.449971  0.403572  0.710301  0.101471
    H   H88   0.471478  0.207786  0.668409  0.074418
    H   H89   0.445975  0.329096  0.692165  0.149120
    H   H90   0.465414  0.133950  0.650861  0.135413
    H   H91   0.632270  0.456881  0.211737  0.134020
    H   H92   0.706604  0.460419  0.194319  0.072089
    H   H93   0.827501  0.429728  0.171110  0.149606
    H   H94   0.902470  0.430689  0.153096  0.108768
    H   H95   0.631216  0.611442  0.214753  0.105014
    H   H96   0.181474  0.413533  0.437212  0.139215
    H   H97   0.826214  0.584377  0.169426  0.065564
    H   H98   0.706875  0.615452  0.196962  0.147453
    H   H99   0.900529  0.585120  0.151577  0.136195
    H   H100  0.145455  0.581802  0.149863  0.134237
    H   H101  0.217515  0.578589  0.167409  0.069093
    H   H102  0.336580  0.606979  0.192615  0.146868
    H   H103  0.408463  0.603634  0.210790  0.095912
    H   H104  0.125926  0.427952  0.152298  0.112182
    H   H105  0.319625  0.452519  0.194181  0.064707
    H   H106  0.198610  0.424427  0.170024  0.149809
    H   H107  0.389280  0.455827  0.462730  0.109620
    H   H108  0.390952  0.449477  0.212166  0.126584
    H   H109  0.580848  0.143343  0.848238  0.133727
    H   H110  0.578927  0.215398  0.830506  0.072500
    H   H111  0.608983  0.336922  0.806740  0.151316
    H   H112  0.606923  0.409874  0.788986  0.100733
    H   H113  0.426584  0.127630  0.846731  0.106384
    H   H114  0.454805  0.319769  0.803648  0.066326
    H   H115  0.424368  0.200269  0.828796  0.148989
    H   H116  0.453035  0.392108  0.786070  0.129633
    H   H117  0.576507  0.901710  0.848290  0.137496
    H   H118  0.674050  0.563474  0.504465  0.147766
    H   H119  0.575337  0.827626  0.830818  0.072520
    H   H120  0.608911  0.708969  0.805965  0.147114
    H   H121  0.608632  0.634192  0.787863  0.102475
    H   H122  0.421744  0.900617  0.849805  0.112758
    H   H123  0.453885  0.706374  0.805845  0.066507
    H   H124  0.420182  0.825219  0.831978  0.148643
    H   H125  0.453892  0.632593  0.788019  0.129033
    H   H126  0.920995  0.583120  0.071330  0.133375
    H   H127  0.857229  0.580851  0.049461  0.086503
    H   H128  0.766643  0.595719  0.005969  0.144762
    N   N1    0.237940  0.514603  0.465841  -0.346318
    N   N2    0.740998  0.535999  0.319324  -0.262662
    N   N3    0.264623  0.491516  0.315217  -0.248212
    N   N4    0.241482  0.529059  0.317609  -0.238273
    N   N5    0.507226  0.772777  0.681282  -0.244664
    N   N6    0.545557  0.750974  0.682741  -0.250661
    N   N7    0.555611  0.252695  0.679887  -0.242094
    N   N8    0.516850  0.273767  0.682422  -0.249857
    N   N9    0.776253  0.503145  0.181458  -0.230834
    N   N10   0.757749  0.543005  0.184597  -0.257871
    N   N11   0.279524  0.535175  0.182218  -0.255723
    N   N12   0.227659  0.481597  0.454745  -0.252798
    N   N13   0.256754  0.496002  0.179835  -0.236221
    N   N14   0.536485  0.279295  0.816278  -0.253478
    N   N15   0.497017  0.256876  0.818566  -0.242978
    N   N16   0.534490  0.758172  0.817105  -0.250693
    N   N17   0.494163  0.775697  0.820282  -0.240719
    N   N18   0.796643  0.537163  0.030862  -0.323859
    N   N19   0.804274  0.499841  0.039303  -0.230903
    N   N20   0.226127  0.502993  0.031304  -0.217504
    N   N21   0.236714  0.542737  0.024373  -0.285308
    N   N22   0.494122  0.827703  0.969082  -0.219733
    N   N23   0.805416  0.511330  0.472043  -0.205377
    N   N24   0.533452  0.817779  0.975666  -0.286236
    N   N25   0.530527  0.246228  0.960490  -0.216251
    N   N26   0.494300  0.258301  0.969613  -0.322976
    N   N27   0.791945  0.472338  0.478960  -0.300110
    N   N28   0.545513  0.207565  0.532271  -0.252935
    N   N29   0.505413  0.218056  0.526487  -0.262129
    N   N30   0.500851  0.789959  0.536760  -0.201010
    N   N31   0.537684  0.778131  0.527938  -0.310481
    N   N32   0.762929  0.497597  0.320243  -0.231204
    O   O1    0.511744  0.563528  0.515756  -0.613376
    O   O2    0.948567  0.465498  0.367441  -0.624803
    O   O3    0.051864  0.548871  0.367523  -0.616033
    O   O4    0.051152  0.466454  0.365839  -0.619601
    O   O5    0.054016  0.544010  0.404552  -0.604993
    O   O6    0.050000  0.461604  0.402438  -0.634087
    O   O7    0.956163  0.544420  0.406763  -0.625283
    O   O8    0.952189  0.461962  0.404994  -0.615610
    O   O9    0.576881  0.058132  0.631478  -0.625082
    O   O10   0.494790  0.063436  0.632419  -0.615460
    O   O11   0.575190  0.053209  0.594247  -0.633268
    O   O12   0.529635  0.566901  0.485465  -0.671735
    O   O13   0.492885  0.056939  0.595231  -0.607915
    O   O14   0.566193  0.955553  0.594398  -0.600985
    O   O15   0.483957  0.959533  0.596207  -0.626743
    O   O16   0.567502  0.955273  0.631617  -0.617089
    O   O17   0.485478  0.961056  0.633264  -0.623872
    O   O18   0.564092  0.570274  0.233626  -0.615748
    O   O19   0.563944  0.488048  0.230802  -0.612339
    O   O20   0.557299  0.564989  0.270448  -0.613501
    O   O21   0.561024  0.482982  0.267552  -0.609885
    O   O22   0.455988  0.559408  0.268939  -0.613690
    O   O23   0.577819  0.489728  0.519021  -0.692258
    O   O24   0.459756  0.477248  0.267200  -0.611176
    O   O25   0.463075  0.565874  0.232248  -0.605456
    O   O26   0.462109  0.483476  0.230433  -0.618987
    O   O27   0.571948  0.568361  0.767857  -0.615913
    O   O28   0.489454  0.565819  0.768976  -0.610646
    O   O29   0.572459  0.565104  0.730930  -0.615878
    O   O30   0.490050  0.565829  0.732173  -0.612979
    O   O31   0.570402  0.463771  0.731267  -0.611994
    O   O32   0.487991  0.464405  0.731454  -0.610025
    O   O33   0.570659  0.467192  0.768073  -0.611399
    O   O34   0.594113  0.495131  0.488679  -0.600864
    O   O35   0.488179  0.463951  0.768367  -0.621503
    O   O36   0.972805  0.548950  0.095833  -0.597034
    O   O37   0.969516  0.466425  0.095575  -0.638109
    O   O38   0.070378  0.548321  0.094956  -0.600616
    O   O39   0.067373  0.465783  0.094607  -0.635724
    O   O40   0.073060  0.548126  0.132289  -0.618338
    O   O41   0.068678  0.465673  0.131844  -0.625434
    O   O42   0.969629  0.549258  0.133016  -0.612301
    O   O43   0.966630  0.466778  0.132555  -0.623973
    O   O44   0.466667  0.073947  0.905044  -0.607484
    O   O45   0.500646  0.424948  0.513325  -0.618430
    O   O46   0.549081  0.073164  0.903149  -0.621301
    O   O47   0.462918  0.976154  0.905896  -0.632721
    O   O48   0.545390  0.975688  0.904455  -0.611196
    O   O49   0.460454  0.968581  0.868745  -0.626801
    O   O50   0.542873  0.968999  0.867135  -0.614361
    O   O51   0.463449  0.071117  0.867865  -0.620247
    O   O52   0.545898  0.071948  0.866257  -0.619259
    O   O53   0.522586  0.476481  0.982528  -0.625946
    O   O54   0.503509  0.467918  0.012542  -0.659283
    O   O55   0.592274  0.546719  0.988432  -0.658175
    O   O56   0.525486  0.424176  0.483619  -0.668561
    O   O57   0.578258  0.532844  0.018471  -0.637469
    O   O58   0.523488  0.614750  0.987347  -0.609404
    O   O59   0.515193  0.610068  0.018081  -0.678794
    O   O60   0.450696  0.544687  0.982611  -0.685233
    O   O61   0.441340  0.541405  0.013352  -0.610365
    O   O62   0.438863  0.498551  0.509080  -0.641098
    O   O63   0.458701  0.494498  0.478948  -0.638899
    O   O64   0.949333  0.547813  0.369664  -0.614759
