# Generated by REPEAT Assigner based on pymatgen
data_DB0-m3_o17_o44_f0_fsc.sym.14_sqe
_audit_creation_date              2022-05-24
_audit_creation_method            REPEAT_Assigner
_cell_length_a                    8.605177
_cell_length_b                    13.444135
_cell_length_c                    13.388099
_cell_angle_alpha                 90.000000
_cell_angle_beta                  90.000000
_cell_angle_gamma                 90.000000
_cell_volume                      1548.857978
_symmetry_space_group_name_H-M    P1
_symmetry_Int_Tables_number       1
loop_
    _symmetry_equiv_pos_site_id
    _symmetry_equiv_pos_as_xyz
    1  x,y,z
loop_
    _atom_site_type_symbol
    _atom_site_label
    _atom_site_fract_x
    _atom_site_fract_y
    _atom_site_fract_z
    _atom_type_partial_charge
    C   C1   0.857191  0.016981  0.305062  0.207468
    C   C2   0.142833  0.982223  0.696651  -0.090580
    C   C3   0.135616  0.019029  0.308215  0.028928
    C   C4   0.864453  0.980134  0.693741  -0.139162
    C   C5   0.859278  0.004457  0.203054  -0.399715
    C   C6   0.140962  0.994873  0.798649  -0.296900
    C   C7   0.138264  0.006433  0.205824  -0.346917
    C   C8   0.861983  0.992830  0.796116  -0.302647
    H   H1   0.751611  0.996993  0.162138  0.172743
    H   H2   0.248713  0.002379  0.839464  0.149142
    H   H3   0.247893  0.000165  0.166906  0.160667
    H   H4   0.752423  0.999132  0.835111  0.155044
    C   C9   0.999735  0.003925  0.153026  0.376030
    C   C10  0.000607  0.995413  0.848800  0.376488
    Zn  Zn1  0.499163  0.887322  0.489418  0.995623
    Zn  Zn2  0.501059  0.111892  0.512449  1.036603
    C   C11  0.638154  0.396766  0.498670  0.240399
    C   C12  0.362912  0.603264  0.505124  0.172200
    C   C13  0.634459  0.602509  0.477842  0.201362
    C   C14  0.366983  0.397472  0.526824  0.111700
    C   C15  0.501604  0.448722  0.507560  0.034365
    C   C16  0.499664  0.551303  0.496958  -0.014781
    C   C17  0.994862  0.030176  0.355768  -0.065706
    C   C18  0.005087  0.968935  0.646084  0.075421
    C   C19  0.000579  0.000534  0.045905  -0.142333
    C   C20  0.999924  0.998843  0.955919  -0.205618
    C   C21  0.369173  0.294306  0.533112  -0.188418
    C   C22  0.632340  0.705472  0.471097  -0.165867
    C   C23  0.362229  0.705871  0.492539  -0.249575
    C   C24  0.638420  0.293845  0.508520  -0.203022
    C   C25  0.774036  0.448645  0.479515  -0.300349
    C   C26  0.227737  0.551906  0.526909  -0.168651
    C   C27  0.771972  0.550250  0.468688  -0.193430
    C   C28  0.229906  0.450103  0.538136  -0.112471
    H   H5   0.992144  0.043784  0.434767  0.085953
    H   H6   0.007644  0.955249  0.567096  0.047457
    N   N1   0.503911  0.242700  0.523202  0.082021
    N   N2   0.496947  0.756642  0.478767  0.114262
    O   O1   0.662296  0.092170  0.405027  -0.556745
    O   O2   0.336848  0.906673  0.596248  -0.744316
    O   O3   0.331486  0.923966  0.390776  -0.679294
    O   O4   0.669017  0.075155  0.610856  -0.749034
    O   O5   0.670057  0.904573  0.591094  -0.762854
    O   O6   0.329614  0.094758  0.411129  -0.707584
    O   O7   0.339338  0.077231  0.615802  -0.715251
    O   O8   0.660953  0.922012  0.386135  -0.550732
    C   C29  0.713681  0.010653  0.363101  0.549315
    C   C30  0.286197  0.988413  0.638472  0.885221
    C   C31  0.276877  0.012891  0.369451  0.804211
    C   C32  0.723159  0.986322  0.632582  0.954654
    H   H7   0.885228  0.412728  0.472578  0.249939
    H   H8   0.118303  0.589410  0.537449  0.083662
    H   H9   0.880858  0.586482  0.452732  0.192759
    H   H10  0.122095  0.413868  0.556988  0.064689
    C   C33  0.221288  0.242184  0.543315  0.543987
    H   H11  0.176011  0.225786  0.617082  -0.028685
    O   O9   0.137820  0.231970  0.470644  -0.352270
    C   C34  0.779875  0.757716  0.457413  0.382114
    H   H12  0.847240  0.780764  0.521704  0.012128
    O   O10  0.837656  0.762516  0.374379  -0.352426
    C   C35  0.213021  0.758087  0.493898  0.684749
    H   H13  0.150753  0.766400  0.563829  -0.084516
    O   O11  0.146467  0.776159  0.415621  -0.404631
    C   C36  0.785901  0.241533  0.495609  0.450101
    H   H14  0.841663  0.204753  0.557905  -0.000996
    O   O12  0.850223  0.243427  0.414446  -0.405932
