# generated using pymatgen
data_FeH12C18(NO)8
_symmetry_space_group_name_H-M   'P 1'
_cell_length_a   15.97524400
_cell_length_b   16.94748600
_cell_length_c   11.54454700
_cell_angle_alpha   71.37400800
_cell_angle_beta   96.89865200
_cell_angle_gamma   98.17625100
_symmetry_Int_Tables_number   1
_chemical_formula_structural   FeH12C18(NO)8
_chemical_formula_sum   'Fe2 H24 C36 N16 O16'
_cell_volume   2922.45106189
_cell_formula_units_Z   2
loop_
 _symmetry_equiv_pos_site_id
 _symmetry_equiv_pos_as_xyz
  1  'x, y, z'
loop_
 _atom_site_type_symbol
 _atom_site_label
 _atom_site_symmetry_multiplicity
 _atom_site_fract_x
 _atom_site_fract_y
 _atom_site_fract_z
 _atom_site_occupancy
  Fe  Fe1  1  0.50595100  0.00151900  0.74944900  1
  Fe  Fe2  1  0.49431200  0.99822400  0.25103100  1
  H  H1  1  0.20567600  0.96292900  0.67545200  1
  H  H2  1  0.20891500  0.06901500  0.62796000  1
  H  H3  1  0.55427600  0.47156900  0.16199600  1
  H  H4  1  0.44609200  0.46716400  0.14478900  1
  H  H5  1  0.54411200  0.36210900  0.08164900  1
  H  H6  1  0.43573900  0.35458500  0.07013400  1
  H  H7  1  0.53882400  0.28578600  0.65963500  1
  H  H8  1  0.43211500  0.29421600  0.63132900  1
  H  H9  1  0.02979600  0.94834800  0.78469300  1
  H  H10  1  0.03362000  0.05475400  0.73424900  1
  H  H11  1  0.18960200  0.96028400  0.22569800  1
  H  H12  1  0.18614200  0.06762800  0.17633100  1
  H  H13  1  0.81056700  0.03942000  0.77468100  1
  H  H14  1  0.81402900  0.93207400  0.82409000  1
  H  H15  1  0.79463600  0.03689400  0.32492300  1
  H  H16  1  0.79140600  0.93081400  0.37239300  1
  H  H17  1  0.96660000  0.94507300  0.26612700  1
  H  H18  1  0.97047600  0.05148700  0.21555600  1
  H  H19  1  0.46115500  0.71392700  0.34097400  1
  H  H20  1  0.56783000  0.70532600  0.36929200  1
  H  H21  1  0.55375300  0.53253300  0.85581500  1
  H  H22  1  0.44557200  0.52819400  0.83863600  1
  H  H23  1  0.56410900  0.64513200  0.93046200  1
  H  H24  1  0.45574300  0.63771400  0.91887500  1
  C  C1  1  0.21934900  0.01560700  0.81107200  1
  C  C2  1  0.13702600  0.00977500  0.83956700  1
  C  C3  1  0.12151100  0.00961500  0.95437100  1
  C  C4  1  0.18747400  0.01506100  0.04110300  1
  C  C5  1  0.27198100  0.02136200  0.01366500  1
  C  C6  1  0.28669900  0.02173600  0.89625400  1
  C  C7  1  0.03596000  0.00278200  0.98658000  1
  C  C8  1  0.96426000  0.99704000  0.01374500  1
  C  C9  1  0.81273500  0.98468900  0.95928100  1
  C  C10  1  0.72823400  0.97840000  0.98674100  1
  C  C11  1  0.71354000  0.97807200  0.10414100  1
  C  C12  1  0.78090500  0.98422200  0.18929400  1
  C  C13  1  0.86321600  0.99005700  0.16076500  1
  C  C14  1  0.87871200  0.99018600  0.04597400  1
  C  C15  1  0.47707000  0.13063100  0.53864400  1
  C  C16  1  0.37206300  0.02969600  0.85620100  1
  C  C17  1  0.65651400  0.97727000  0.89185300  1
  C  C18  1  0.50975600  0.84458000  0.72725500  1
  C  C19  1  0.49032900  0.15518300  0.27327800  1
  C  C20  1  0.34369000  0.02247200  0.10857200  1
  C  C21  1  0.62818500  0.97010700  0.14422400  1
  C  C22  1  0.52305900  0.86905800  0.46188800  1
  C  C23  1  0.51557100  0.78599300  0.55323100  1
  C  C24  1  0.51130000  0.71876700  0.50884300  1
  C  C25  1  0.50637600  0.63761200  0.58790600  1
  C  C26  1  0.50683100  0.62418400  0.71237100  1
  C  C27  1  0.51005400  0.69128700  0.75812100  1
  C  C28  1  0.51295700  0.77340500  0.67866500  1
  C  C29  1  0.49696000  0.43419400  0.45860900  1
  C  C30  1  0.50294100  0.56548900  0.54202500  1
  C  C31  1  0.49305100  0.37553300  0.28822900  1
  C  C32  1  0.48987000  0.30845200  0.24244800  1
  C  C33  1  0.48706400  0.22633100  0.32188900  1
  C  C34  1  0.48450700  0.21371400  0.44733600  1
  C  C35  1  0.48871800  0.28091800  0.49175400  1
  C  C36  1  0.49354600  0.36208200  0.41270600  1
  N  N1  1  0.55663800  0.50700200  0.59261300  1
  N  N2  1  0.55371900  0.44225600  0.55131600  1
  N  N3  1  0.44327200  0.49268800  0.40800600  1
  N  N4  1  0.44619200  0.55743500  0.44930300  1
  N  N5  1  0.23554400  0.01791900  0.69122700  1
  N  N6  1  0.49918200  0.45964300  0.20789300  1
  N  N7  1  0.48885100  0.32433300  0.11317500  1
  N  N8  1  0.48178700  0.26420100  0.61971000  1
  N  N9  1  0.06855900  0.00420300  0.75002800  1
  N  N10  1  0.16486700  0.01103900  0.15891700  1
  N  N11  1  0.83531400  0.98867400  0.84147000  1
  N  N12  1  0.76474800  0.98190600  0.30915700  1
  N  N13  1  0.93169300  0.99565400  0.25027600  1
  N  N14  1  0.51823100  0.73544100  0.38089300  1
  N  N15  1  0.50065500  0.54008000  0.79272600  1
  N  N16  1  0.51103700  0.67543400  0.88738000  1
  O  O1  1  0.53738100  0.11085800  0.62720700  1
  O  O2  1  0.42476600  0.09731600  0.85179500  1
  O  O3  1  0.40631800  0.08036100  0.54077700  1
  O  O4  1  0.39299000  0.97166600  0.81549100  1
  O  O5  1  0.58195700  0.99735100  0.90238000  1
  O  O6  1  0.66729000  0.96019800  0.79203100  1
  O  O7  1  0.51535900  0.92244900  0.65530200  1
  O  O8  1  0.49815700  0.83093400  0.84292400  1
  O  O9  1  0.48483200  0.07731300  0.34522800  1
  O  O10  1  0.50190500  0.16886000  0.15759600  1
  O  O11  1  0.41824800  0.00239000  0.09804400  1
  O  O12  1  0.33290100  0.03951900  0.20841000  1
  O  O13  1  0.59384400  0.91928600  0.45973100  1
  O  O14  1  0.60727400  0.02811400  0.18499600  1
  O  O15  1  0.46275500  0.88885700  0.37332300  1
  O  O16  1  0.57547500  0.90249300  0.14861500  1
