# generated using pymatgen
data_Zn2H25C53N6O8F3
_symmetry_space_group_name_H-M   'P 1'
_cell_length_a   11.93411500
_cell_length_b   13.55639400
_cell_length_c   16.36965700
_cell_angle_alpha   90.00823600
_cell_angle_beta   85.46036700
_cell_angle_gamma   106.91577100
_symmetry_Int_Tables_number   1
_chemical_formula_structural   Zn2H25C53N6O8F3
_chemical_formula_sum   'Zn2 H25 C53 N6 O8 F3'
_cell_volume   2525.08093947
_cell_formula_units_Z   1
loop_
 _symmetry_equiv_pos_site_id
 _symmetry_equiv_pos_as_xyz
  1  'x, y, z'
loop_
 _atom_site_type_symbol
 _atom_site_label
 _atom_site_symmetry_multiplicity
 _atom_site_fract_x
 _atom_site_fract_y
 _atom_site_fract_z
 _atom_site_occupancy
  Zn  Zn1  1  0.12968500  0.53719200  0.49614500  1
  Zn  Zn2  1  0.86837400  0.45894300  0.50360100  1
  H  H1  1  0.95780800  0.66565400  0.00869100  1
  H  H2  1  0.01646100  0.00627500  0.71834400  1
  H  H3  1  0.04730800  0.33782200  0.99095800  1
  H  H4  1  0.95382900  0.99549200  0.27969300  1
  H  H5  1  0.02718800  0.95214500  0.95401800  1
  H  H6  1  0.96242400  0.04882600  0.04418600  1
  H  H7  1  0.11626300  0.41746000  0.10773300  1
  H  H8  1  0.95315500  0.16289300  0.33638200  1
  H  H9  1  0.95322800  0.53348800  0.26414300  1
  H  H10  1  0.94287300  0.58456600  0.12484200  1
  H  H11  1  0.88783500  0.58302600  0.89224900  1
  H  H12  1  0.03579100  0.83659600  0.66122500  1
  H  H13  1  0.98684200  0.15794300  0.65761600  1
  H  H14  1  0.04503100  0.46797200  0.73496700  1
  H  H15  1  0.05906200  0.41946800  0.87489500  1
  H  H16  1  0.11274500  0.47409300  0.24882600  1
  H  H17  1  0.88768600  0.52523000  0.75135200  1
  H  H18  1  0.70334100  0.26293000  0.50655800  1
  H  H19  1  0.31452900  0.24860700  0.49405400  1
  H  H20  1  0.49054700  0.20873700  0.50226800  1
  H  H21  1  0.71101600  0.57304300  0.50562700  1
  H  H22  1  0.28657000  0.72968400  0.49422700  1
  H  H23  1  0.61731300  0.68032600  0.50143300  1
  H  H24  1  0.49889800  0.79468000  0.49759900  1
  H  H25  1  0.20637600  0.36381000  0.48777700  1
  C  C1  1  0.97973900  0.81474200  0.21691900  1
  C  C2  1  0.96870100  0.74368900  0.15613200  1
  C  C3  1  0.96510600  0.79166300  0.08289600  1
  C  C4  1  0.97277800  0.90504000  0.17824600  1
  C  C5  1  0.96150000  0.74600900  0.00962800  1
  C  C6  1  0.97026800  0.79489700  0.92764500  1
  C  C7  1  0.95974300  0.74234500  0.85525600  1
  C  C8  1  0.99062700  0.81297400  0.79193300  1
  C  C9  1  0.01196400  0.90963400  0.82763200  1
  C  C10  1  0.02040400  0.00846500  0.78420200  1
  C  C11  1  0.02293000  0.09750800  0.82191500  1
  C  C12  1  0.01971900  0.18865200  0.78458600  1
  C  C13  1  0.03258200  0.25982600  0.84462600  1
  C  C14  1  0.03648700  0.21132400  0.91716700  1
  C  C15  1  0.04098200  0.25691300  0.98996600  1
  C  C16  1  0.02775000  0.20637400  0.07109200  1
  C  C17  1  0.03796900  0.25827300  0.14356900  1
  C  C18  1  0.00144800  0.18724100  0.20615800  1
  C  C19  1  0.97649300  0.09098300  0.17009000  1
  C  C20  1  0.96357600  0.99236400  0.21413300  1
  C  C21  1  0.07999100  0.36164100  0.15706000  1
  C  C22  1  0.07739500  0.39313900  0.23683700  1
  C  C23  1  0.02386800  0.32410800  0.30087900  1
  C  C24  1  0.98975800  0.21818100  0.28668300  1
  C  C25  1  0.00352600  0.78903000  0.29591200  1
  C  C26  1  0.99794100  0.68539700  0.31018900  1
  C  C27  1  0.96830700  0.61395200  0.24955800  1
  C  C28  1  0.96013000  0.64257200  0.17105800  1
  C  C29  1  0.92101000  0.63862400  0.84238900  1
  C  C30  1  0.92215800  0.60640300  0.76269200  1
  C  C31  1  0.97306100  0.67494000  0.69779700  1
  C  C32  1  0.00247100  0.78130000  0.71134300  1
  C  C33  1  0.00095700  0.21374600  0.70573100  1
  C  C34  1  0.00112500  0.31500500  0.69091200  1
  C  C35  1  0.03007500  0.38789900  0.75062800  1
  C  C36  1  0.04105700  0.36086100  0.82915800  1
  C  C37  1  0.00986400  0.37010100  0.38115800  1
  C  C38  1  0.00440900  0.63820700  0.38900000  1
  C  C39  1  0.98770400  0.62750500  0.61764100  1
  C  C40  1  0.99338400  0.35783100  0.61108100  1
  C  C41  1  0.53727700  0.28998700  0.50329900  1
  C  C42  1  0.33749100  0.67559800  0.49445500  1
  C  C43  1  0.45723500  0.71245600  0.49671100  1
  C  C44  1  0.52442400  0.64571000  0.49899300  1
  C  C45  1  0.47160600  0.53980500  0.49830600  1
  C  C46  1  0.34957300  0.50518800  0.49448300  1
  C  C47  1  0.53645000  0.46725500  0.50143100  1
  C  C48  1  0.47810300  0.36304500  0.50043400  1
  C  C49  1  0.35992000  0.33009800  0.49560500  1
  C  C50  1  0.29724500  0.39917900  0.49221700  1
  C  C51  1  0.65814100  0.49408600  0.50507300  1
  C  C52  1  0.65650900  0.32016400  0.50600800  1
  C  C53  1  0.04035300  0.86835900  0.36091900  1
  N  N1  1  0.96732100  0.89009900  0.09652300  1
  N  N2  1  0.00421900  0.89665700  0.91034500  1
  N  N3  1  0.03127100  0.11210900  0.90339600  1
  N  N4  1  0.98803900  0.10442000  0.08756600  1
  N  N5  1  0.71468000  0.42087600  0.50661000  1
  N  N6  1  0.28401600  0.57354800  0.49326000  1
  O  O1  1  0.90470500  0.36981400  0.41238200  1
  O  O2  1  0.10509900  0.43240300  0.40700200  1
  O  O3  1  0.10781700  0.63600400  0.41094000  1
  O  O4  1  0.90497600  0.57523500  0.42012400  1
  O  O5  1  0.09374600  0.62768100  0.58660700  1
  O  O6  1  0.89167600  0.56587100  0.59114200  1
  O  O7  1  0.89085800  0.36129600  0.58957200  1
  O  O8  1  0.09129200  0.42150500  0.58019500  1
  F  F1  1  0.12096500  0.95607800  0.32617900  1
  F  F2  1  0.09444700  0.83406400  0.42181200  1
  F  F3  1  0.94277300  0.89183800  0.39691000  1
