# generated using pymatgen
data_ZnH17C21NO7
_symmetry_space_group_name_H-M   'P 1'
_cell_length_a   15.05242900
_cell_length_b   8.50817700
_cell_length_c   13.39646300
_cell_angle_alpha   90.00000000
_cell_angle_beta   98.28287800
_cell_angle_gamma   90.00000000
_symmetry_Int_Tables_number   1
_chemical_formula_structural   ZnH17C21NO7
_chemical_formula_sum   'Zn2 H34 C42 N2 O14'
_cell_volume   1697.77167309
_cell_formula_units_Z   2
loop_
 _symmetry_equiv_pos_site_id
 _symmetry_equiv_pos_as_xyz
  1  'x, y, z'
loop_
 _atom_site_type_symbol
 _atom_site_label
 _atom_site_symmetry_multiplicity
 _atom_site_fract_x
 _atom_site_fract_y
 _atom_site_fract_z
 _atom_site_occupancy
  Zn  Zn1  1  0.50228600  0.49708700  0.88824500  1
  Zn  Zn2  1  0.49669100  0.49682100  0.10984500  1
  H  H1  1  0.56586800  0.99783400  0.05315300  1
  H  H2  1  0.43399400  0.99484400  0.94768500  1
  H  H3  1  0.11319400  0.97518800  0.14539700  1
  H  H4  1  0.88441200  0.02458000  0.84615600  1
  H  H5  1  0.46011100  0.73718400  0.24454000  1
  H  H6  1  0.53886600  0.25691900  0.75348500  1
  H  H7  1  0.48396900  0.74141600  0.74653300  1
  H  H8  1  0.51490900  0.25265700  0.25160400  1
  H  H9  1  0.36814800  0.75399600  0.44265100  1
  H  H10  1  0.63045600  0.23998900  0.55531700  1
  H  H11  1  0.55811300  0.82770800  0.54587400  1
  H  H12  1  0.44054600  0.16625600  0.45192100  1
  H  H13  1  0.45267600  0.87742000  0.58762900  1
  H  H14  1  0.54610900  0.11680800  0.41031300  1
  H  H15  1  0.45075400  0.87860500  0.39745400  1
  H  H16  1  0.54781800  0.11541900  0.60046900  1
  H  H17  1  0.87846800  0.71519500  0.98400900  1
  H  H18  1  0.77109400  0.62201400  0.96629900  1
  H  H19  1  0.77564400  0.63639400  0.13839700  1
  H  H20  1  0.11681300  0.28253600  0.99801400  1
  H  H21  1  0.20275200  0.37277700  0.93748100  1
  H  H22  1  0.22017800  0.26755800  0.14023600  1
  H  H23  1  0.11657600  0.71545300  0.00483500  1
  H  H24  1  0.22383700  0.62208400  0.02814400  1
  H  H25  1  0.12292100  0.71125700  0.84152600  1
  H  H26  1  0.88190300  0.28120400  0.99387300  1
  H  H27  1  0.79704400  0.37267600  0.05552100  1
  H  H28  1  0.76733200  0.25855700  0.85548000  1
  H  H29  1  0.00432900  0.97216400  0.25113800  1
  H  H30  1  0.90189200  0.87552900  0.19828000  1
  H  H31  1  0.94233700  0.19128900  0.23764600  1
  H  H32  1  0.01371600  0.14211500  0.76202700  1
  H  H33  1  0.01906900  0.93213000  0.74917300  1
  H  H34  1  0.14987100  0.15841000  0.78722000  1
  C  C1  1  0.67874700  0.85655600  0.03414800  1
  C  C2  1  0.32116700  0.13664200  0.96569400  1
  C  C3  1  0.31986800  0.85528700  0.96419700  1
  C  C4  1  0.67856400  0.13801700  0.03218500  1
  C  C5  1  0.76849500  0.85571200  0.02238400  1
  C  C6  1  0.23232600  0.13791800  0.98011000  1
  C  C7  1  0.22988400  0.85576800  0.97458200  1
  C  C8  1  0.76665800  0.13785900  0.01491300  1
  C  C9  1  0.81345900  0.99717600  0.01595600  1
  C  C10  1  0.18521000  0.99764900  0.97952400  1
  C  C11  1  0.63592900  0.99755600  0.04425200  1
  C  C12  1  0.36363800  0.99559300  0.95521700  1
  C  C13  1  0.97275600  0.98602000  0.09015400  1
  C  C14  1  0.02461300  0.01519100  0.90062100  1
  C  C15  1  0.06259300  0.98511800  0.07971000  1
  C  C16  1  0.93488700  0.01331600  0.91185400  1
  C  C17  1  0.08905100  0.99913100  0.98567800  1
  C  C18  1  0.90885900  0.99766700  0.00579800  1
  C  C19  1  0.62395700  0.71325100  0.02315000  1
  C  C20  1  0.37538000  0.28027500  0.97546600  1
  C  C21  1  0.37382500  0.71114200  0.97483700  1
  C  C22  1  0.62472700  0.28217500  0.02272400  1
  C  C23  1  0.50631900  0.36068800  0.29155700  1
  C  C24  1  0.49250700  0.63339200  0.70652200  1
  C  C25  1  0.52340700  0.36343200  0.71059500  1
  C  C26  1  0.47546400  0.63064100  0.28744000  1
  C  C27  1  0.47542500  0.63156800  0.39044300  1
  C  C28  1  0.52322300  0.36246300  0.60755900  1
  C  C29  1  0.49067800  0.63566400  0.60323500  1
  C  C30  1  0.50799900  0.35841800  0.39479300  1
  C  C31  1  0.49673200  0.49643700  0.44460400  1
  C  C32  1  0.50183700  0.49759300  0.55341100  1
  C  C33  1  0.44097000  0.77046100  0.44070600  1
  C  C34  1  0.55763900  0.22356600  0.55725500  1
  C  C35  1  0.48823800  0.78799500  0.54797500  1
  C  C36  1  0.51043200  0.20607100  0.44996800  1
  C  C37  1  0.81510600  0.70222100  0.01615700  1
  C  C38  1  0.19019300  0.29142500  0.99825200  1
  C  C39  1  0.18189400  0.70316200  0.97679600  1
  C  C40  1  0.80871500  0.29062200  0.99487300  1
  C  C41  1  0.94468000  0.97986400  0.19221100  1
  C  C42  1  0.04642400  0.03377800  0.79554400  1
  N  N1  1  0.49312000  0.49680700  0.24010400  1
  N  N2  1  0.50584000  0.49726500  0.75797800  1
  O  O1  1  0.59384300  0.65744100  0.10320400  1
  O  O2  1  0.40535200  0.33595500  0.89503500  1
  O  O3  1  0.40427000  0.65607200  0.89481100  1
  O  O4  1  0.59447500  0.33726000  0.10313700  1
  O  O5  1  0.59467500  0.66421300  0.93122700  1
  O  O6  1  0.40427500  0.32988800  0.06707600  1
  O  O7  1  0.40331000  0.66221900  0.06667300  1
  O  O8  1  0.59568800  0.33184400  0.93119500  1
  O  O9  1  0.83397400  0.63739000  0.11246200  1
  O  O10  1  0.22994900  0.35044500  0.09110000  1
  O  O11  1  0.16776600  0.64048800  0.87967700  1
  O  O12  1  0.76776100  0.34870300  0.90227100  1
  O  O13  1  0.89628700  0.11515900  0.20779600  1
  O  O14  1  0.13845500  0.04445700  0.79330100  1
