# generated using pymatgen
data_ZnH20C25NO4
_symmetry_space_group_name_H-M   'P 1'
_cell_length_a   10.76419100
_cell_length_b   14.85201400
_cell_length_c   16.01168900
_cell_angle_alpha   86.03594700
_cell_angle_beta   90.00691500
_cell_angle_gamma   103.34694900
_symmetry_Int_Tables_number   1
_chemical_formula_structural   ZnH20C25NO4
_chemical_formula_sum   'Zn2 H40 C50 N2 O8'
_cell_volume   2484.35825989
_cell_formula_units_Z   2
loop_
 _symmetry_equiv_pos_site_id
 _symmetry_equiv_pos_as_xyz
  1  'x, y, z'
loop_
 _atom_site_type_symbol
 _atom_site_label
 _atom_site_symmetry_multiplicity
 _atom_site_fract_x
 _atom_site_fract_y
 _atom_site_fract_z
 _atom_site_occupancy
  Zn  Zn1  1  0.47476500  0.39600800  0.47139900  1
  Zn  Zn2  1  0.53894300  0.59747600  0.51485300  1
  H  H1  1  0.85759200  0.35452700  0.54422200  1
  H  H2  1  0.88392400  0.43990500  0.62123600  1
  H  H3  1  0.09321900  0.43984600  0.62137000  1
  H  H4  1  0.06526000  0.35445700  0.54436300  1
  H  H5  1  0.87414600  0.40598600  0.39171200  1
  H  H6  1  0.08180400  0.40588900  0.39185100  1
  H  H7  1  0.95122500  0.64570800  0.46589400  1
  H  H8  1  0.93921500  0.60844700  0.57635200  1
  H  H9  1  0.14556700  0.60837300  0.57647600  1
  H  H10  1  0.15757800  0.64563300  0.46601700  1
  H  H11  1  0.91240200  0.52824700  0.35941900  1
  H  H12  1  0.12168200  0.52814400  0.35954400  1
  H  H13  1  0.40247400  0.25293600  0.01117000  1
  H  H14  1  0.49951800  0.44746200  0.20527000  1
  H  H15  1  0.56693400  0.72615700  0.26639400  1
  H  H16  1  0.39892400  0.21917400  0.87046400  1
  H  H17  1  0.42262000  0.26747100  0.72259900  1
  H  H18  1  0.53188500  0.54864000  0.77896500  1
  H  H19  1  0.43346100  0.35622600  0.11729500  1
  H  H20  1  0.52474300  0.63902600  0.86747300  1
  H  H21  1  0.57559600  0.77848300  0.12358600  1
  H  H22  1  0.73970200  0.02067900  0.65221500  1
  H  H23  1  0.55902500  0.23033400  0.52930100  1
  H  H24  1  0.29998500  0.28684400  0.35196500  1
  H  H25  1  0.27409200  0.97284200  0.33392800  1
  H  H26  1  0.76708000  0.86794700  0.67076200  1
  H  H27  1  0.71373200  0.70666300  0.63423100  1
  H  H28  1  0.45467200  0.76316300  0.45690400  1
  H  H29  1  0.64477700  0.13413600  0.58754500  1
  H  H30  1  0.36902800  0.85938700  0.39859200  1
  H  H31  1  0.24668900  0.12557300  0.31539800  1
  H  H32  1  0.50664100  0.81099200  0.99997100  1
  H  H33  1  0.52559400  0.78039600  0.89718300  1
  H  H34  1  0.75257200  0.78444000  0.91543300  1
  H  H35  1  0.74450600  0.81285800  0.02263700  1
  H  H36  1  0.67503800  0.95659100  0.97504000  1
  H  H37  1  0.68415200  0.92826700  0.86741800  1
  H  H38  1  0.90585200  0.96083100  0.99121000  1
  H  H39  1  0.87910100  0.04101600  0.90667800  1
  H  H40  1  0.91501700  0.93222600  0.88353000  1
  C  C1  1  0.48976400  0.44276600  0.65289100  1
  C  C2  1  0.75011800  0.49686400  0.49299900  1
  C  C3  1  0.52362800  0.55082100  0.33338600  1
  C  C4  1  0.26361900  0.49669700  0.49327300  1
  C  C5  1  0.91327700  0.42425400  0.55847200  1
  C  C6  1  0.05403300  0.42420600  0.55856400  1
  C  C7  1  0.92968700  0.47521000  0.40743700  1
  C  C8  1  0.96687800  0.59170200  0.51352700  1
  C  C9  1  0.88900000  0.49697400  0.49309500  1
  C  C10  1  0.12483100  0.49688400  0.49324200  1
  C  C11  1  0.07043800  0.47514700  0.40752700  1
  C  C12  1  0.10736700  0.59165000  0.51361200  1
  C  C13  1  0.47672500  0.41270400  0.74254500  1
  C  C14  1  0.52946800  0.58188700  0.24396900  1
  C  C15  1  0.42676300  0.29236600  0.85138300  1
  C  C16  1  0.44044800  0.31972700  0.76762300  1
  C  C17  1  0.49885000  0.47771400  0.80212200  1
  C  C18  1  0.48168200  0.45110200  0.88768400  1
  C  C19  1  0.44711700  0.35713400  0.91069000  1
  C  C20  1  0.49849700  0.51495500  0.95059500  1
  C  C21  1  0.48803100  0.48311100  0.03509000  1
  C  C22  1  0.45164800  0.38769300  0.05480200  1
  C  C23  1  0.43123800  0.32640700  0.99342500  1
  C  C24  1  0.52196800  0.60999700  0.93072400  1
  C  C25  1  0.53935100  0.67290900  0.99123000  1
  C  C26  1  0.53598000  0.64187000  0.07532900  1
  C  C27  1  0.51112400  0.54706500  0.09783700  1
  C  C28  1  0.55602300  0.70455400  0.13736000  1
  C  C29  1  0.55183000  0.67489800  0.22046200  1
  C  C30  1  0.51105400  0.51865900  0.18314900  1
  C  C31  1  0.69737100  0.84703000  0.62303600  1
  C  C32  1  0.66761100  0.75650000  0.60263000  1
  C  C33  1  0.52226500  0.79073700  0.50318600  1
  C  C34  1  0.54927600  0.88389500  0.52180800  1
  C  C35  1  0.63844300  0.91049900  0.58281700  1
  C  C36  1  0.49064300  0.95071700  0.48188000  1
  C  C37  1  0.52312300  0.04279700  0.50428100  1
  C  C38  1  0.61361700  0.06580200  0.56613900  1
  C  C39  1  0.66984400  0.00043100  0.60443200  1
  C  C40  1  0.40016500  0.92771600  0.42001100  1
  C  C41  1  0.34393800  0.99308800  0.38171800  1
  C  C42  1  0.37531600  0.08301500  0.40334800  1
  C  C43  1  0.46447300  0.10961600  0.46436300  1
  C  C44  1  0.31638200  0.14648500  0.36313500  1
  C  C45  1  0.34611100  0.23700700  0.38356200  1
  C  C46  1  0.49144900  0.20276500  0.48300900  1
  C  C47  1  0.56142000  0.77377200  0.96166900  1
  C  C48  1  0.70338200  0.81936300  0.95971600  1
  C  C49  1  0.72381300  0.92129200  0.93083700  1
  C  C50  1  0.86530200  0.96665400  0.92792800  1
  N  N1  1  0.58117000  0.72998800  0.54346800  1
  N  N2  1  0.43250300  0.26350600  0.44275500  1
  O  O1  1  0.46945300  0.37927300  0.59813900  1
  O  O2  1  0.51820100  0.53201400  0.63099000  1
  O  O3  1  0.66766000  0.42040800  0.47657300  1
  O  O4  1  0.71629000  0.57322700  0.50945000  1
  O  O5  1  0.49530200  0.46147300  0.35519800  1
  O  O6  1  0.54392700  0.61418100  0.38816900  1
  O  O7  1  0.29733200  0.42023300  0.47676200  1
  O  O8  1  0.34611100  0.57308100  0.50971300  1
