# generated using pymatgen
data_CuH21C30NO4
_symmetry_space_group_name_H-M   'P 1'
_cell_length_a   13.58569800
_cell_length_b   14.95105200
_cell_length_c   16.01522600
_cell_angle_alpha   89.98955900
_cell_angle_beta   72.45769000
_cell_angle_gamma   89.98776700
_symmetry_Int_Tables_number   1
_chemical_formula_structural   CuH21C30NO4
_chemical_formula_sum   'Cu2 H42 C60 N2 O8'
_cell_volume   3101.73735506
_cell_formula_units_Z   2
loop_
 _symmetry_equiv_pos_site_id
 _symmetry_equiv_pos_as_xyz
  1  'x, y, z'
loop_
 _atom_site_type_symbol
 _atom_site_label
 _atom_site_symmetry_multiplicity
 _atom_site_fract_x
 _atom_site_fract_y
 _atom_site_fract_z
 _atom_site_occupancy
  Cu  Cu1  1  0.40120800  0.49390600  0.50227600  1
  Cu  Cu2  1  0.59976400  0.50422600  0.49697700  1
  H  H1  1  0.22669000  0.50395800  0.06645700  1
  H  H2  1  0.77428400  0.49430300  0.93279600  1
  H  H3  1  0.43742800  0.49968100  0.22643500  1
  H  H4  1  0.56354400  0.49843600  0.77281900  1
  H  H5  1  0.74923500  0.49455700  0.22530000  1
  H  H6  1  0.25173600  0.50362000  0.77395400  1
  H  H7  1  0.19411400  0.50446900  0.93179000  1
  H  H8  1  0.80685900  0.49375100  0.06746200  1
  H  H9  1  0.33757300  0.50202800  0.15348800  1
  H  H10  1  0.66340200  0.49624200  0.84576500  1
  H  H11  1  0.62784200  0.21484600  0.56327800  1
  H  H12  1  0.37313100  0.78328600  0.43597500  1
  H  H13  1  0.40455100  0.22314300  0.42469700  1
  H  H14  1  0.59642100  0.77498900  0.57455700  1
  H  H15  1  0.33398900  0.08842700  0.38784600  1
  H  H16  1  0.66698300  0.90970600  0.61140800  1
  H  H17  1  0.32037000  0.92532500  0.39362500  1
  H  H18  1  0.68060200  0.07280900  0.60562900  1
  H  H19  1  0.28677400  0.57648700  0.40232500  1
  H  H20  1  0.71420000  0.42164200  0.59692600  1
  H  H21  1  0.00148100  0.36690000  0.68266000  1
  H  H22  1  0.99948900  0.63123200  0.31659300  1
  H  H23  1  0.83120900  0.37504800  0.67105600  1
  H  H24  1  0.16976400  0.62308200  0.32819400  1
  H  H25  1  0.15671100  0.38180300  0.69428200  1
  H  H26  1  0.28267800  0.37304300  0.62425000  1
  H  H27  1  0.23691200  0.26148100  0.53060100  1
  H  H28  1  0.10699300  0.25865200  0.60195800  1
  H  H29  1  0.18179900  0.22752200  0.72851000  1
  H  H30  1  0.30442100  0.21004500  0.64565700  1
  H  H31  1  0.10072600  0.10977800  0.66729100  1
  H  H32  1  0.21770600  0.06647300  0.68379700  1
  H  H33  1  0.21563000  0.09660800  0.57494300  1
  H  H34  1  0.71829500  0.62509500  0.37500100  1
  H  H35  1  0.84425800  0.61633400  0.30497000  1
  H  H36  1  0.89398000  0.73948200  0.39729400  1
  H  H37  1  0.76406100  0.73665100  0.46865500  1
  H  H38  1  0.69654900  0.78808500  0.35360000  1
  H  H39  1  0.81917100  0.77061300  0.27074700  1
  H  H40  1  0.78534000  0.90152500  0.42431900  1
  H  H41  1  0.78325800  0.93166400  0.31546900  1
  H  H42  1  0.90023900  0.88836100  0.33196900  1
  C  C1  1  0.48812400  0.67058800  0.50073800  1
  C  C2  1  0.51284900  0.32754400  0.49851400  1
  C  C3  1  0.44690100  0.50028400  0.66804000  1
  C  C4  1  0.55407100  0.49785100  0.33121300  1
  C  C5  1  0.41308900  0.50094100  0.76426800  1
  C  C6  1  0.58788300  0.49721300  0.23498500  1
  C  C7  1  0.27601800  0.50310200  0.89801800  1
  C  C8  1  0.72495500  0.49510200  0.10123400  1
  C  C9  1  0.30895400  0.50256100  0.80837600  1
  C  C10  1  0.69201900  0.49561700  0.19087600  1
  C  C11  1  0.48382200  0.49978100  0.81097700  1
  C  C12  1  0.51715000  0.49837500  0.18827600  1
  C  C13  1  0.45124500  0.50015400  0.90275300  1
  C  C14  1  0.54972800  0.49804000  0.09649900  1
  C  C15  1  0.34609300  0.50190800  0.94472300  1
  C  C16  1  0.65488000  0.49630300  0.05452900  1
  C  C17  1  0.51980100  0.49882300  0.95373800  1
  C  C18  1  0.48117200  0.49938600  0.04551500  1
  C  C19  1  0.37470200  0.50132600  0.08414200  1
  C  C20  1  0.62627200  0.49691000  0.91511100  1
  C  C21  1  0.30895200  0.50251300  0.03420400  1
  C  C22  1  0.69202100  0.49572600  0.96504800  1
  C  C23  1  0.57766800  0.18092500  0.53246700  1
  C  C24  1  0.42330300  0.81720800  0.46678600  1
  C  C25  1  0.51623300  0.22973200  0.49450800  1
  C  C26  1  0.48473900  0.76840000  0.50474600  1
  C  C27  1  0.45145500  0.18568900  0.45615700  1
  C  C28  1  0.54951700  0.81244300  0.54309700  1
  C  C29  1  0.44580000  0.09372200  0.45753200  1
  C  C30  1  0.55517000  0.90441100  0.54172300  1
  C  C31  1  0.50441900  0.04510000  0.49795200  1
  C  C32  1  0.49655100  0.95303300  0.50130300  1
  C  C33  1  0.57074900  0.08857600  0.53504100  1
  C  C34  1  0.43022200  0.90955700  0.46421400  1
  C  C35  1  0.38021100  0.05048100  0.41965900  1
  C  C36  1  0.62076000  0.94765200  0.57959600  1
  C  C37  1  0.37219400  0.95857700  0.42319500  1
  C  C38  1  0.62877800  0.03955600  0.57605900  1
  C  C39  1  0.22773000  0.53733600  0.44778300  1
  C  C40  1  0.77324300  0.46079500  0.55146800  1
  C  C41  1  0.17661500  0.43562800  0.56461200  1
  C  C42  1  0.82435700  0.56250500  0.43464000  1
  C  C43  1  0.07339600  0.44475000  0.56520400  1
  C  C44  1  0.92757600  0.55338300  0.43404800  1
  C  C45  1  0.05064400  0.49578300  0.50166100  1
  C  C46  1  0.95032900  0.50234900  0.49759100  1
  C  C47  1  0.12874200  0.54061000  0.44220900  1
  C  C48  1  0.87223100  0.45752100  0.55704200  1
  C  C49  1  0.99178800  0.40390800  0.62799500  1
  C  C50  1  0.00918500  0.59422400  0.37125700  1
  C  C51  1  0.89283500  0.40898200  0.62262900  1
  C  C52  1  0.10813800  0.58914800  0.37662100  1
  C  C53  1  0.20232800  0.36860900  0.62542100  1
  C  C54  1  0.18787300  0.27267900  0.59879600  1
  C  C55  1  0.21942600  0.20821900  0.65936800  1
  C  C56  1  0.18619600  0.11411500  0.64529300  1
  C  C57  1  0.79864400  0.62952500  0.37383200  1
  C  C58  1  0.81310000  0.72545400  0.40045900  1
  C  C59  1  0.78154400  0.78991600  0.33988900  1
  C  C60  1  0.81477000  0.88402000  0.35396800  1
  N  N1  1  0.25235800  0.48467100  0.50684700  1
  N  N2  1  0.74861500  0.51346200  0.49240600  1
  O  O1  1  0.40651500  0.62459600  0.49856700  1
  O  O2  1  0.59445700  0.37353700  0.50068600  1
  O  O3  1  0.57475900  0.63288100  0.50077900  1
  O  O4  1  0.42621400  0.36525200  0.49847400  1
  O  O5  1  0.37533100  0.49888600  0.62887100  1
  O  O6  1  0.62564100  0.49924600  0.37038200  1
  O  O7  1  0.54574400  0.50098600  0.62470900  1
  O  O8  1  0.45522800  0.49714700  0.37454400  1
