# Generated by REPEAT Assigner based on pymatgen
data_DB0-m3_o8_o28_f0_pcu.sym.116_sqe
_audit_creation_date              2022-05-24
_audit_creation_method            REPEAT_Assigner
_cell_length_a                    15.895857
_cell_length_b                    17.094302
_cell_length_c                    23.467507
_cell_angle_alpha                 90.006453
_cell_angle_beta                  92.708836
_cell_angle_gamma                 89.120167
_cell_volume                      6368.914618
_symmetry_space_group_name_H-M    P1
_symmetry_Int_Tables_number       1
loop_
    _symmetry_equiv_pos_site_id
    _symmetry_equiv_pos_as_xyz
    1  x,y,z
loop_
    _atom_site_type_symbol
    _atom_site_label
    _atom_site_fract_x
    _atom_site_fract_y
    _atom_site_fract_z
    _atom_type_partial_charge
    O   O1   0.420893  0.611456  0.498943  -0.689592
    O   O2   0.581017  0.384657  0.503762  -0.690665
    O   O3   0.565634  0.617485  0.506402  -0.640840
    O   O4   0.436285  0.378607  0.496151  -0.635762
    C   C1   0.490850  0.651100  0.502968  0.798464
    C   C2   0.511109  0.345008  0.499523  0.799507
    O   O5   0.427331  0.493052  0.582512  -0.588104
    O   O6   0.574647  0.502962  0.420210  -0.595839
    O   O7   0.571882  0.498400  0.589833  -0.679716
    O   O8   0.429925  0.497791  0.412859  -0.684258
    C   C3   0.498530  0.494244  0.613055  0.681538
    C   C4   0.503357  0.502139  0.389752  0.707665
    Zn  Zn1  0.405525  0.494068  0.496781  1.027119
    Zn  Zn2  0.596378  0.502034  0.505931  1.042849
    C   C5   0.498192  0.433036  0.119753  0.457974
    C   C6   0.510089  0.565789  0.883238  0.461254
    N   N1   0.504808  0.501695  0.147870  -0.179918
    N   N2   0.502258  0.497243  0.855188  -0.171934
    C   C7   0.511044  0.569488  0.118993  0.480191
    C   C8   0.495451  0.429530  0.883981  0.475299
    C   C9   0.511278  0.569463  0.060071  -0.116890
    C   C10  0.496218  0.429441  0.942921  -0.117042
    C   C11  0.504214  0.499886  0.030898  0.100624
    C   C12  0.503792  0.498991  0.972098  0.097551
    C   C13  0.497436  0.431224  0.060812  -0.106448
    C   C14  0.510821  0.567644  0.942182  -0.114330
    C   C15  0.518051  0.638532  0.030116  -0.060479
    C   C16  0.489596  0.360366  0.972869  -0.057643
    C   C17  0.517971  0.637612  0.971398  -0.056832
    C   C18  0.490331  0.361240  0.031601  -0.061433
    O   O9   0.494111  0.365975  0.149302  -0.483890
    O   O10  0.515295  0.632635  0.853577  -0.491476
    O   O11  0.515134  0.637505  0.147637  -0.496595
    O   O12  0.489413  0.361782  0.855135  -0.499012
    H   H1   0.523664  0.694012  0.051907  0.134795
    H   H2   0.483699  0.304920  0.951062  0.134343
    H   H3   0.523463  0.692383  0.949016  0.131823
    H   H4   0.484982  0.306445  0.053975  0.132013
    C   C19  0.429051  0.472852  0.763890  -0.197420
    C   C20  0.573155  0.531798  0.240073  -0.173074
    H   H5   0.374560  0.455444  0.786384  0.126286
    H   H6   0.626241  0.554065  0.218306  0.124478
    C   C21  0.426699  0.469846  0.705052  0.062110
    C   C22  0.573423  0.534862  0.298888  0.071560
    C   C23  0.497133  0.492195  0.675877  -0.080522
    C   C24  0.505127  0.505678  0.327094  -0.101055
    C   C25  0.568552  0.515513  0.707127  -0.095411
    C   C26  0.436926  0.477055  0.295173  -0.102930
    H   H7   0.624007  0.533617  0.686051  0.123120
    H   H8   0.383203  0.454066  0.315801  0.128945
    C   C27  0.570136  0.517642  0.765841  -0.188738
    C   C28  0.436808  0.475708  0.236493  -0.180160
    H   H9   0.626581  0.535707  0.789434  0.138362
    H   H10  0.382683  0.453550  0.212353  0.143069
    C   C29  0.500392  0.496306  0.794393  0.239780
    C   C30  0.505112  0.502633  0.208706  0.220641
    C   C31  0.485146  0.736788  0.501954  -0.259988
    C   C32  0.517124  0.259336  0.498774  -0.271610
    C   C33  0.557232  0.780809  0.506375  0.056765
    C   C34  0.446091  0.215286  0.488089  0.041214
    C   C35  0.552215  0.861298  0.503821  -0.331581
    C   C36  0.451435  0.134735  0.488100  -0.294549
    C   C37  0.474365  0.898915  0.496372  0.460005
    C   C38  0.528738  0.097110  0.498452  0.389853
    C   C39  0.402049  0.854691  0.491650  -0.197071
    C   C40  0.600319  0.141360  0.508027  -0.182990
    C   C41  0.407647  0.774119  0.495076  0.060000
    C   C42  0.594128  0.222024  0.508634  0.081700
    N   N3   0.466936  0.981532  0.494870  -0.226055
    N   N4   0.535901  0.014528  0.500981  -0.148932
    H   H11  0.385386  0.243164  0.479451  0.091557
    H   H12  0.618585  0.753028  0.511899  0.080607
    H   H13  0.393578  0.103419  0.479810  0.153643
    H   H14  0.610812  0.892539  0.507728  0.122499
    H   H15  0.350678  0.740550  0.490695  0.074277
    H   H16  0.650532  0.255636  0.516318  0.069515
    N   N5   0.722036  0.507331  0.510905  -0.133124
    N   N6   0.279863  0.488772  0.491850  -0.147303
    C   C43  0.766775  0.456725  0.479960  0.046197
    C   C44  0.235038  0.540347  0.521934  0.086029
    C   C45  0.853438  0.459784  0.480963  -0.112078
    C   C46  0.148358  0.537308  0.520939  -0.226468
    C   C47  0.894579  0.516063  0.513861  0.419215
    C   C48  0.107283  0.480247  0.488762  0.517902
    C   C49  0.847384  0.567336  0.545039  -0.316489
    C   C50  0.154547  0.428148  0.458324  -0.363286
    C   C51  0.760848  0.562289  0.543158  0.081509
    C   C52  0.241096  0.433055  0.460302  0.125874
    N   N7   0.983245  0.522846  0.516313  -0.218339
    N   N8   0.018620  0.473466  0.486326  -0.196236
    H   H17  0.267180  0.584208  0.547577  0.126523
    H   H18  0.734570  0.413521  0.453737  0.126846
    H   H19  0.115466  0.579940  0.546024  0.085832
    H   H20  0.886273  0.417834  0.455272  0.054987
    H   H21  0.878279  0.611743  0.570876  0.142309
    H   H22  0.123697  0.383135  0.433054  0.152793
    H   H23  0.724095  0.602931  0.567461  0.133549
    H   H24  0.277885  0.391719  0.436618  0.127281
    C   C53  0.349486  0.440679  0.676467  0.118394
    C   C54  0.350266  0.370883  0.646764  -0.094258
    C   C55  0.276723  0.343045  0.621265  0.047214
    Cl  Cl1  0.277599  0.254733  0.583579  -0.113783
    C   C56  0.202221  0.384369  0.625816  -0.093924
    C   C57  0.201033  0.453221  0.656319  -0.078331
    C   C58  0.274445  0.481096  0.681888  -0.210418
    H   H25  0.408482  0.338035  0.643421  0.119860
    H   H26  0.144663  0.362615  0.605672  0.081031
    H   H27  0.142535  0.485470  0.660070  0.102764
    H   H28  0.273222  0.535216  0.705680  0.115347
    C   C59  0.645017  0.572592  0.328815  0.086648
    C   C60  0.725643  0.543502  0.322873  -0.127751
    C   C61  0.793218  0.578819  0.350802  0.058909
    Cl  Cl2  0.895242  0.541189  0.343649  -0.116511
    C   C62  0.780528  0.643673  0.384402  -0.047222
    C   C63  0.700355  0.673909  0.389447  -0.170072
    C   C64  0.632747  0.638851  0.361378  -0.116345
    H   H29  0.735941  0.492236  0.296998  0.089549
    H   H30  0.833498  0.671099  0.406494  0.089256
    H   H31  0.690511  0.725231  0.415329  0.130293
    H   H32  0.570050  0.663041  0.365302  0.125456
    C   C65  0.318812  0.892353  0.483358  0.111926
    C   C66  0.302407  0.944855  0.439239  -0.140825
    C   C67  0.223655  0.979148  0.431407  0.078105
    Cl  Cl3  0.203587  0.045914  0.375670  -0.111003
    C   C68  0.160640  0.960645  0.467200  -0.046946
    C   C69  0.176301  0.907500  0.510692  -0.162201
    C   C70  0.255043  0.873180  0.518626  -0.138803
    H   H33  0.350779  0.958659  0.410148  0.109455
    H   H34  0.098873  0.987500  0.461005  0.074007
    H   H35  0.126816  0.892769  0.538674  0.126928
    H   H36  0.266795  0.832042  0.553172  0.111585
    C   C71  0.683020  0.103557  0.518914  0.099429
    C   C72  0.713098  0.048485  0.481457  -0.161713
    C   C73  0.791165  0.013783  0.491902  0.140154
    Cl  Cl4  0.828465  0.943602  0.444562  -0.125947
    C   C74  0.839985  0.034456  0.539438  -0.151546
    C   C75  0.810838  0.090110  0.576442  -0.134048
    C   C76  0.732723  0.124788  0.566132  -0.119622
    H   H37  0.676130  0.032866  0.443429  0.112102
    H   H38  0.901222  0.007268  0.547567  0.121954
    H   H39  0.849186  0.106485  0.613677  0.120179
    H   H40  0.710185  0.167805  0.595775  0.104984
