# Generated by REPEAT Assigner based on pymatgen
data_DB0-m29_o99_o500_f0_pts.sym.65
_audit_creation_date              2022-05-24
_audit_creation_method            REPEAT_Assigner
_cell_length_a                    16.147317
_cell_length_b                    12.490180
_cell_length_c                    13.436637
_cell_angle_alpha                 68.489810
_cell_angle_beta                  97.832433
_cell_angle_gamma                 109.817773
_cell_volume                      2371.660845
_symmetry_space_group_name_H-M    P1
_symmetry_Int_Tables_number       1
loop_
    _symmetry_equiv_pos_site_id
    _symmetry_equiv_pos_as_xyz
    1  x,y,z
loop_
    _atom_site_type_symbol
    _atom_site_label
    _atom_site_fract_x
    _atom_site_fract_y
    _atom_site_fract_z
    _atom_type_partial_charge
    C   C1   0.219088  0.051266  0.831418  -0.166859
    H   H1   0.234737  0.079578  0.748103  0.147592
    C   C2   0.137411  0.041818  0.858692  -0.192564
    H   H2   0.089002  0.062326  0.796922  0.171408
    C   C3   0.117153  0.006963  0.964347  0.225855
    C   C4   0.178660  0.979849  0.044427  -0.019885
    C   C5   0.264099  0.998382  0.016193  -0.094878
    C   C6   0.282629  0.030965  0.909006  0.096493
    C   C7   0.032300  0.003734  0.989136  -0.098698
    C   C8   0.961275  0.002026  0.009374  -0.137512
    C   C9   0.815806  0.029050  0.953731  -0.049882
    C   C10  0.729992  0.009636  0.981416  -0.081150
    C   C11  0.710500  0.974082  0.088823  0.128350
    C   C12  0.773233  0.950757  0.166779  -0.184647
    H   H3   0.756842  0.920052  0.250127  0.151580
    C   C13  0.855009  0.960325  0.139758  -0.205557
    H   H4   0.902686  0.937359  0.201750  0.171913
    C   C14  0.876365  0.998715  0.034063  0.272409
    O   O1   0.537572  0.199580  0.671114  -0.621400
    C   C15  0.478061  0.193518  0.594508  0.700036
    O   O2   0.420860  0.169506  0.833188  -0.523950
    O   O3   0.409160  0.095889  0.611614  -0.550444
    O   O4   0.393932  0.969525  0.863531  -0.539377
    C   C16  0.370887  0.056557  0.873150  0.612811
    Fe  Fe1  0.506387  0.039130  0.786065  1.457882
    O   O5   0.594010  0.051762  0.905749  -0.557993
    O   O6   0.655469  0.965640  0.826507  -0.546535
    C   C17  0.658389  0.012003  0.900568  0.601229
    O   O7   0.503931  0.931944  0.704406  -0.541947
    O   O8   0.458339  0.763557  0.853015  -0.476344
    C   C18  0.479677  0.813729  0.751657  0.602902
    O   O9   0.490066  0.075009  0.292730  -0.522917
    O   O10  0.550398  0.237981  0.147536  -0.509582
    C   C19  0.521815  0.193001  0.245864  0.662298
    O   O11  0.398350  0.952093  0.093591  -0.545283
    O   O12  0.341997  0.049389  0.166628  -0.548572
    C   C20  0.336391  0.997419  0.095991  0.598251
    O   O13  0.588502  0.909583  0.381732  -0.570464
    O   O14  0.598838  0.035972  0.133119  -0.523963
    C   C21  0.622187  0.948600  0.124588  0.576899
    O   O15  0.456877  0.806803  0.328107  -0.633262
    C   C22  0.519212  0.812265  0.401615  0.697577
    O   O16  0.572873  0.835603  0.166399  -0.481614
    Fe  Fe2  0.487086  0.966545  0.212020  1.449898
    C   C23  0.497880  0.800576  0.579565  -0.126380
    C   C24  0.497730  0.739010  0.513293  -0.087023
    C   C25  0.481283  0.614889  0.554066  0.202201
    C   C26  0.462040  0.554126  0.662114  -0.180842
    H   H5   0.446358  0.456775  0.696155  0.153399
    C   C27  0.460369  0.616718  0.728000  -0.135421
    C   C28  0.478943  0.741027  0.686666  0.062625
    C   C29  0.485637  0.550816  0.482890  -0.250427
    C   C30  0.515226  0.455245  0.517155  -0.181682
    H   H6   0.465512  0.583777  0.400066  0.235753
    H   H7   0.535204  0.422053  0.599992  0.197868
    C   C31  0.502341  0.268516  0.483739  -0.138557
    C   C32  0.503174  0.209008  0.416099  -0.034919
    C   C33  0.524214  0.269572  0.309205  -0.153246
    C   C34  0.544698  0.395679  0.269335  0.118251
    C   C35  0.542602  0.455557  0.338271  -0.236709
    H   H8   0.560019  0.552974  0.310048  0.135597
    C   C36  0.520533  0.392539  0.445155  0.202105
    H   H9   0.511629  0.897490  0.544437  0.153256
    H   H10  0.444900  0.567638  0.811611  0.139153
    H   H11  0.488415  0.111946  0.450574  0.137039
    C   C37  0.567534  0.466832  0.153835  0.200156
    O   O17  0.581694  0.589982  0.130345  -0.455160
    H   H12  0.512775  0.433821  0.102131  0.089101
    H   H13  0.628616  0.455703  0.136134  0.030430
    H   H14  0.641316  0.630267  0.099399  0.303556
    C   C38  0.149390  0.927087  0.158863  0.391364
    O   O18  0.076645  0.823261  0.172422  -0.579197
    H   H15  0.131068  0.994741  0.178818  -0.040284
    H   H16  0.200484  0.899788  0.216392  -0.004900
    H   H17  0.045305  0.816324  0.234011  0.344418
    C   C39  0.846501  0.086171  0.839747  0.394368
    O   O19  0.920040  0.188276  0.830034  -0.582708
    H   H18  0.796388  0.116875  0.782476  -0.010818
    H   H19  0.864287  0.019973  0.816942  -0.041497
    H   H20  0.951703  0.197788  0.767670  0.349024
