# generated using pymatgen
data_Cu6H51C96NO24
_symmetry_space_group_name_H-M   'P 1'
_cell_length_a   18.56705400
_cell_length_b   18.62319400
_cell_length_c   18.68950500
_cell_angle_alpha   109.35175000
_cell_angle_beta   109.84671800
_cell_angle_gamma   108.99928600
_symmetry_Int_Tables_number   1
_chemical_formula_structural   Cu6H51C96NO24
_chemical_formula_sum   'Cu6 H51 C96 N1 O24'
_cell_volume   4987.77567420
_cell_formula_units_Z   1
loop_
 _symmetry_equiv_pos_site_id
 _symmetry_equiv_pos_as_xyz
  1  'x, y, z'
loop_
 _atom_site_type_symbol
 _atom_site_label
 _atom_site_symmetry_multiplicity
 _atom_site_fract_x
 _atom_site_fract_y
 _atom_site_fract_z
 _atom_site_occupancy
  Cu  Cu1  1  0.50357800  0.44086900  0.43983400  1
  Cu  Cu2  1  0.50131400  0.56079800  0.56026100  1
  Cu  Cu3  1  0.94572400  0.44146500  0.00538300  1
  Cu  Cu4  1  0.06765500  0.56165100  0.00537200  1
  Cu  Cu5  1  0.06512500  0.00088900  0.56275300  1
  Cu  Cu6  1  0.94317300  0.00269200  0.44254800  1
  H  H1  1  0.24112500  0.62927100  0.31572000  1
  H  H2  1  0.39450500  0.62973700  0.31901900  1
  H  H3  1  0.29029000  0.50096800  0.13964100  1
  H  H4  1  0.26569100  0.37080800  0.18862100  1
  H  H5  1  0.11321000  0.37032800  0.18639800  1
  H  H6  1  0.21708600  0.49931200  0.36533900  1
  H  H7  1  0.85183600  0.55089200  0.51301000  1
  H  H8  1  0.55071400  0.71410800  0.48759600  1
  H  H9  1  0.54040600  0.83978700  0.49007500  1
  H  H10  1  0.66023200  0.95923900  0.50309600  1
  H  H11  1  0.78879700  0.95143100  0.51098300  1
  H  H12  1  0.94486700  0.77885900  0.49451900  1
  H  H13  1  0.95966000  0.65791200  0.50145500  1
  H  H14  1  0.72825700  0.56387500  0.51507100  1
  H  H15  1  0.54278700  0.20471200  0.55545300  1
  H  H16  1  0.73000800  0.66321800  0.70982900  1
  H  H17  1  0.85400600  0.79855400  0.83370700  1
  H  H18  1  0.96172500  0.79954100  0.95498600  1
  H  H19  1  0.94670900  0.66517400  0.95071700  1
  H  H20  1  0.79104800  0.33905500  0.78316500  1
  H  H21  1  0.66260300  0.20439700  0.66382100  1
  H  H22  1  0.55306500  0.33971200  0.56543900  1
  H  H23  1  0.14499700  0.17379300  0.20411800  1
  H  H24  1  0.46401700  0.42502800  0.65783600  1
  H  H25  1  0.36106100  0.33063800  0.79830500  1
  H  H26  1  0.22670700  0.21971600  0.66612100  1
  H  H27  1  0.05754200  0.05723300  0.33842400  1
  H  H28  1  0.03754800  0.05468500  0.20393100  1
  H  H29  1  0.27359000  0.29373500  0.33880800  1
  H  H30  1  0.70640100  0.55565500  0.03734600  1
  H  H31  1  0.16874000  0.71186100  0.23048500  1
  H  H32  1  0.30411800  0.83576800  0.35458200  1
  H  H33  1  0.30361600  0.95564300  0.46070700  1
  H  H34  1  0.16771700  0.94994700  0.44368500  1
  H  H35  1  0.83952900  0.78175100  0.28427400  1
  H  H36  1  0.70473100  0.66294800  0.15505900  1
  H  H37  1  0.84292500  0.56617600  0.05044800  1
  H  H38  1  0.01493700  0.16073500  0.96327800  1
  H  H39  1  0.99489700  0.44137200  0.78264200  1
  H  H40  1  0.99777300  0.45535800  0.66062900  1
  H  H41  1  0.00844800  0.34786100  0.55197800  1
  H  H42  1  0.01382600  0.22556200  0.56451700  1
  H  H43  1  0.99595100  0.05109300  0.71658200  1
  H  H44  1  0.00240400  0.04178700  0.84326700  1
  H  H45  1  0.01854300  0.28749500  0.95509700  1
  H  H46  1  0.50205700  0.44555700  0.86877200  1
  H  H47  1  0.66805900  0.55873700  0.88196100  1
  H  H48  1  0.73073800  0.71075100  0.91242200  1
  H  H49  1  0.63380600  0.77234600  0.87618500  1
  H  H50  1  0.47426600  0.68258200  0.81212000  1
  H  H51  1  0.41127600  0.53223200  0.78390400  1
  C  C1  1  0.61975500  0.61932200  0.50072000  1
  C  C2  1  0.38338300  0.50016400  0.38165400  1
  C  C3  1  0.38556600  0.38229500  0.49967000  1
  C  C4  1  0.62172600  0.50152800  0.61863200  1
  C  C5  1  0.32972400  0.57093200  0.28795800  1
  C  C6  1  0.24769200  0.57067100  0.28788700  1
  C  C7  1  0.19366500  0.50033800  0.19278400  1
  C  C8  1  0.27455800  0.50061600  0.19173900  1
  C  C9  1  0.25967600  0.42964000  0.21709500  1
  C  C10  1  0.17765900  0.42937500  0.21702400  1
  C  C11  1  0.23284100  0.49972700  0.31326900  1
  C  C12  1  0.31371700  0.49997900  0.31219900  1
  C  C13  1  0.60547100  0.76447400  0.49352000  1
  C  C14  1  0.59839100  0.83586800  0.49425100  1
  C  C15  1  0.66523100  0.90248700  0.50121300  1
  C  C16  1  0.73827600  0.89681400  0.50497400  1
  C  C17  1  0.74554000  0.82393000  0.50192400  1
  C  C18  1  0.67988800  0.75858600  0.49937800  1
  C  C19  1  0.81802700  0.81660300  0.50248600  1
  C  C20  1  0.82549700  0.74462100  0.50263600  1
  C  C21  1  0.76191100  0.68142900  0.50431300  1
  C  C22  1  0.68839300  0.68767600  0.50156800  1
  C  C23  1  0.89562700  0.73427400  0.49988700  1
  C  C24  1  0.90457300  0.66483200  0.50311100  1
  C  C25  1  0.84414700  0.60485000  0.50926200  1
  C  C26  1  0.77323500  0.61275000  0.50972200  1
  C  C27  1  0.77528200  0.65954100  0.76092200  1
  C  C28  1  0.84634200  0.73756700  0.83126100  1
  C  C29  1  0.90667900  0.73810200  0.89894300  1
  C  C30  1  0.89762600  0.66052200  0.89529300  1
  C  C31  1  0.82757400  0.58078800  0.82332000  1
  C  C32  1  0.76402800  0.58047200  0.75703800  1
  C  C33  1  0.82011800  0.50201400  0.81785700  1
  C  C34  1  0.74765500  0.42305300  0.74675800  1
  C  C35  1  0.68199200  0.42300600  0.68278200  1
  C  C36  1  0.69050600  0.50166000  0.68726300  1
  C  C37  1  0.74048600  0.34347100  0.73802300  1
  C  C38  1  0.66750800  0.26569400  0.66948300  1
  C  C39  1  0.60066600  0.26585500  0.60874800  1
  C  C40  1  0.60768000  0.34372000  0.61497700  1
  C  C41  1  0.40930600  0.38010800  0.65693300  1
  C  C42  1  0.42054700  0.38562200  0.73581100  1
  C  C43  1  0.35369900  0.32711100  0.73713200  1
  C  C44  1  0.27685400  0.26268000  0.66034600  1
  C  C45  1  0.26566500  0.25477600  0.58013100  1
  C  C46  1  0.33101000  0.31656700  0.57898000  1
  C  C47  1  0.18990500  0.18648200  0.50175100  1
  C  C48  1  0.17922400  0.18177800  0.42248800  1
  C  C49  1  0.24235300  0.24665400  0.42204400  1
  C  C50  1  0.31854300  0.31385500  0.50020700  1
  C  C51  1  0.10650500  0.11188100  0.34292500  1
  C  C52  1  0.09462400  0.10911700  0.26515200  1
  C  C53  1  0.15481600  0.17553500  0.26521600  1
  C  C54  1  0.22839000  0.24370400  0.34287300  1
  C  C55  1  0.00601400  0.61953100  0.12184800  1
  C  C56  1  0.12445000  0.50083900  0.12355600  1
  C  C57  1  0.00678900  0.38362100  0.88826900  1
  C  C58  1  0.88866300  0.50214600  0.88686800  1
  C  C59  1  0.00360200  0.88445500  0.38437100  1
  C  C60  1  0.88638000  0.88455500  0.50258000  1
  C  C61  1  0.00480200  0.11908100  0.62103900  1
  C  C62  1  0.12184700  0.11899600  0.50254400  1
  C  C63  1  0.16430300  0.76237400  0.27483300  1
  C  C64  1  0.24242700  0.83276900  0.34599100  1
  C  C65  1  0.24212600  0.89960200  0.40546400  1
  C  C66  1  0.16363200  0.89509200  0.39529500  1
  C  C67  1  0.08378100  0.82314100  0.32495300  1
  C  C68  1  0.08428500  0.75766900  0.26245600  1
  C  C69  1  0.00409000  0.81690400  0.31621100  1
  C  C70  1  0.92500200  0.74613300  0.24338200  1
  C  C71  1  0.92573900  0.68281300  0.17889400  1
  C  C72  1  0.00531700  0.68781700  0.18893800  1
  C  C73  1  0.84456800  0.73704500  0.23468900  1
  C  C74  1  0.76669900  0.66883400  0.16124500  1
  C  C75  1  0.76761900  0.60869600  0.09556800  1
  C  C76  1  0.84634100  0.61521600  0.10419600  1
  C  C77  1  0.99982500  0.39225400  0.73726400  1
  C  C78  1  0.00079700  0.40076300  0.66726900  1
  C  C79  1  0.00647100  0.34053300  0.60639300  1
  C  C80  1  0.00884400  0.27035200  0.61407000  1
  C  C81  1  0.00571600  0.25952400  0.68335500  1
  C  C82  1  0.00428500  0.32273800  0.74722800  1
  C  C83  1  0.00518300  0.18696600  0.68966700  1
  C  C84  1  0.00522800  0.17890400  0.76114500  1
  C  C85  1  0.00771000  0.24406300  0.82694300  1
  C  C86  1  0.00625700  0.31561900  0.81963600  1
  C  C87  1  0.00170300  0.10547600  0.76721600  1
  C  C88  1  0.00469200  0.09897500  0.83919300  1
  C  C89  1  0.01139500  0.16532100  0.90614000  1
  C  C90  1  0.01276600  0.23733900  0.90028000  1
  C  C91  1  0.53561700  0.53446100  0.82869900  1
  C  C92  1  0.62526300  0.58566900  0.86611800  1
  C  C93  1  0.66047600  0.67092800  0.88307500  1
  C  C94  1  0.60616800  0.70548100  0.86291800  1
  C  C95  1  0.51671400  0.65507200  0.82682900  1
  C  C96  1  0.48133600  0.56990000  0.81027900  1
  N  N1  1  0.50151200  0.44810800  0.81445700  1
  O  O1  1  0.57475500  0.53924700  0.43290000  1
  O  O2  1  0.60630100  0.64080900  0.56794900  1
  O  O3  1  0.39725200  0.43296500  0.35980300  1
  O  O4  1  0.42809400  0.56761600  0.46184900  1
  O  O5  1  0.43205500  0.36099300  0.46533300  1
  O  O6  1  0.39670100  0.46222500  0.53401300  1
  O  O7  1  0.60956600  0.46728600  0.53845400  1
  O  O8  1  0.57489300  0.53550200  0.64012200  1
  O  O9  1  0.97176400  0.53951000  0.11019800  1
  O  O10  1  0.04105300  0.64125100  0.07626400  1
  O  O11  1  0.04390100  0.43334300  0.07775800  1
  O  O12  1  0.14695100  0.56872500  0.11112200  1
  O  O13  1  0.93854200  0.36208300  0.90054700  1
  O  O14  1  0.07533700  0.46341600  0.93441700  1
  O  O15  1  0.86643200  0.46821300  0.93301100  1
  O  O16  1  0.96946700  0.53591500  0.89959500  1
  O  O17  1  0.03795800  0.89562000  0.46437900  1
  O  O18  1  0.96931600  0.93131900  0.36290800  1
  O  O19  1  0.96720700  0.92992800  0.57057900  1
  O  O20  1  0.86402500  0.89723200  0.43457300  1
  O  O21  1  0.07334200  0.10644200  0.64246100  1
  O  O22  1  0.93603300  0.07378500  0.54091100  1
  O  O23  1  0.14401600  0.07209900  0.53616200  1
  O  O24  1  0.04130100  0.10787300  0.46923800  1
