# Generated by REPEAT Assigner based on pymatgen
data_DB0-m3_o160_o82_f0_fsc.sym.8_sqe
_audit_creation_date              2022-05-24
_audit_creation_method            REPEAT_Assigner
_cell_length_a                    13.353194
_cell_length_b                    13.356320
_cell_length_c                    6.599218
_cell_angle_alpha                 90.000000
_cell_angle_beta                  89.915277
_cell_angle_gamma                 90.000000
_cell_volume                      1176.966273
_symmetry_space_group_name_H-M    P1
_symmetry_Int_Tables_number       1
loop_
    _symmetry_equiv_pos_site_id
    _symmetry_equiv_pos_as_xyz
    1  x,y,z
loop_
    _atom_site_type_symbol
    _atom_site_label
    _atom_site_fract_x
    _atom_site_fract_y
    _atom_site_fract_z
    _atom_type_partial_charge
    C   C1   0.979753  0.729996  0.762792  -0.047707
    C   C2   0.973052  0.270370  0.768537  -0.024439
    C   C3   0.977337  0.818771  0.656670  -0.214740
    C   C4   0.931411  0.184196  0.690669  -0.161782
    C   C5   0.995738  0.908415  0.751850  -0.066642
    C   C6   0.937847  0.095807  0.797919  -0.122624
    C   C7   0.005024  0.730921  0.965856  -0.252953
    C   C8   0.006332  0.270098  0.965739  -0.254999
    C   C9   0.023493  0.821271  0.060501  0.262378
    C   C10  0.023802  0.180031  0.061952  0.174263
    C   C11  0.011316  0.910626  0.958045  0.033455
    C   C12  0.997267  0.091332  0.969420  0.106804
    C   C13  0.022210  0.000770  0.059858  -0.172524
    C   C14  0.058160  0.821622  0.256589  -0.318771
    C   C15  0.063834  0.179176  0.254312  -0.226919
    C   C16  0.081095  0.910912  0.349845  -0.221149
    C   C17  0.081373  0.089462  0.350990  -0.233070
    C   C18  0.061364  0.000416  0.253483  0.253075
    H   H1   0.965741  0.817455  0.495060  0.148465
    H   H2   0.893283  0.186013  0.546327  0.134030
    H   H3   0.009068  0.974001  0.659916  0.169987
    H   H4   0.891054  0.033432  0.753192  0.075236
    H   H5   0.072045  0.751541  0.333627  0.265391
    H   H6   0.081691  0.248905  0.329166  0.178742
    H   H7   0.114134  0.910438  0.499158  0.105475
    H   H8   0.112476  0.088874  0.502127  0.112335
    O   O1   0.070541  0.606308  0.587105  -0.746263
    O   O2   0.070409  0.390895  0.585492  -0.662083
    O   O3   0.898102  0.604367  0.566625  -0.739153
    O   O4   0.898141  0.395167  0.564172  -0.692677
    C   C19  0.982088  0.638271  0.643752  0.871662
    C   C20  0.980850  0.359416  0.640563  0.768784
    O   O5   0.911794  0.608822  0.146524  -0.655611
    O   O6   0.912459  0.392731  0.144283  -0.731027
    O   O7   0.084395  0.604785  0.167340  -0.661697
    O   O8   0.085062  0.394851  0.165200  -0.696930
    C   C21  0.000791  0.640347  0.090691  0.729431
    C   C22  0.001623  0.360680  0.088455  0.878953
    Zn  Zn1  0.879822  0.500231  0.348206  1.042569
    Zn  Zn2  0.102792  0.499164  0.382317  1.010205
    C   C23  0.281523  0.521787  0.223446  -0.349777
    N   N1   0.233890  0.499434  0.397748  0.027052
    C   C24  0.286506  0.477916  0.566204  0.322834
    C   C25  0.389869  0.478214  0.561356  -0.235180
    C   C26  0.439942  0.500103  0.382855  -0.176429
    C   C27  0.384575  0.522912  0.213309  0.567703
    C   C28  0.602997  0.475418  0.532640  -0.146633
    C   C29  0.543554  0.499657  0.369445  0.244764
    C   C30  0.588990  0.523778  0.188009  -0.006507
    C   C31  0.530834  0.547469  0.022582  0.199895
    N   N2   0.430294  0.546183  0.037414  -0.560172
    C   C32  0.705373  0.476159  0.511612  -0.154810
    N   N3   0.748751  0.499872  0.333816  0.169932
    C   C33  0.692393  0.524322  0.172222  -0.213765
    H   H9   0.727807  0.544276  0.030455  0.171440
    H   H10  0.566061  0.566663  0.880220  0.084635
    H   H11  0.429240  0.460696  0.699061  0.185324
    H   H12  0.571964  0.455414  0.677670  0.103221
    H   H13  0.238360  0.539012  0.089451  0.237603
    H   H14  0.751762  0.457668  0.640397  0.184536
    N   N4   0.236127  0.454884  0.750556  -0.754083
    H   H15  0.200076  0.386237  0.731975  0.319527
    H   H16  0.182205  0.510199  0.775027  0.361408
