# generated using pymatgen
data_Zn2H17C34Br(NO4)2
_symmetry_space_group_name_H-M   'P 1'
_cell_length_a   8.51884800
_cell_length_b   9.16110100
_cell_length_c   13.03442900
_cell_angle_alpha   90.58819200
_cell_angle_beta   86.46482600
_cell_angle_gamma   93.22249600
_symmetry_Int_Tables_number   1
_chemical_formula_structural   Zn2H17C34Br(NO4)2
_chemical_formula_sum   'Zn2 H17 C34 Br1 N2 O8'
_cell_volume   1013.66858255
_cell_formula_units_Z   1
loop_
 _symmetry_equiv_pos_site_id
 _symmetry_equiv_pos_as_xyz
  1  'x, y, z'
loop_
 _atom_site_type_symbol
 _atom_site_label
 _atom_site_symmetry_multiplicity
 _atom_site_fract_x
 _atom_site_fract_y
 _atom_site_fract_z
 _atom_site_occupancy
  Zn  Zn1  1  0.43861600  0.16830800  0.49613000  1
  Zn  Zn2  1  0.42826500  0.84261700  0.50759900  1
  H  H1  1  0.35804900  0.99087700  0.18875000  1
  H  H2  1  0.39001600  0.00374200  0.00359500  1
  H  H3  1  0.94402000  0.04406600  0.57260700  1
  H  H4  1  0.64248800  0.02180200  0.84224500  1
  H  H5  1  0.74754400  0.01864200  0.99944800  1
  H  H6  1  0.28428200  0.00636100  0.84092700  1
  H  H7  1  0.72041800  0.04188900  0.15533100  1
  H  H8  1  0.92594300  0.94354700  0.42805000  1
  H  H9  1  0.17592200  0.57457800  0.55537500  1
  H  H10  1  0.36530900  0.38473500  0.65941800  1
  H  H11  1  0.68969900  0.43455400  0.44569100  1
  H  H12  1  0.50231900  0.62586500  0.34446400  1
  H  H13  1  0.26213000  0.40871600  0.37791800  1
  H  H14  1  0.84155600  0.55410100  0.56856400  1
  H  H15  1  0.00421600  0.62219000  0.71216300  1
  H  H16  1  0.59498900  0.73625800  0.89260100  1
  H  H17  1  0.43105100  0.66767700  0.74901300  1
  C  C1  1  0.97381900  0.01085800  0.13827000  1
  C  C2  1  0.10573600  0.99791200  0.19473100  1
  C  C3  1  0.25445700  0.99949800  0.14589800  1
  C  C4  1  0.27312100  0.00609900  0.04067000  1
  C  C5  1  0.14388200  0.01099800  0.98275500  1
  C  C6  1  0.99386100  0.01545500  0.03061400  1
  C  C7  1  0.16655800  0.01000900  0.87648100  1
  C  C8  1  0.03971500  0.01413500  0.81609800  1
  C  C9  1  0.89012300  0.01946800  0.86349900  1
  C  C10  1  0.86735700  0.01905800  0.96893000  1
  C  C11  1  0.05820000  0.01551900  0.70925500  1
  C  C12  1  0.92853300  0.03233800  0.65423700  1
  C  C13  1  0.78018300  0.03140400  0.70103200  1
  C  C14  1  0.76005800  0.02328100  0.80582800  1
  C  C15  1  0.82625900  0.01956700  0.19154400  1
  C  C16  1  0.81056300  0.99694100  0.29624400  1
  C  C17  1  0.94002700  0.96767500  0.34770800  1
  C  C18  1  0.08779400  0.97950100  0.30008200  1
  C  C19  1  0.64633900  0.02439600  0.63714200  1
  C  C20  1  0.66023300  0.00269100  0.35707900  1
  C  C21  1  0.22091700  0.98641800  0.36572300  1
  C  C22  1  0.20842800  0.00871300  0.64816300  1
  C  C23  1  0.39471300  0.44037100  0.58504800  1
  C  C24  1  0.29572500  0.54195700  0.53037900  1
  C  C25  1  0.52414200  0.55499700  0.56628400  1
  C  C26  1  0.57123800  0.46819400  0.47305400  1
  C  C27  1  0.47156400  0.56988800  0.41855100  1
  C  C28  1  0.34119000  0.45406900  0.43625600  1
  C  C29  1  0.62578700  0.60767800  0.64943700  1
  C  C30  1  0.78677900  0.59550100  0.63905700  1
  C  C31  1  0.87847000  0.63357400  0.71973400  1
  C  C32  1  0.80963200  0.68347900  0.81089800  1
  C  C33  1  0.64913900  0.69762200  0.82095800  1
  C  C34  1  0.55728900  0.65961500  0.74029300  1
  Br  Br1  1  0.93629400  0.72884300  0.92368300  1
  N  N1  1  0.42642900  0.65086000  0.51255500  1
  N  N2  1  0.44019000  0.35995000  0.49122400  1
  O  O1  1  0.59377700  0.89458000  0.60764700  1
  O  O2  1  0.59762300  0.14665400  0.60237600  1
  O  O3  1  0.61310800  0.13094800  0.38891800  1
  O  O4  1  0.59867300  0.87886800  0.39512600  1
  O  O5  1  0.27321900  0.11620500  0.39590100  1
  O  O6  1  0.26950800  0.86438400  0.40110900  1
  O  O7  1  0.25406300  0.88035100  0.61503900  1
  O  O8  1  0.26887700  0.13205900  0.60900200  1
