# generated using pymatgen
data_CuH32C31N3O7
_symmetry_space_group_name_H-M   'P 1'
_cell_length_a   15.97378100
_cell_length_b   17.33309100
_cell_length_c   19.23981800
_cell_angle_alpha   89.99899300
_cell_angle_beta   93.00165100
_cell_angle_gamma   96.76004000
_symmetry_Int_Tables_number   1
_chemical_formula_structural   CuH32C31N3O7
_chemical_formula_sum   'Cu2 H64 C62 N6 O14'
_cell_volume   5282.63111111
_cell_formula_units_Z   2
loop_
 _symmetry_equiv_pos_site_id
 _symmetry_equiv_pos_as_xyz
  1  'x, y, z'
loop_
 _atom_site_type_symbol
 _atom_site_label
 _atom_site_symmetry_multiplicity
 _atom_site_fract_x
 _atom_site_fract_y
 _atom_site_fract_z
 _atom_site_occupancy
  Cu  Cu1  1  0.41063300  0.49495800  0.49809600  1
  Cu  Cu2  1  0.57891300  0.50062700  0.50127600  1
  H  H1  1  0.35402600  0.48003100  0.27399000  1
  H  H2  1  0.63458800  0.52223900  0.72558000  1
  H  H3  1  0.35509500  0.48107900  0.14791800  1
  H  H4  1  0.63308300  0.52252700  0.85163000  1
  H  H5  1  0.62537200  0.51841800  0.16181100  1
  H  H6  1  0.36356900  0.47295000  0.83729900  1
  H  H7  1  0.62403300  0.51796200  0.28640200  1
  H  H8  1  0.36547300  0.47147400  0.71262800  1
  H  H9  1  0.63991200  0.75045100  0.54012300  1
  H  H10  1  0.36149200  0.24954700  0.43718400  1
  H  H11  1  0.58712200  0.01278100  0.50367100  1
  H  H12  1  0.39411900  0.98578700  0.49257000  1
  H  H13  1  0.39685200  0.87320300  0.44567500  1
  H  H14  1  0.57017700  0.11643800  0.57228700  1
  H  H15  1  0.26909800  0.38890100  0.43558400  1
  H  H16  1  0.71821500  0.56152700  0.60081200  1
  H  H17  1  0.98675700  0.43713900  0.44030500  1
  H  H18  1  0.00281900  0.55619800  0.55938500  1
  H  H19  1  0.87088600  0.56753700  0.60987800  1
  H  H20  1  0.11552100  0.38002700  0.42740600  1
  H  H21  1  0.13152000  0.59643100  0.53521700  1
  H  H22  1  0.86368700  0.46917900  0.40638900  1
  H  H23  1  0.63864700  0.34114300  0.39648700  1
  H  H24  1  0.74560100  0.35151500  0.43325100  1
  H  H25  1  0.69082600  0.35999100  0.27846200  1
  H  H26  1  0.79858800  0.37224600  0.31427500  1
  H  H27  1  0.77821600  0.23957700  0.36420100  1
  H  H28  1  0.75642200  0.23768800  0.27098600  1
  H  H29  1  0.67012500  0.22711300  0.32878900  1
  H  H30  1  0.35523600  0.60318600  0.65033100  1
  H  H31  1  0.25882800  0.53784800  0.63721000  1
  H  H32  1  0.27158900  0.71597100  0.65019900  1
  H  H33  1  0.17551800  0.64917100  0.64523600  1
  H  H34  1  0.22281200  0.58593200  0.75444000  1
  H  H35  1  0.21441900  0.68814700  0.76677700  1
  H  H36  1  0.31705000  0.65526400  0.76030800  1
  H  H37  1  0.69357400  0.33358600  0.54637500  1
  H  H38  1  0.65993300  0.24422800  0.49912100  1
  H  H39  1  0.74158500  0.25842400  0.64774100  1
  H  H40  1  0.71302900  0.16920500  0.59891900  1
  H  H41  1  0.81091400  0.21779000  0.50786000  1
  H  H42  1  0.86505000  0.21412400  0.59254400  1
  H  H43  1  0.84062300  0.30628500  0.55774500  1
  H  H44  1  0.40131500  0.65364000  0.35991800  1
  H  H45  1  0.44786800  0.75337000  0.35424500  1
  H  H46  1  0.25825800  0.69640200  0.33915100  1
  H  H47  1  0.30656200  0.79558000  0.33093000  1
  H  H48  1  0.38671600  0.75569600  0.23198200  1
  H  H49  1  0.27405100  0.73280000  0.21527400  1
  H  H50  1  0.33770000  0.65662700  0.24010300  1
  H  H51  1  0.37144300  0.03032800  0.34747600  1
  H  H52  1  0.42945300  0.12607300  0.35467100  1
  H  H53  1  0.24134400  0.08880400  0.31042500  1
  H  H54  1  0.29959700  0.18474900  0.31764300  1
  H  H55  1  0.39627500  0.14887500  0.22895100  1
  H  H56  1  0.28754500  0.13716600  0.19558400  1
  H  H57  1  0.33787800  0.05281200  0.22164100  1
  H  H58  1  0.72946200  0.97430600  0.47810800  1
  H  H59  1  0.68550800  0.88156400  0.44174600  1
  H  H60  1  0.82901600  0.90900800  0.55512700  1
  H  H61  1  0.78558100  0.81581900  0.51852700  1
  H  H62  1  0.82681100  0.86080900  0.40109000  1
  H  H63  1  0.91682400  0.86711300  0.46271900  1
  H  H64  1  0.87065800  0.95405600  0.43776300  1
  C  C1  1  0.48103600  0.34854500  0.50119800  1
  C  C2  1  0.50867100  0.64714700  0.49823500  1
  C  C3  1  0.48977900  0.49707600  0.36587000  1
  C  C4  1  0.49942400  0.49829800  0.63349300  1
  C  C5  1  0.41387200  0.48845500  0.24968700  1
  C  C6  1  0.57485400  0.51113900  0.74979100  1
  C  C7  1  0.41460500  0.48903400  0.17790000  1
  C  C8  1  0.57384200  0.51140600  0.82155800  1
  C  C9  1  0.49037100  0.49950000  0.14533300  1
  C  C10  1  0.49813500  0.49810100  0.85398600  1
  C  C11  1  0.56513000  0.50983000  0.18542500  1
  C  C12  1  0.42371700  0.48398400  0.81377800  1
  C  C13  1  0.56434500  0.50921200  0.25687200  1
  C  C14  1  0.42481000  0.48350100  0.74234000  1
  C  C15  1  0.48888700  0.49811600  0.28958200  1
  C  C16  1  0.50017400  0.49761400  0.70977600  1
  C  C17  1  0.49620900  0.49870100  0.93019600  1
  C  C18  1  0.49214100  0.49951000  0.06910800  1
  C  C19  1  0.47471100  0.26348400  0.50244300  1
  C  C20  1  0.51417200  0.73224300  0.49465500  1
  C  C21  1  0.53401800  0.22548700  0.53997800  1
  C  C22  1  0.44689100  0.76821900  0.46701900  1
  C  C23  1  0.52687500  0.14529000  0.53940500  1
  C  C24  1  0.45041500  0.84802500  0.46837600  1
  C  C25  1  0.46351900  0.10244700  0.49943600  1
  C  C26  1  0.52151200  0.89361700  0.49569900  1
  C  C27  1  0.40355200  0.14048900  0.46330100  1
  C  C28  1  0.59114000  0.85767900  0.51835600  1
  C  C29  1  0.40851200  0.22052600  0.46591700  1
  C  C30  1  0.58663400  0.77748500  0.51895400  1
  C  C31  1  0.45680300  0.01702200  0.49731700  1
  C  C32  1  0.52553600  0.97927400  0.49939400  1
  C  C33  1  0.74620600  0.47835300  0.44960300  1
  C  C34  1  0.24587400  0.54885600  0.52397600  1
  C  C35  1  0.83334700  0.48599600  0.45183800  1
  C  C36  1  0.15935600  0.54725800  0.51651100  1
  C  C37  1  0.87943000  0.51462700  0.51068700  1
  C  C38  1  0.11076800  0.48514900  0.48428700  1
  C  C39  1  0.83661500  0.54205400  0.56394800  1
  C  C40  1  0.15144700  0.42836100  0.45502400  1
  C  C41  1  0.74972500  0.53774500  0.55894800  1
  C  C42  1  0.23841500  0.43317000  0.46020600  1
  C  C43  1  0.97228900  0.52022200  0.51735000  1
  C  C44  1  0.01786600  0.47940800  0.47731300  1
  C  C45  1  0.70363200  0.36947700  0.39019700  1
  C  C46  1  0.73390600  0.34356100  0.32160900  1
  C  C47  1  0.73466600  0.25622400  0.32148600  1
  C  C48  1  0.28959200  0.59739700  0.62779800  1
  C  C49  1  0.24303300  0.65661300  0.66311300  1
  C  C50  1  0.24986300  0.64569800  0.74128700  1
  C  C51  1  0.66947000  0.27140200  0.55153900  1
  C  C52  1  0.73409200  0.23218700  0.59488900  1
  C  C53  1  0.81815900  0.24340600  0.56096500  1
  C  C54  1  0.39099900  0.71495200  0.36864500  1
  C  C55  1  0.31544100  0.73365000  0.32364500  1
  C  C56  1  0.32953300  0.71866800  0.24778200  1
  C  C57  1  0.36648200  0.09233300  0.35871400  1
  C  C58  1  0.30424100  0.12269600  0.30641000  1
  C  C59  1  0.33353800  0.11481000  0.23337700  1
  C  C60  1  0.71622800  0.91137000  0.48905200  1
  C  C61  1  0.79843100  0.87885000  0.50794000  1
  C  C62  1  0.85693600  0.89107900  0.44839300  1
  N  N1  1  0.56637600  0.51102000  0.03844200  1
  N  N2  1  0.42195800  0.48722200  0.96085600  1
  N  N3  1  0.56843600  0.51067300  0.96985500  1
  N  N4  1  0.41989600  0.48761900  0.02945200  1
  N  N5  1  0.70480500  0.50393700  0.50337800  1
  N  N6  1  0.28481200  0.49163800  0.49595100  1
  O  O1  1  0.41177000  0.38239300  0.50115200  1
  O  O2  1  0.57792200  0.61324400  0.49873800  1
  O  O3  1  0.55601100  0.38751700  0.49881300  1
  O  O4  1  0.43379500  0.60802500  0.49997300  1
  O  O5  1  0.41833700  0.49142900  0.39713000  1
  O  O6  1  0.57093400  0.50339900  0.60225600  1
  O  O7  1  0.56311000  0.50263600  0.40004900  1
  O  O8  1  0.42607300  0.49352000  0.59934000  1
  O  O9  1  0.70319600  0.45009300  0.38980300  1
  O  O10  1  0.29138000  0.61187500  0.55637300  1
  O  O11  1  0.59317500  0.26587200  0.58464500  1
  O  O12  1  0.37563400  0.72569500  0.43864900  1
  O  O13  1  0.33818400  0.09908800  0.42570800  1
  O  O14  1  0.66308500  0.90092300  0.54462400  1
