# generated using pymatgen
data_Cu3H17C31O12
_symmetry_space_group_name_H-M   'P 1'
_cell_length_a   18.44214200
_cell_length_b   18.56054800
_cell_length_c   18.73888400
_cell_angle_alpha   109.29998700
_cell_angle_beta   109.66236700
_cell_angle_gamma   108.92987600
_symmetry_Int_Tables_number   1
_chemical_formula_structural   Cu3H17C31O12
_chemical_formula_sum   'Cu6 H34 C62 O24'
_cell_volume   4969.06017759
_cell_formula_units_Z   2
loop_
 _symmetry_equiv_pos_site_id
 _symmetry_equiv_pos_as_xyz
  1  'x, y, z'
loop_
 _atom_site_type_symbol
 _atom_site_label
 _atom_site_symmetry_multiplicity
 _atom_site_fract_x
 _atom_site_fract_y
 _atom_site_fract_z
 _atom_site_occupancy
  Cu  Cu1  1  0.49394300  0.43805200  0.44493000  1
  Cu  Cu2  1  0.49093300  0.55843400  0.56286900  1
  Cu  Cu3  1  0.93131200  0.43262400  0.00526600  1
  Cu  Cu4  1  0.05619600  0.55379600  0.00365800  1
  Cu  Cu5  1  0.05613200  0.99399700  0.56252300  1
  Cu  Cu6  1  0.93390100  0.99780200  0.44550200  1
  H  H1  1  0.38559200  0.61842600  0.31215800  1
  H  H2  1  0.27437100  0.48045400  0.13688200  1
  H  H3  1  0.24848600  0.35964900  0.19787900  1
  H  H4  1  0.10027800  0.37057100  0.19894700  1
  H  H5  1  0.21173600  0.50657600  0.37388700  1
  H  H6  1  0.75652900  0.75967400  0.64199800  1
  H  H7  1  0.87191600  0.87009600  0.64152000  1
  H  H8  1  0.72943400  0.73319000  0.36309800  1
  H  H9  1  0.61575000  0.62094600  0.36356500  1
  H  H10  1  0.60741900  0.48283100  0.75803000  1
  H  H11  1  0.71925200  0.47819100  0.86941500  1
  H  H12  1  0.87978700  0.51402800  0.75106200  1
  H  H13  1  0.76599000  0.51408900  0.63720000  1
  H  H14  1  0.22448100  0.37121500  0.49788400  1
  H  H15  1  0.11145400  0.25740800  0.49729600  1
  H  H16  1  0.26683400  0.12940300  0.51938100  1
  H  H17  1  0.37781600  0.24131200  0.51632700  1
  H  H18  1  0.00996100  0.76526700  0.13194200  1
  H  H19  1  0.98169800  0.73104200  0.37165900  1
  H  H20  1  0.97731600  0.61438600  0.25892000  1
  H  H21  1  0.13303300  0.37716000  0.86868400  1
  H  H22  1  0.13361000  0.26354400  0.75667600  1
  H  H23  1  0.85524200  0.10501700  0.64211600  1
  H  H24  1  0.85553300  0.21659700  0.75718500  1
  H  H25  1  0.18474700  0.62569000  0.40039200  1
  H  H26  1  0.17691500  0.76086200  0.44922800  1
  H  H27  1  0.22156400  0.86146500  0.39466700  1
  H  H28  1  0.27609900  0.82686500  0.29176600  1
  H  H29  1  0.28570600  0.69203200  0.24327900  1
  H  H30  1  0.89023200  0.82900000  0.11856500  1
  H  H31  1  0.90808200  0.95591800  0.09719900  1
  H  H32  1  0.04242800  0.09867900  0.20251200  1
  H  H33  1  0.15896000  0.11411400  0.32851500  1
  H  H34  1  0.14069300  0.98768900  0.35159800  1
  C  C1  1  0.60969500  0.61533400  0.50303600  1
  C  C2  1  0.37327300  0.49668200  0.38565300  1
  C  C3  1  0.37565200  0.38120800  0.50521500  1
  C  C4  1  0.61131900  0.49933100  0.62218200  1
  C  C5  1  0.32016800  0.56193800  0.28525100  1
  C  C6  1  0.24025400  0.56677400  0.28662700  1
  C  C7  1  0.18215700  0.49299000  0.19423900  1
  C  C8  1  0.26092200  0.48700400  0.19143900  1
  C  C9  1  0.24530800  0.42096500  0.22339100  1
  C  C10  1  0.16554700  0.42698400  0.22529800  1
  C  C11  1  0.22455700  0.50168900  0.31923000  1
  C  C12  1  0.30323500  0.49567200  0.31595300  1
  C  C13  1  0.75009000  0.75339900  0.58045100  1
  C  C14  1  0.81586000  0.81550800  0.58015300  1
  C  C15  1  0.80865700  0.80918500  0.50225900  1
  C  C16  1  0.73591700  0.73941400  0.42464400  1
  C  C17  1  0.67182400  0.67553300  0.42492300  1
  C  C18  1  0.67822200  0.68271500  0.50282900  1
  C  C19  1  0.66713300  0.48968400  0.75615800  1
  C  C20  1  0.72996100  0.48625200  0.81863900  1
  C  C21  1  0.80702900  0.49586400  0.81772700  1
  C  C22  1  0.82002600  0.50700800  0.75289900  1
  C  C23  1  0.75543200  0.50640600  0.68818100  1
  C  C24  1  0.67924500  0.49875900  0.69017700  1
  C  C25  1  0.23418900  0.31827700  0.50273600  1
  C  C26  1  0.16990100  0.25346800  0.50186600  1
  C  C27  1  0.18113900  0.18536600  0.50826200  1
  C  C28  1  0.25694000  0.18237100  0.51490500  1
  C  C29  1  0.31953000  0.24532700  0.51232100  1
  C  C30  1  0.30860700  0.31374400  0.50668900  1
  C  C31  1  0.99346200  0.61352400  0.12158100  1
  C  C32  1  0.11270800  0.49223000  0.12417800  1
  C  C33  1  0.99420400  0.37275700  0.88731600  1
  C  C34  1  0.87487800  0.49480200  0.88533700  1
  C  C35  1  0.99693900  0.88243800  0.38480400  1
  C  C36  1  0.87725000  0.87660400  0.50215000  1
  C  C37  1  0.99449100  0.11026600  0.62324000  1
  C  C38  1  0.11284000  0.11610200  0.50684000  1
  C  C39  1  0.00336300  0.75770500  0.18456600  1
  C  C40  1  0.00373600  0.82355800  0.24691100  1
  C  C41  1  0.99709900  0.81516600  0.31597900  1
  C  C42  1  0.98817600  0.73962800  0.31941500  1
  C  C43  1  0.98455900  0.67291100  0.25501800  1
  C  C44  1  0.99360600  0.68244000  0.18817200  1
  C  C45  1  0.07186700  0.31726400  0.81935100  1
  C  C46  1  0.07232900  0.25283000  0.75651500  1
  C  C47  1  0.99444900  0.17687200  0.69192300  1
  C  C48  1  0.91653500  0.16452500  0.69205200  1
  C  C49  1  0.91681800  0.22716300  0.75741400  1
  C  C50  1  0.99428500  0.30427600  0.82046700  1
  C  C51  1  0.23591100  0.64960300  0.31833000  1
  C  C52  1  0.20571400  0.66951500  0.37651200  1
  C  C53  1  0.20102100  0.74572200  0.40410800  1
  C  C54  1  0.22602700  0.80213500  0.37353600  1
  C  C55  1  0.25641800  0.78265200  0.31577300  1
  C  C56  1  0.26163200  0.70674300  0.28847600  1
  C  C57  1  0.01330500  0.90082100  0.23759100  1
  C  C58  1  0.94894300  0.89186600  0.16550400  1
  C  C59  1  0.95892200  0.96303000  0.15337600  1
  C  C60  1  0.03415900  0.04300200  0.21237600  1
  C  C61  1  0.09936200  0.05172600  0.28342800  1
  C  C62  1  0.08895300  0.98085500  0.29634600  1
  O  O1  1  0.56312200  0.53545100  0.43500500  1
  O  O2  1  0.59786100  0.63721800  0.57132000  1
  O  O3  1  0.38580100  0.42810600  0.36526700  1
  O  O4  1  0.41974400  0.56617600  0.46439900  1
  O  O5  1  0.42435300  0.35974300  0.47358600  1
  O  O6  1  0.38450200  0.46057800  0.53577000  1
  O  O7  1  0.60163000  0.46700500  0.54320000  1
  O  O8  1  0.56244900  0.53157500  0.64268500  1
  O  O9  1  0.94499100  0.53190000  0.09922700  1
  O  O10  1  0.04180200  0.63633800  0.08692800  1
  O  O11  1  0.02967300  0.43910500  0.09525200  1
  O  O12  1  0.13779700  0.54497100  0.09457100  1
  O  O13  1  0.93954400  0.34965900  0.91591800  1
  O  O14  1  0.04873300  0.45456400  0.91548600  1
  O  O15  1  0.85015200  0.44766200  0.92026600  1
  O  O16  1  0.95769300  0.54112400  0.90819200  1
  O  O17  1  0.02864400  0.88974600  0.46310900  1
  O  O18  1  0.96236400  0.93024500  0.36534300  1
  O  O19  1  0.95792900  0.92210100  0.57022200  1
  O  O20  1  0.85516300  0.88958100  0.43447100  1
  O  O21  1  0.06443400  0.09902400  0.64336400  1
  O  O22  1  0.92479200  0.06480100  0.54414900  1
  O  O23  1  0.13505500  0.06663700  0.53646900  1
  O  O24  1  0.03196300  0.10547500  0.47515200  1
