# Generated by REPEAT Assigner based on pymatgen
data_DB0-m3_o8_o23_f0_pcu.sym.88_sqe
_audit_creation_date              2022-05-24
_audit_creation_method            REPEAT_Assigner
_cell_length_a                    15.918623
_cell_length_b                    15.950593
_cell_length_c                    17.106787
_cell_angle_alpha                 89.993836
_cell_angle_beta                  89.119550
_cell_angle_gamma                 92.717830
_cell_volume                      4338.209806
_symmetry_space_group_name_H-M    P1
_symmetry_Int_Tables_number       1
loop_
    _symmetry_equiv_pos_site_id
    _symmetry_equiv_pos_as_xyz
    1  x,y,z
loop_
    _atom_site_type_symbol
    _atom_site_label
    _atom_site_fract_x
    _atom_site_fract_y
    _atom_site_fract_z
    _atom_type_partial_charge
    O   O1   0.587398  0.503978  0.390971  -0.665658
    O   O2   0.442580  0.497407  0.384405  -0.663929
    C   C1   0.517449  0.500803  0.351129  0.762816
    O   O3   0.579066  0.378602  0.507253  -0.715469
    O   O4   0.434091  0.372028  0.500646  -0.724932
    C   C2   0.506508  0.336387  0.503923  0.924402
    Zn  Zn1  0.602469  0.504546  0.508397  1.071921
    Zn  Zn2  0.411434  0.495937  0.499643  1.061499
    O   O5   0.571326  0.503078  0.623729  -0.671222
    O   O6   0.426547  0.496509  0.616973  -0.662204
    O   O7   0.579812  0.628456  0.507390  -0.723882
    O   O8   0.434836  0.621882  0.500783  -0.717484
    C   C3   0.496288  0.499676  0.656926  0.764940
    C   C4   0.507394  0.664096  0.504113  0.924430
    C   C5   0.585638  0.051514  0.462811  -0.133622
    C   C6   0.430059  0.043707  0.461661  -0.144990
    C   C7   0.433887  0.949203  0.456670  -0.119573
    H   H1   0.597818  0.930606  0.408828  0.031907
    H   H2   0.584989  0.070677  0.400519  0.022354
    H   H3   0.372257  0.060053  0.494100  0.023924
    H   H4   0.428636  0.070396  0.401868  0.033227
    H   H5   0.442444  0.930365  0.394769  0.021994
    H   H6   0.374307  0.919424  0.479963  0.023955
    C   C8   0.507502  0.754031  0.504124  -0.216043
    C   C9   0.506706  0.079283  0.503974  0.646460
    C   C10  0.588807  0.956983  0.468172  -0.131399
    C   C11  0.507181  0.921199  0.504063  0.673804
    C   C12  0.498566  0.952519  0.587294  -0.181519
    C   C13  0.504701  0.047521  0.587503  -0.089672
    C   C14  0.507423  0.829547  0.504107  -0.377865
    C   C15  0.506469  0.170935  0.503928  -0.373927
    C   C16  0.506396  0.246452  0.503911  -0.217473
    H   H7   0.562981  0.069707  0.617327  0.016980
    H   H8   0.449570  0.071558  0.619255  0.026177
    H   H9   0.549376  0.928304  0.623387  0.040680
    H   H10  0.641952  0.081158  0.490804  0.028757
    H   H11  0.642189  0.940456  0.505159  0.019765
    H   H12  0.436798  0.930190  0.612242  0.032781
    C   C17  0.522629  0.500982  0.265463  -0.193799
    C   C18  0.449818  0.497632  0.222421  0.031316
    C   C19  0.453536  0.497776  0.141929  -0.269274
    C   C20  0.530790  0.501285  0.103144  0.427223
    C   C21  0.603411  0.504567  0.146275  -0.276092
    C   C22  0.599638  0.504425  0.226917  0.012837
    C   C23  0.553066  0.502237  0.868061  -0.012516
    C   C24  0.560317  0.502523  0.787731  -0.174052
    C   C25  0.474355  0.498870  0.905129  0.019425
    N   N1   0.537693  0.501598  0.020485  -0.346882
    N   N2   0.468257  0.498599  0.987920  0.067226
    C   C26  0.489498  0.499445  0.742555  -0.092697
    H   H13  0.622361  0.505184  0.761062  0.125638
    H   H14  0.611342  0.504741  0.899731  0.060667
    H   H15  0.663892  0.507289  0.116555  0.123571
    H   H16  0.657598  0.507035  0.259078  0.093012
    C   C27  0.411396  0.496163  0.778631  -0.155248
    C   C28  0.402037  0.495792  0.859022  0.186660
    H   H17  0.355196  0.493797  0.743941  0.114825
    H   H18  0.394522  0.495064  0.111847  0.081397
    H   H19  0.388701  0.494837  0.250906  0.078103
    N   N3   0.285961  0.490386  0.493969  -0.094436
    C   C29  0.240940  0.537003  0.543336  -0.042065
    C   C30  0.154292  0.534367  0.540493  -0.144724
    C   C31  0.113498  0.483117  0.486155  0.488268
    C   C32  0.160995  0.436024  0.436317  -0.353998
    C   C33  0.247438  0.440290  0.440882  0.105914
    C   C34  0.859660  0.465870  0.467755  -0.135787
    C   C35  0.773012  0.463231  0.464915  -0.034224
    C   C36  0.900471  0.517371  0.521885  0.476260
    N   N4   0.024881  0.477498  0.480092  -0.221119
    N   N5   0.989087  0.522999  0.527941  -0.223194
    N   N6   0.728005  0.510099  0.514076  -0.097051
    H   H20  0.741085  0.423067  0.422802  0.162768
    H   H21  0.892808  0.427004  0.427009  0.075270
    H   H22  0.130389  0.395676  0.393542  0.149882
    H   H23  0.284370  0.403189  0.401604  0.137744
    C   C37  0.766544  0.560437  0.566962  0.092198
    C   C38  0.852987  0.564700  0.571529  -0.341427
    H   H24  0.729624  0.597732  0.606079  0.141104
    H   H25  0.121130  0.573015  0.581418  0.075298
    H   H26  0.883606  0.605244  0.614143  0.152091
    H   H27  0.272853  0.576963  0.585619  0.169479
    C   C39  0.311352  0.491975  0.886905  -0.453990
    C   C40  0.293829  0.491155  0.974358  0.390999
    C   C41  0.199570  0.487149  0.989471  0.090017
    C   C42  0.181767  0.486350  0.076762  -0.220912
    H   H28  0.280261  0.434599  0.861854  0.105433
    H   H29  0.280872  0.546814  0.861915  0.099544
    H   H30  0.320485  0.549877  0.000717  -0.071606
    H   H31  0.319911  0.434616  0.000639  -0.074130
    H   H32  0.170947  0.429199  0.963242  -0.032227
    H   H33  0.171507  0.542720  0.963272  -0.028869
    H   H34  0.209149  0.430731  0.103557  0.046260
    H   H35  0.112797  0.483409  0.087385  0.045258
    H   H36  0.209690  0.544300  0.103583  0.042719
