data_DB0-m3_o150_o6_f0_fsc.sym.11_repeat
_audit_creation_date              2024-02-20
_audit_creation_method            'Materials Studio'
_symmetry_space_group_name_H-M    'P1'
_symmetry_Int_Tables_number       1
_symmetry_cell_setting            triclinic
loop_
_symmetry_equiv_pos_as_xyz
  x,y,z
_cell_length_a                    14.3756
_cell_length_b                    8.5486
_cell_length_c                    15.0509
_cell_angle_alpha                 90.0000
_cell_angle_beta                  90.9699
_cell_angle_gamma                 90.0000
loop_
_atom_site_label
_atom_site_type_symbol
_atom_site_fract_x
_atom_site_fract_y
_atom_site_fract_z
_atom_site_U_iso_or_equiv
_atom_site_adp_type
_atom_site_occupancy
H1     H     0.04513   0.99856   0.56013   0.00000  Uiso   1.00
H2     H     0.95550   0.00077   0.43984   0.00000  Uiso   1.00
C1     C     0.02269   0.13917   0.67390   0.00000  Uiso   1.00
C2     C     0.97753   0.86033   0.32597   0.00000  Uiso   1.00
C3     C     0.97946   0.13932   0.32561   0.00000  Uiso   1.00
C4     C     0.02083   0.86021   0.67437   0.00000  Uiso   1.00
C5     C     0.00959   0.14074   0.76434   0.00000  Uiso   1.00
C6     C     0.99031   0.85888   0.23546   0.00000  Uiso   1.00
C7     C     0.99305   0.13932   0.23511   0.00000  Uiso   1.00
C8     C     0.00718   0.86034   0.76488   0.00000  Uiso   1.00
H3     H     0.99960   0.25106   0.79782   0.00000  Uiso   1.00
H4     H     0.99975   0.74858   0.20173   0.00000  Uiso   1.00
H5     H     0.99971   0.24936   0.20049   0.00000  Uiso   1.00
H6     H     0.00056   0.75036   0.79956   0.00000  Uiso   1.00
C9     C     0.00686   0.00098   0.81085   0.00000  Uiso   1.00
C10    C     0.99328   0.99877   0.18910   0.00000  Uiso   1.00
C11    C     0.03374   0.99924   0.63062   0.00000  Uiso   1.00
C12    C     0.96668   0.00023   0.36933   0.00000  Uiso   1.00
C13    C     0.94628   0.89656   0.95128   0.00000  Uiso   1.00
C14    C     0.05401   0.10320   0.04880   0.00000  Uiso   1.00
H7     H     0.90202   0.81756   0.91377   0.00000  Uiso   1.00
H8     H     0.09838   0.18190   0.08639   0.00000  Uiso   1.00
C15    C     0.94353   0.89495   0.04280   0.00000  Uiso   1.00
C16    C     0.05667   0.10504   0.95727   0.00000  Uiso   1.00
C17    C     0.99776   0.99798   0.09199   0.00000  Uiso   1.00
C18    C     0.00237   0.00202   0.90803   0.00000  Uiso   1.00
O1     O     0.08952   0.66932   0.58127   0.00000  Uiso   1.00
O2     O     0.91074   0.33024   0.41864   0.00000  Uiso   1.00
O3     O     0.90977   0.66874   0.41911   0.00000  Uiso   1.00
O4     O     0.09049   0.33078   0.58078   0.00000  Uiso   1.00
O5     O     0.93101   0.66216   0.60280   0.00000  Uiso   1.00
O6     O     0.06928   0.33739   0.39712   0.00000  Uiso   1.00
O7     O     0.06834   0.66400   0.39758   0.00000  Uiso   1.00
O8     O     0.93192   0.33552   0.60230   0.00000  Uiso   1.00
C19    C     0.01430   0.71786   0.62100   0.00000  Uiso   1.00
C20    C     0.98598   0.28166   0.37897   0.00000  Uiso   1.00
C21    C     0.98477   0.71862   0.37961   0.00000  Uiso   1.00
C22    C     0.01548   0.28085   0.62023   0.00000  Uiso   1.00
Zn1    Zn    0.89728   0.49898   0.51103   0.00000  Uiso   1.00
Zn2    Zn    0.10298   0.50057   0.48888   0.00000  Uiso   1.00
C23    C     0.45895   0.49662   0.41648   0.00000  Uiso   1.00
C24    C     0.54132   0.50291   0.58351   0.00000  Uiso   1.00
C25    C     0.40448   0.50081   0.49090   0.00000  Uiso   1.00
C26    C     0.59579   0.49875   0.50908   0.00000  Uiso   1.00
C27    C     0.44569   0.50390   0.57438   0.00000  Uiso   1.00
C28    C     0.55458   0.49568   0.42560   0.00000  Uiso   1.00
C29    C     0.30487   0.50136   0.48234   0.00000  Uiso   1.00
C30    C     0.69539   0.49821   0.51762   0.00000  Uiso   1.00
N1     N     0.77584   0.49799   0.52183   0.00000  Uiso   1.00
N2     N     0.22442   0.50159   0.47810   0.00000  Uiso   1.00
O9     O     0.88308   0.79665   0.08412   0.00000  Uiso   1.00
H9     H     0.82501   0.85811   0.08891   0.00000  Uiso   1.00
O10    O     0.11732   0.20317   0.91606   0.00000  Uiso   1.00
H10    H     0.09400   0.30953   0.92919   0.00000  Uiso   1.00
O11    O     0.60863   0.49175   0.35186   0.00000  Uiso   1.00
H11    H     0.61876   0.60311   0.33679   0.00000  Uiso   1.00
O12    O     0.39164   0.50776   0.64813   0.00000  Uiso   1.00
H12    H     0.38188   0.39638   0.66339   0.00000  Uiso   1.00
O13    O     0.41830   0.49330   0.33380   0.00000  Uiso   1.00
H13    H     0.41087   0.60478   0.31734   0.00000  Uiso   1.00
O14    O     0.58197   0.50615   0.66619   0.00000  Uiso   1.00
H14    H     0.58954   0.39466   0.68257   0.00000  Uiso   1.00
