# generated using pymatgen
data_Cu6H47C92Cl7O24
_symmetry_space_group_name_H-M   'P 1'
_cell_length_a   18.61157600
_cell_length_b   18.71380600
_cell_length_c   18.64332700
_cell_angle_alpha   109.65578900
_cell_angle_beta   109.44499600
_cell_angle_gamma   109.35458400
_symmetry_Int_Tables_number   1
_chemical_formula_structural   Cu6H47C92Cl7O24
_chemical_formula_sum   'Cu6 H47 C92 Cl7 O24'
_cell_volume   4995.97994328
_cell_formula_units_Z   1
loop_
 _symmetry_equiv_pos_site_id
 _symmetry_equiv_pos_as_xyz
  1  'x, y, z'
loop_
 _atom_site_type_symbol
 _atom_site_label
 _atom_site_symmetry_multiplicity
 _atom_site_fract_x
 _atom_site_fract_y
 _atom_site_fract_z
 _atom_site_occupancy
  Cu  Cu1  1  0.49695200  0.56129200  0.55045600  1
  Cu  Cu2  1  0.50219400  0.44237700  0.43272800  1
  Cu  Cu3  1  0.05704300  0.00409500  0.55858200  1
  Cu  Cu4  1  0.94269500  0.00473900  0.43216200  1
  Cu  Cu5  1  0.93689500  0.44492200  0.99301900  1
  Cu  Cu6  1  0.06302600  0.56607300  0.99696500  1
  H  H1  1  0.60550400  0.63582700  0.34582800  1
  H  H2  1  0.71803300  0.75135900  0.34647600  1
  H  H3  1  0.93595700  0.85224400  0.67014300  1
  H  H4  1  0.88836300  0.92614800  0.69320700  1
  H  H5  1  0.82126800  0.74135900  0.66937700  1
  H  H6  1  0.77318400  0.81508700  0.69224200  1
  H  H7  1  0.26760400  0.62875600  0.24014100  1
  H  H8  1  0.37777500  0.62745400  0.35463800  1
  H  H9  1  0.13192900  0.26394200  0.49828900  1
  H  H10  1  0.24441900  0.37567300  0.49901500  1
  H  H11  1  0.76818300  0.50723800  0.61880700  1
  H  H12  1  0.62934800  0.51852300  0.76039400  1
  H  H13  1  0.03580800  0.89392600  0.25473300  1
  H  H14  1  0.03968300  0.78198300  0.14364300  1
  H  H15  1  0.97543300  0.61456300  0.24774400  1
  H  H16  1  0.97862300  0.72948100  0.36392700  1
  H  H17  1  0.86058700  0.22682800  0.75188100  1
  H  H18  1  0.12706500  0.39894900  0.83887800  1
  H  H19  1  0.12577800  0.28268700  0.72665300  1
  H  H20  1  0.49428100  0.33533500  0.64549200  1
  H  H21  1  0.62273000  0.31998000  0.65426600  1
  H  H22  1  0.47104800  0.12383600  0.38315700  1
  H  H23  1  0.34255300  0.13883300  0.37418300  1
  H  H24  1  0.37136200  0.18244800  0.64617200  1
  H  H25  1  0.39184700  0.06041400  0.65028900  1
  H  H26  1  0.21370400  0.89830600  0.37440000  1
  H  H27  1  0.19276400  0.02029300  0.37016900  1
  H  H28  1  0.98010500  0.64558200  0.78969100  1
  H  H29  1  0.09963000  0.63353800  0.76750200  1
  H  H30  1  0.95052600  0.35581700  0.64407900  1
  H  H31  1  0.83197500  0.36802700  0.66805300  1
  H  H32  1  0.61989700  0.39762400  0.81793100  1
  H  H33  1  0.59679100  0.40608300  0.94211900  1
  H  H34  1  0.82549600  0.65876900  0.11169400  1
  H  H35  1  0.85040700  0.64973500  0.98825100  1
  H  H36  1  0.79207700  0.11989600  0.51753600  1
  H  H37  1  0.65129900  0.98126200  0.42209500  1
  H  H38  1  0.71428400  0.91052700  0.61976700  1
  H  H39  1  0.85578200  0.04850900  0.71448400  1
  H  H40  1  0.17988900  0.34696300  0.32766900  1
  H  H41  1  0.14879300  0.20257100  0.31260800  1
  H  H42  1  0.21422200  0.14457900  0.10999400  1
  H  H43  1  0.24338300  0.28781000  0.12328500  1
  H  H44  1  0.12365600  0.32497600  0.00144100  1
  H  H45  1  0.98907900  0.18639600  0.88266600  1
  H  H46  1  0.89455100  0.18119400  0.06091900  1
  H  H47  1  0.02915500  0.31954100  0.17988300  1
  C  C1  1  0.37527100  0.49182500  0.37087000  1
  C  C2  1  0.61096600  0.61998000  0.48715400  1
  C  C3  1  0.62245400  0.51059800  0.61234900  1
  C  C4  1  0.38932700  0.38387100  0.49795700  1
  C  C5  1  0.75250600  0.75519000  0.56044000  1
  C  C6  1  0.67605800  0.68808800  0.48521100  1
  C  C7  1  0.66476300  0.68711500  0.40732500  1
  C  C8  1  0.72869900  0.75314400  0.40783400  1
  C  C9  1  0.80627000  0.81878900  0.48583000  1
  C  C10  1  0.81503400  0.81558500  0.56056700  1
  C  C11  1  0.87673300  0.85933000  0.65630500  1
  C  C12  1  0.80305700  0.78808600  0.65591400  1
  C  C13  1  0.22931100  0.41090700  0.23280400  1
  C  C14  1  0.16569700  0.41262900  0.16931300  1
  C  C15  1  0.17976900  0.49105400  0.17183500  1
  C  C16  1  0.25660800  0.56737800  0.23785200  1
  C  C17  1  0.31824500  0.56653800  0.30302600  1
  C  C18  1  0.30574000  0.48873500  0.30094100  1
  C  C19  1  0.33317100  0.24545600  0.50457000  1
  C  C20  1  0.26897800  0.18175500  0.50526900  1
  C  C21  1  0.19500400  0.18701300  0.50171800  1
  C  C22  1  0.18798800  0.25759500  0.49987700  1
  C  C23  1  0.25274800  0.32191100  0.50140900  1
  C  C24  1  0.32484500  0.31587300  0.50185400  1
  C  C25  1  0.76241300  0.51112700  0.67562200  1
  C  C26  1  0.82721600  0.51428700  0.74209600  1
  C  C27  1  0.82048100  0.51774200  0.81483500  1
  C  C28  1  0.74839200  0.51861900  0.82049300  1
  C  C29  1  0.68498200  0.51749800  0.75477300  1
  C  C30  1  0.69149700  0.51353300  0.68213200  1
  C  C31  1  0.00507500  0.88692300  0.38309000  1
  C  C32  1  0.87647600  0.88709700  0.48888500  1
  C  C33  1  0.99374000  0.12114300  0.60772600  1
  C  C34  1  0.12367400  0.12023500  0.50017100  1
  C  C35  1  0.00562600  0.62307800  0.11892800  1
  C  C36  1  0.11363400  0.49513100  0.10649700  1
  C  C37  1  0.99546000  0.38785100  0.87219000  1
  C  C38  1  0.88595400  0.51414400  0.88172500  1
  C  C39  1  0.02361700  0.83317800  0.25442700  1
  C  C40  1  0.02651900  0.77040100  0.19213100  1
  C  C41  1  0.00816700  0.69135700  0.18884000  1
  C  C42  1  0.98999400  0.67650800  0.25013000  1
  C  C43  1  0.99233400  0.74145600  0.31585200  1
  C  C44  1  0.00787600  0.81955100  0.31735000  1
  C  C45  1  0.91586900  0.17514300  0.67922500  1
  C  C46  1  0.91872300  0.23942000  0.74586900  1
  C  C47  1  0.99387800  0.32013600  0.80264100  1
  C  C48  1  0.06758800  0.33601200  0.79423100  1
  C  C49  1  0.06690200  0.27024000  0.73121200  1
  C  C50  1  0.99118200  0.18972000  0.67286400  1
  C  C51  1  0.41024300  0.23771200  0.50939500  1
  C  C52  1  0.48916400  0.28900800  0.58776400  1
  C  C53  1  0.56117700  0.28038100  0.59271900  1
  C  C54  1  0.55462500  0.22097500  0.51926400  1
  C  C55  1  0.47613800  0.17031400  0.44076800  1
  C  C56  1  0.40404100  0.17865900  0.43578400  1
  C  C57  1  0.28057100  0.10881200  0.50787900  1
  C  C58  1  0.33656900  0.11999900  0.58642200  1
  C  C59  1  0.34804500  0.05157000  0.58875300  1
  C  C60  1  0.30377500  0.97191400  0.51259500  1
  C  C61  1  0.24800500  0.96067200  0.43410200  1
  C  C62  1  0.23616600  0.02895300  0.43174500  1
  C  C63  1  0.89923500  0.50758800  0.73122000  1
  C  C64  1  0.97392800  0.58197700  0.75832700  1
  C  C65  1  0.04083500  0.57519800  0.74572000  1
  C  C66  1  0.03253900  0.49397000  0.70489600  1
  C  C67  1  0.95728100  0.41953500  0.67654400  1
  C  C68  1  0.89080100  0.42636200  0.68998400  1
  C  C69  1  0.73785000  0.52214300  0.89566900  1
  C  C70  1  0.66589100  0.45463700  0.88268900  1
  C  C71  1  0.65278200  0.45937400  0.95231900  1
  C  C72  1  0.71051300  0.53249000  0.03471700  1
  C  C73  1  0.78128300  0.60083000  0.04742000  1
  C  C74  1  0.79531600  0.59555900  0.97814700  1
  C  C75  1  0.83391700  0.09126700  0.62069700  1
  C  C76  1  0.77562900  0.07323800  0.53943300  1
  C  C77  1  0.69652200  0.99567700  0.48606600  1
  C  C78  1  0.67475400  0.93690000  0.51464900  1
  C  C79  1  0.73182500  0.95604400  0.59685000  1
  C  C80  1  0.81124800  0.03325000  0.64986700  1
  C  C81  1  0.21381700  0.32648700  0.22656800  1
  C  C82  1  0.18789700  0.30275600  0.28014400  1
  C  C83  1  0.17052100  0.22190100  0.27180300  1
  C  C84  1  0.18031000  0.16525400  0.21100900  1
  C  C85  1  0.20677300  0.18907800  0.15787200  1
  C  C86  1  0.22315700  0.26943300  0.16538000  1
  C  C87  1  0.08491900  0.33085300  0.09816700  1
  C  C88  1  0.07330500  0.29355400  0.01458300  1
  C  C89  1  0.99786700  0.21574300  0.94795600  1
  C  C90  1  0.93363900  0.17542200  0.96459000  1
  C  C91  1  0.94491900  0.21279200  0.04788900  1
  C  C92  1  0.02047100  0.29035600  0.11462300  1
  Cl  Cl1  1  0.64583600  0.20953400  0.52563100  1
  Cl  Cl2  1  0.31851900  0.88505600  0.51550200  1
  Cl  Cl3  1  0.11738600  0.48526200  0.68873400  1
  Cl  Cl4  1  0.69335100  0.53914500  0.12300900  1
  Cl  Cl5  1  0.57406300  0.83863400  0.44720000  1
  Cl  Cl6  1  0.15854800  0.06283600  0.20097000  1
  Cl  Cl7  1  0.83772700  0.07672600  0.88003400  1
  O  O1  1  0.42156000  0.56287800  0.44957400  1
  O  O2  1  0.39174600  0.42637100  0.35177500  1
  O  O3  1  0.60026300  0.64232400  0.55650600  1
  O  O4  1  0.56662400  0.53918700  0.41997500  1
  O  O5  1  0.57294700  0.54074400  0.63270400  1
  O  O6  1  0.61178700  0.47703400  0.53229100  1
  O  O7  1  0.39464500  0.46145600  0.52606200  1
  O  O8  1  0.43703200  0.36444500  0.46412400  1
  O  O9  1  0.03296700  0.89772000  0.46322600  1
  O  O10  1  0.97468900  0.93429200  0.35877900  1
  O  O11  1  0.95426500  0.93419500  0.56105000  1
  O  O12  1  0.85945800  0.89865600  0.42008500  1
  O  O13  1  0.06289500  0.11044100  0.63392800  1
  O  O14  1  0.92863400  0.07505700  0.52541700  1
  O  O15  1  0.14177800  0.07392100  0.53609900  1
  O  O16  1  0.04409400  0.11053300  0.46404200  1
  O  O17  1  0.93581600  0.54404600  0.07198100  1
  O  O18  1  0.07211800  0.64446600  0.10421300  1
  O  O19  1  0.03313300  0.46240100  0.09406000  1
  O  O20  1  0.13868900  0.53474600  0.06556500  1
  O  O21  1  0.95728300  0.36424600  0.91486400  1
  O  O22  1  0.03493800  0.46925600  0.88921200  1
  O  O23  1  0.85985700  0.44571500  0.89242000  1
  O  O24  1  0.96811300  0.57881700  0.92755500  1
