# generated using pymatgen
data_ZnH19C30N2O5
_symmetry_space_group_name_H-M   'P 1'
_cell_length_a   9.18219300
_cell_length_b   16.11805600
_cell_length_c   15.92020400
_cell_angle_alpha   94.62465700
_cell_angle_beta   73.40284400
_cell_angle_gamma   106.38927100
_symmetry_Int_Tables_number   1
_chemical_formula_structural   ZnH19C30N2O5
_chemical_formula_sum   'Zn2 H38 C60 N4 O10'
_cell_volume   2166.25983643
_cell_formula_units_Z   2
loop_
 _symmetry_equiv_pos_site_id
 _symmetry_equiv_pos_as_xyz
  1  'x, y, z'
loop_
 _atom_site_type_symbol
 _atom_site_label
 _atom_site_symmetry_multiplicity
 _atom_site_fract_x
 _atom_site_fract_y
 _atom_site_fract_z
 _atom_site_occupancy
  Zn  Zn1  1  0.33253300  0.49520900  0.50073900  1
  Zn  Zn2  1  0.66621400  0.50480700  0.49916200  1
  H  H1  1  0.08085000  0.94135700  0.56745800  1
  H  H2  1  0.91789600  0.05866500  0.43251500  1
  H  H3  1  0.40205000  0.77554100  0.51253700  1
  H  H4  1  0.59669500  0.22447500  0.48735500  1
  H  H5  1  0.87967900  0.76955000  0.44095000  1
  H  H6  1  0.11906700  0.23047000  0.55899000  1
  H  H7  1  0.03146700  0.07564000  0.57330700  1
  H  H8  1  0.96727800  0.92438200  0.42666100  1
  H  H9  1  0.25019500  0.85167400  0.54039500  1
  H  H10  1  0.74855200  0.14834700  0.45956800  1
  H  H11  1  0.25106900  0.64110600  0.05605200  1
  H  H12  1  0.74788300  0.35902500  0.94381500  1
  H  H13  1  0.47154000  0.53951500  0.22079400  1
  H  H14  1  0.52718900  0.46049500  0.77911100  1
  H  H15  1  0.75096100  0.37649000  0.23460200  1
  H  H16  1  0.24782700  0.62354800  0.76528700  1
  H  H17  1  0.21031400  0.65754000  0.92056700  1
  H  H18  1  0.78855700  0.34254500  0.07931000  1
  H  H19  1  0.36252100  0.58499300  0.14636300  1
  H  H20  1  0.63644500  0.41514700  0.85350200  1
  H  H21  1  0.94430700  0.73512100  0.19674400  1
  H  H22  1  0.05434700  0.26492900  0.80319800  1
  H  H23  1  0.71421200  0.63286400  0.27906600  1
  H  H24  1  0.28447400  0.36716300  0.72087100  1
  H  H25  1  0.89594100  0.52076900  0.26257400  1
  H  H26  1  0.10280400  0.47928200  0.73732400  1
  H  H27  1  0.21348500  0.65385500  0.33325900  1
  H  H28  1  0.78524200  0.34620200  0.66666667  1
  H  H29  1  0.08682600  0.65676900  0.48924100  1
  H  H30  1  0.91192700  0.34326700  0.51065800  1
  H  H31  1  0.34441700  0.74394700  0.20144400  1
  H  H32  1  0.49242100  0.88342000  0.16913600  1
  H  H33  1  0.41772600  0.94293900  0.26540300  1
  H  H34  1  0.38445800  0.95925700  0.16212800  1
  H  H35  1  0.65426800  0.25613400  0.79847400  1
  H  H36  1  0.50622200  0.11666900  0.83078200  1
  H  H37  1  0.61415200  0.04081700  0.83779900  1
  H  H38  1  0.58090400  0.05714000  0.73452000  1
  C  C1  1  0.41311700  0.51668900  0.67104300  1
  C  C2  1  0.58563000  0.48332300  0.32885800  1
  C  C3  1  0.41575500  0.33093000  0.51227000  1
  C  C4  1  0.58299200  0.66908600  0.48763300  1
  C  C5  1  0.36644100  0.23637100  0.52168200  1
  C  C6  1  0.63230400  0.76364600  0.47823400  1
  C  C7  1  0.15670500  0.10704400  0.55412600  1
  C  C8  1  0.84204000  0.89297600  0.44582700  1
  C  C9  1  0.20710100  0.19505600  0.54559800  1
  C  C10  1  0.79164400  0.80496300  0.45433900  1
  C  C11  1  0.47483500  0.18834200  0.50589500  1
  C  C12  1  0.52391000  0.81167500  0.49402000  1
  C  C13  1  0.42466900  0.09785000  0.51285600  1
  C  C14  1  0.57407600  0.90216900  0.48707800  1
  C  C15  1  0.26381100  0.05890600  0.53789500  1
  C  C16  1  0.73493400  0.94111400  0.46205500  1
  C  C17  1  0.52907800  0.04511500  0.49551600  1
  C  C18  1  0.46966700  0.95490400  0.50442200  1
  C  C19  1  0.30697000  0.91952000  0.53096200  1
  C  C20  1  0.69177600  0.08050000  0.46898800  1
  C  C21  1  0.20669700  0.97104700  0.54713700  1
  C  C22  1  0.79204900  0.02897400  0.45282300  1
  C  C23  1  0.38585300  0.53659500  0.76534000  1
  C  C24  1  0.61291000  0.46343100  0.23455800  1
  C  C25  1  0.28004200  0.61345000  0.89080500  1
  C  C26  1  0.71880300  0.38662100  0.10907700  1
  C  C27  1  0.29959000  0.59373700  0.80353400  1
  C  C28  1  0.69920500  0.40630600  0.19635600  1
  C  C29  1  0.45955000  0.50325200  0.81383600  1
  C  C30  1  0.53922900  0.49678400  0.18606000  1
  C  C31  1  0.44162000  0.52287000  0.90277900  1
  C  C32  1  0.55722200  0.47720100  0.09710600  1
  C  C33  1  0.34905200  0.57790200  0.94005700  1
  C  C34  1  0.64981500  0.42218200  0.05982200  1
  C  C35  1  0.51222400  0.48925700  0.95536500  1
  C  C36  1  0.48664800  0.51083100  0.04451500  1
  C  C37  1  0.39070800  0.56553500  0.07895000  1
  C  C38  1  0.60820600  0.43457600  0.92092300  1
  C  C39  1  0.32437100  0.59856000  0.02716400  1
  C  C40  1  0.67454700  0.40155300  0.97270700  1
  C  C41  1  0.82681900  0.62581700  0.28085200  1
  C  C42  1  0.17187900  0.37421800  0.71907500  1
  C  C43  1  0.84465200  0.55515900  0.31893700  1
  C  C44  1  0.15407900  0.44487600  0.68097100  1
  C  C45  1  0.97032500  0.58111300  0.35726800  1
  C  C46  1  0.02841100  0.41892500  0.64263600  1
  C  C47  1  0.10500300  0.64343200  0.31497100  1
  C  C48  1  0.89371700  0.35661900  0.68493600  1
  C  C49  1  0.10060900  0.69563400  0.25221700  1
  C  C50  1  0.89808200  0.30442300  0.74770400  1
  C  C51  1  0.95727100  0.68890800  0.23778100  1
  C  C52  1  0.04140800  0.31114000  0.76215000  1
  C  C53  1  0.04890800  0.58700600  0.49370400  1
  C  C54  1  0.94984800  0.41303100  0.50619300  1
  C  C55  1  0.01884900  0.46194200  0.56752500  1
  C  C56  1  0.97990500  0.53809500  0.43237300  1
  C  C57  1  0.24144100  0.84153100  0.22777600  1
  C  C58  1  0.39366400  0.91080900  0.20462900  1
  C  C59  1  0.75720600  0.15853500  0.77214900  1
  C  C60  1  0.60496800  0.08926900  0.79529400  1
  N  N1  1  0.06678400  0.54847200  0.56051800  1
  N  N2  1  0.93197100  0.45156500  0.43938000  1
  N  N3  1  0.23905200  0.75800000  0.20833100  1
  N  N4  1  0.75962200  0.24207000  0.79159300  1
  O  O1  1  0.29774500  0.50157300  0.63245400  1
  O  O2  1  0.70100300  0.49844400  0.36744800  1
  O  O3  1  0.55800800  0.51640300  0.62789500  1
  O  O4  1  0.44073800  0.48361000  0.37200600  1
  O  O5  1  0.30527800  0.36747500  0.51308600  1
  O  O6  1  0.69346800  0.63254100  0.48681800  1
  O  O7  1  0.56344900  0.37533400  0.50529800  1
  O  O8  1  0.43529900  0.62468100  0.49460200  1
  O  O9  1  0.12016600  0.86110800  0.26544900  1
  O  O10  1  0.87847000  0.13894700  0.73447800  1
