# generated using pymatgen
data_ZnH19C31NO5
_symmetry_space_group_name_H-M   'P 1'
_cell_length_a   15.41651600
_cell_length_b   11.66947300
_cell_length_c   17.55511200
_cell_angle_alpha   90.15249400
_cell_angle_beta   90.00000000
_cell_angle_gamma   90.00000000
_symmetry_Int_Tables_number   1
_chemical_formula_structural   ZnH19C31NO5
_chemical_formula_sum   'Zn2 H38 C62 N2 O10'
_cell_volume   3158.19940842
_cell_formula_units_Z   2
loop_
 _symmetry_equiv_pos_site_id
 _symmetry_equiv_pos_as_xyz
  1  'x, y, z'
loop_
 _atom_site_type_symbol
 _atom_site_label
 _atom_site_symmetry_multiplicity
 _atom_site_fract_x
 _atom_site_fract_y
 _atom_site_fract_z
 _atom_site_occupancy
  Zn  Zn1  1  0.50045700  0.50265900  0.91549300  1
  Zn  Zn2  1  0.49952700  0.49733700  0.08450500  1
  H  H1  1  0.14312200  0.82403800  0.11934600  1
  H  H2  1  0.85686400  0.17596200  0.88065300  1
  H  H3  1  0.32155300  0.79298900  0.88800100  1
  H  H4  1  0.67843100  0.20700400  0.11199800  1
  H  H5  1  0.27192000  0.70324500  0.12025700  1
  H  H6  1  0.72806600  0.29675500  0.87974300  1
  H  H7  1  0.19316300  0.91534300  0.88864300  1
  H  H8  1  0.80682100  0.08465000  0.11135500  1
  H  H9  1  0.14060900  0.18047400  0.88235300  1
  H  H10  1  0.85937700  0.81951700  0.11764400  1
  H  H11  1  0.32077500  0.21010100  0.11274600  1
  H  H12  1  0.67920800  0.78989800  0.88725200  1
  H  H13  1  0.26918300  0.30169600  0.88113600  1
  H  H14  1  0.73080300  0.69829600  0.11886000  1
  H  H15  1  0.19275200  0.08718700  0.11236000  1
  H  H16  1  0.80723200  0.91281200  0.88763900  1
  H  H17  1  0.49995700  0.78609500  0.69031300  1
  H  H18  1  0.49830400  0.21391400  0.30968700  1
  H  H19  1  0.50159700  0.77994600  0.30690600  1
  H  H20  1  0.50019700  0.22004700  0.69309000  1
  H  H21  1  0.50169700  0.78838300  0.44056500  1
  H  H22  1  0.50042900  0.21161300  0.55943000  1
  H  H23  1  0.49989800  0.79027000  0.55654800  1
  H  H24  1  0.49803500  0.20974600  0.44345400  1
  H  H25  1  0.49992500  0.32486900  0.80900400  1
  H  H26  1  0.50090400  0.67512400  0.19099200  1
  H  H27  1  0.50010400  0.68463900  0.80765700  1
  H  H28  1  0.49907300  0.31536300  0.19234300  1
  H  H29  1  0.02035200  0.80085000  0.88784500  1
  H  H30  1  0.93016700  0.70795100  0.91018800  1
  H  H31  1  0.02950000  0.55371200  0.94665700  1
  H  H32  1  0.05316500  0.60249800  0.85127800  1
  H  H33  1  0.12206000  0.64515600  0.92978700  1
  H  H34  1  0.06981900  0.29204600  0.08981000  1
  H  H35  1  0.97963500  0.19914500  0.11215400  1
  H  H36  1  0.87792500  0.35483800  0.07021400  1
  H  H37  1  0.94682200  0.39749800  0.14872100  1
  H  H38  1  0.97048400  0.44628300  0.05334100  1
  C  C1  1  0.30604300  0.73940900  0.00412900  1
  C  C2  1  0.69394100  0.26058700  0.99587100  1
  C  C3  1  0.07833100  0.94175400  0.00238300  1
  C  C4  1  0.92165400  0.05824200  0.99761500  1
  C  C5  1  0.18327900  0.81879600  0.06897300  1
  C  C6  1  0.81670700  0.18120300  0.93102700  1
  C  C7  1  0.28374000  0.80049900  0.93961000  1
  C  C8  1  0.71624400  0.19949600  0.06038900  1
  C  C9  1  0.25640000  0.75082600  0.06932700  1
  C  C10  1  0.74358600  0.24917200  0.93067300  1
  C  C11  1  0.16024800  0.87816100  0.00423200  1
  C  C12  1  0.83973700  0.12183600  0.99576600  1
  C  C13  1  0.21149700  0.87036300  0.93993100  1
  C  C14  1  0.78848700  0.12963200  0.06006700  1
  C  C15  1  0.30428300  0.26454700  0.99690000  1
  C  C16  1  0.69570100  0.73544900  0.00309700  1
  C  C17  1  0.07754700  0.06028600  0.99896700  1
  C  C18  1  0.92243700  0.93970900  0.00103100  1
  C  C19  1  0.18106100  0.18558000  0.93255000  1
  C  C20  1  0.81892400  0.81441300  0.06744700  1
  C  C21  1  0.28248700  0.20308700  0.06137800  1
  C  C22  1  0.71749700  0.79691000  0.93861900  1
  C  C23  1  0.25405300  0.25376200  0.93201100  1
  C  C24  1  0.74593200  0.74623100  0.06798600  1
  C  C25  1  0.15881800  0.12532300  0.99713200  1
  C  C26  1  0.84116700  0.87467200  0.00286600  1
  C  C27  1  0.21049100  0.13285800  0.06118100  1
  C  C28  1  0.78949300  0.86713900  0.93881700  1
  C  C29  1  0.00084400  0.88157900  0.00199000  1
  C  C30  1  0.99914100  0.11841700  0.99800900  1
  C  C31  1  0.62300800  0.65449200  0.00160000  1
  C  C32  1  0.37697500  0.34550500  0.99839600  1
  C  C33  1  0.62178700  0.34244800  0.99774500  1
  C  C34  1  0.37819700  0.65754900  0.00225400  1
  C  C35  1  0.49995200  0.60426400  0.77694900  1
  C  C36  1  0.49959600  0.39573600  0.22305000  1
  C  C37  1  0.49988200  0.40443800  0.77767200  1
  C  C38  1  0.50059300  0.59555800  0.22232400  1
  C  C39  1  0.49992100  0.50257100  0.65841000  1
  C  C40  1  0.50010100  0.49743000  0.34158800  1
  C  C41  1  0.49996500  0.60411400  0.69824800  1
  C  C42  1  0.49957100  0.39588800  0.30175100  1
  C  C43  1  0.50000800  0.70569900  0.65958200  1
  C  C44  1  0.49888000  0.29430700  0.34041800  1
  C  C45  1  0.49991100  0.40226200  0.69910700  1
  C  C46  1  0.50059700  0.59773600  0.30089000  1
  C  C47  1  0.50042500  0.60308600  0.45951700  1
  C  C48  1  0.49984900  0.39691600  0.54048100  1
  C  C49  1  0.49961400  0.39561100  0.46053800  1
  C  C50  1  0.50015900  0.60439300  0.53946000  1
  C  C51  1  0.50005400  0.49871100  0.42089800  1
  C  C52  1  0.49996900  0.50129100  0.57910000  1
  C  C53  1  0.50107700  0.70376500  0.41658500  1
  C  C54  1  0.50006000  0.29623300  0.58341100  1
  C  C55  1  0.50111500  0.70053500  0.33846800  1
  C  C56  1  0.50005100  0.29946100  0.66152800  1
  C  C57  1  0.50005900  0.70641600  0.58140200  1
  C  C58  1  0.49885800  0.29359200  0.41859800  1
  C  C59  1  0.99782700  0.73054800  0.92531000  1
  C  C60  1  0.05448200  0.62619800  0.91248500  1
  C  C61  1  0.00215800  0.26944800  0.07468800  1
  C  C62  1  0.94550400  0.37379800  0.08751300  1
  N  N1  1  0.49968200  0.50480900  0.81554500  1
  N  N2  1  0.50030000  0.49518600  0.18445300  1
  O  O1  1  0.59528600  0.61239800  0.06645200  1
  O  O2  1  0.40470200  0.38759200  0.93354500  1
  O  O3  1  0.59136000  0.62319800  0.93530800  1
  O  O4  1  0.40861900  0.37680500  0.06468900  1
  O  O5  1  0.59388100  0.38489400  0.93310600  1
  O  O6  1  0.40610700  0.61510800  0.06689400  1
  O  O7  1  0.59106700  0.37464800  0.06413500  1
  O  O8  1  0.40891200  0.62534100  0.93586400  1
  O  O9  1  0.00193400  0.76397800  0.00195500  1
  O  O10  1  0.99805100  0.23601700  0.99804300  1
