# Generated by REPEAT Assigner based on pymatgen
data_DB0-m3_o17_o1500_f0_fsc.sym.18_sqe
_audit_creation_date              2022-05-24
_audit_creation_method            REPEAT_Assigner
_cell_length_a                    15.213916
_cell_length_b                    8.508321
_cell_length_c                    13.369255
_cell_angle_alpha                 90.000000
_cell_angle_beta                  98.390506
_cell_angle_gamma                 90.000000
_cell_volume                      1712.058360
_symmetry_space_group_name_H-M    P1
_symmetry_Int_Tables_number       1
loop_
    _symmetry_equiv_pos_site_id
    _symmetry_equiv_pos_as_xyz
    1  x,y,z
loop_
    _atom_site_type_symbol
    _atom_site_label
    _atom_site_fract_x
    _atom_site_fract_y
    _atom_site_fract_z
    _atom_type_partial_charge
    H   H1   0.567599  0.010243  0.035172  0.104291
    H   H2   0.432400  0.010243  0.964827  0.104305
    C   C1   0.676096  0.867146  0.010595  -0.156442
    C   C2   0.322012  0.147993  0.989814  0.014564
    C   C3   0.323904  0.867146  0.989404  -0.156379
    C   C4   0.677988  0.147993  0.010184  0.014539
    C   C5   0.764481  0.861221  0.999158  -0.186200
    C   C6   0.233474  0.144826  0.004472  -0.270820
    C   C7   0.235519  0.861221  0.000841  -0.186258
    C   C8   0.766525  0.144826  0.995527  -0.270795
    C   C9   0.811464  0.002281  0.994535  0.164175
    C   C10  0.188536  0.002281  0.005464  0.164212
    C   C11  0.635412  0.008595  0.021770  -0.143319
    C   C12  0.364587  0.008595  0.978229  -0.143370
    C   C13  0.963297  0.014842  0.088159  -0.148640
    C   C14  0.036703  0.014842  0.911839  -0.148672
    H   H3   0.934764  0.015430  0.157624  0.075519
    H   H4   0.065236  0.015429  0.842375  0.075529
    C   C15  0.054587  0.014561  0.091932  -0.030659
    C   C16  0.945413  0.014561  0.908067  -0.030628
    H   H5   0.096707  0.013221  0.164363  0.061114
    H   H6   0.903293  0.013221  0.835636  0.061108
    C   C17  0.091697  0.007182  0.003670  0.124983
    C   C18  0.908303  0.007182  0.996329  0.124965
    O   O1   0.601982  0.668126  0.092216  -0.775029
    O   O2   0.397638  0.346448  0.908047  -0.655626
    O   O3   0.398018  0.668126  0.907783  -0.775032
    O   O4   0.602362  0.346448  0.091952  -0.655624
    O   O5   0.584889  0.673117  0.917819  -0.761812
    O   O6   0.414782  0.341356  0.082003  -0.737132
    O   O7   0.415111  0.673117  0.082180  -0.761823
    O   O8   0.585218  0.341356  0.917996  -0.737118
    C   C19  0.622247  0.723649  0.006922  1.003531
    C   C20  0.376303  0.291892  0.993253  0.839659
    C   C21  0.377753  0.723648  0.993077  1.003520
    C   C22  0.623697  0.291892  0.006746  0.839647
    Zn  Zn1  0.490579  0.506949  0.887175  1.012131
    Zn  Zn2  0.509421  0.506949  0.112824  1.012163
    C   C23  0.439508  0.509514  0.276611  -0.326786
    C   C24  0.560492  0.509514  0.723388  -0.326807
    N   N1   0.520043  0.506587  0.245791  0.168585
    N   N2   0.479957  0.506587  0.754208  0.168607
    C   C25  0.594804  0.501296  0.315938  -0.164285
    C   C26  0.405196  0.501296  0.684061  -0.164281
    C   C27  0.587566  0.504963  0.419062  0.182276
    C   C28  0.412434  0.504963  0.580937  0.182279
    C   C29  0.504641  0.507162  0.449279  -0.043473
    C   C30  0.495359  0.507162  0.550720  -0.043499
    C   C31  0.430773  0.508385  0.377458  0.252963
    C   C32  0.569227  0.508385  0.622541  0.252990
    C   C33  0.661960  0.507048  0.493046  -0.175636
    C   C34  0.338040  0.507048  0.506953  -0.175621
    C   C35  0.652418  0.509197  0.593837  -0.235402
    C   C36  0.347582  0.509197  0.406162  -0.235402
    H   H7   0.380127  0.510949  0.221534  0.234341
    H   H8   0.619873  0.510949  0.778465  0.234335
    H   H9   0.728889  0.507731  0.475822  0.148192
    H   H10  0.271111  0.507731  0.524177  0.148188
    H   H11  0.710962  0.510823  0.650385  0.129983
    H   H12  0.289038  0.510823  0.349614  0.129981
    C   C37  0.800349  0.698161  0.994861  0.163142
    C   C38  0.896325  0.683066  0.980366  -0.332273
    H   H13  0.906308  0.735613  0.907370  0.054595
    H   H14  0.939578  0.730074  0.047030  0.078459
    H   H15  0.912203  0.556426  0.976129  0.082593
    H   H16  0.791530  0.638649  0.066484  0.025000
    H   H17  0.759736  0.637683  0.930786  0.039929
    C   C39  0.184933  0.293672  0.016804  0.358456
    C   C40  0.168286  0.309062  0.125435  -0.273966
    H   H18  0.095997  0.303223  0.128764  0.030174
    H   H19  0.203571  0.213631  0.171394  0.059441
    H   H20  0.194023  0.423365  0.156739  0.063417
    H   H21  0.225168  0.394010  0.998230  -0.118825
    H   H22  0.121115  0.295284  0.964772  -0.058418
    C   C41  0.199651  0.698161  0.005138  0.163186
    C   C42  0.103675  0.683066  0.019633  -0.332297
    H   H23  0.093692  0.735613  0.092629  0.054601
    H   H24  0.060422  0.730073  0.952969  0.078463
    H   H25  0.087797  0.556426  0.023870  0.082592
    H   H26  0.208470  0.638649  0.933515  0.024992
    H   H27  0.240264  0.637683  0.069213  0.039923
    C   C43  0.815067  0.293672  0.983195  0.358464
    C   C44  0.831714  0.309062  0.874564  -0.273990
    H   H28  0.904003  0.303223  0.871235  0.030177
    H   H29  0.796428  0.213631  0.828605  0.059446
    H   H30  0.805976  0.423365  0.843260  0.063428
    H   H31  0.774832  0.394010  0.001769  -0.118825
    H   H32  0.878885  0.295284  0.035227  -0.058422
    C   C45  0.685647  0.488105  0.285470  0.174072
    C   C46  0.722994  0.324156  0.308273  -0.168213
    H   H33  0.714484  0.285703  0.385354  0.031317
    H   H34  0.687499  0.239527  0.253675  0.036122
    H   H35  0.794588  0.323247  0.300567  0.027751
    H   H36  0.686045  0.510115  0.205153  0.040741
    H   H37  0.730344  0.578929  0.324260  -0.018568
    C   C47  0.314352  0.488105  0.714529  0.174037
    C   C48  0.277006  0.324156  0.691726  -0.168223
    H   H38  0.285516  0.285703  0.614645  0.031322
    H   H39  0.312501  0.239527  0.746324  0.036127
    H   H40  0.205411  0.323247  0.699432  0.027753
    H   H41  0.313955  0.510115  0.794846  0.040758
    H   H42  0.269656  0.578929  0.675739  -0.018560
