# Generated by REPEAT Assigner based on pymatgen
data_DB0-m23_o1_o151_f0_pcu
_audit_creation_date              2022-05-24
_audit_creation_method            REPEAT_Assigner
_cell_length_a                    6.549346
_cell_length_b                    14.280028
_cell_length_c                    16.464515
_cell_angle_alpha                 75.318065
_cell_angle_beta                  91.152377
_cell_angle_gamma                 90.831167
_cell_volume                      1489.190192
_symmetry_space_group_name_H-M    P1
_symmetry_Int_Tables_number       1
loop_
    _symmetry_equiv_pos_site_id
    _symmetry_equiv_pos_as_xyz
    1  x,y,z
loop_
    _atom_site_type_symbol
    _atom_site_label
    _atom_site_fract_x
    _atom_site_fract_y
    _atom_site_fract_z
    _atom_type_partial_charge
    C   C1   0.991013  0.787324  0.260544  0.515140
    O   O1   0.991637  0.775962  0.184176  -0.657592
    O   O2   0.997527  0.874816  0.271603  -0.645548
    C   C2   0.993709  0.211630  0.740501  0.517920
    O   O3   0.998121  0.221064  0.817363  -0.661222
    O   O4   0.991717  0.124795  0.727841  -0.656610
    C   C3   0.003104  0.141889  0.072558  0.581831
    O   O5   0.005118  0.093285  0.151440  -0.614201
    O   O6   0.000513  0.095091  0.013714  -0.863057
    Cd  Cd1  0.999963  0.939898  0.119496  1.201602
    Cd  Cd2  0.997466  0.057152  0.880135  1.185178
    C   C4   0.004162  0.855267  0.925921  0.635532
    O   O7   0.997795  0.904782  0.847289  -0.611228
    O   O8   0.002203  0.901104  0.985509  -0.889301
    C   C5   0.597430  0.995567  0.848002  -0.012441
    H   H1   0.675467  0.945261  0.820433  0.127563
    C   C6   0.386765  0.996593  0.848032  0.002090
    H   H2   0.299980  0.946941  0.820675  0.119147
    N   N1   0.289334  0.059455  0.881942  -0.001475
    C   C7   0.397690  0.121125  0.916018  -0.057591
    H   H3   0.319647  0.171639  0.943350  0.130820
    C   C8   0.608356  0.120102  0.915984  0.061310
    H   H4   0.695136  0.169967  0.943098  0.061744
    N   N2   0.705789  0.057342  0.881957  -0.049480
    C   C9   0.400663  0.885968  0.060401  0.073864
    H   H5   0.323008  0.847224  0.020132  0.049092
    C   C10  0.611347  0.889411  0.063342  -0.088947
    H   H6   0.698548  0.853155  0.025510  0.134925
    N   N3   0.708309  0.937396  0.113586  0.034630
    C   C11  0.599524  0.982126  0.160872  -0.063194
    H   H7   0.677149  0.020441  0.201482  0.145937
    C   C12  0.388937  0.978680  0.157940  -0.007030
    H   H8   0.301767  0.014503  0.196115  0.144420
    N   N4   0.291950  0.930509  0.107868  -0.063671
    C   C13  0.047204  0.697022  0.027487  -0.171297
    C   C14  0.009118  0.749747  0.946391  0.054817
    C   C15  0.976609  0.702557  0.883963  -0.239306
    C   C16  0.976892  0.602823  0.902634  -0.170524
    C   C17  0.012792  0.549100  0.984305  0.085192
    C   C18  0.050768  0.597219  0.046238  0.126055
    C   C19  0.973438  0.397138  0.945261  -0.304400
    C   C20  0.011396  0.448325  0.005184  0.065982
    C   C21  0.047502  0.397617  0.087619  0.265379
    C   C22  0.089494  0.446407  0.148299  -0.257426
    C   C23  0.092521  0.545957  0.127472  -0.219499
    C   C24  0.971805  0.297368  0.967743  -0.038277
    C   C25  0.005750  0.247513  0.049915  0.063793
    C   C26  0.043089  0.297700  0.109948  -0.340718
    H   H9   0.947880  0.743875  0.820145  0.147377
    H   H10  0.071053  0.258792  0.174531  0.160314
    H   H11  0.120318  0.406427  0.212355  0.151997
    H   H12  0.128195  0.584137  0.174838  0.148301
    H   H13  0.948328  0.569004  0.852031  0.145899
    H   H14  0.944359  0.432996  0.880365  0.144017
    H   H15  0.075138  0.733863  0.076522  0.158633
    H   H16  0.941115  0.257992  0.920817  0.149115
    C   C27  0.972406  0.288975  0.588886  -0.295775
    C   C28  0.991045  0.297498  0.670112  0.152297
    C   C29  0.006099  0.387846  0.685202  -0.249042
    C   C30  0.004344  0.469737  0.619383  -0.158846
    C   C31  0.985808  0.461920  0.537364  0.037683
    C   C32  0.968731  0.370767  0.522813  0.253431
    C   C33  0.003969  0.636089  0.481148  -0.192083
    C   C34  0.984291  0.543415  0.469727  0.025495
    C   C35  0.963284  0.532142  0.388969  0.272176
    C   C36  0.944146  0.441151  0.375341  -0.279003
    C   C37  0.947735  0.360605  0.442100  -0.254389
    C   C38  0.004878  0.715473  0.412873  -0.165512
    C   C39  0.985581  0.703397  0.332748  0.118840
    C   C40  0.962322  0.611808  0.321034  -0.321344
    H   H17  0.020241  0.394603  0.749003  0.145918
    H   H18  0.942853  0.602285  0.258394  0.155317
    H   H19  0.927848  0.433004  0.312018  0.159701
    H   H20  0.933961  0.289227  0.431207  0.147487
    H   H21  0.017086  0.538844  0.634081  0.122129
    H   H22  0.020755  0.648780  0.542622  0.133915
    H   H23  0.959534  0.218121  0.576852  0.154463
    H   H24  0.022347  0.787389  0.422307  0.131557
