# generated using pymatgen
data_Cu3H32C68N2(ClO4)4
_symmetry_space_group_name_H-M   'P 1'
_cell_length_a   21.53556100
_cell_length_b   21.53556100
_cell_length_c   46.58427600
_cell_angle_alpha   90.00000000
_cell_angle_beta   90.00000000
_cell_angle_gamma   90.00000000
_symmetry_Int_Tables_number   1
_chemical_formula_structural   Cu3H32C68N2(ClO4)4
_chemical_formula_sum   'Cu12 H128 C272 N8 Cl16 O64'
_cell_volume   21604.87357863
_cell_formula_units_Z   4
loop_
 _symmetry_equiv_pos_site_id
 _symmetry_equiv_pos_as_xyz
  1  'x, y, z'
loop_
 _atom_site_type_symbol
 _atom_site_label
 _atom_site_symmetry_multiplicity
 _atom_site_fract_x
 _atom_site_fract_y
 _atom_site_fract_z
 _atom_site_occupancy
  Cu  Cu1  1  0.99999900  0.99999900  0.02798500  1
  Cu  Cu2  1  0.99999900  0.99999900  0.97201500  1
  Cu  Cu3  1  0.50000000  0.50000100  0.52798500  1
  Cu  Cu4  1  0.50000000  0.50000100  0.47201500  1
  Cu  Cu5  1  0.49999900  0.06075300  0.00000000  1
  Cu  Cu6  1  0.93924600  0.49999900  0.00000000  1
  Cu  Cu7  1  0.49999900  0.93924600  0.00000000  1
  Cu  Cu8  1  0.06075200  0.49999900  0.00000000  1
  Cu  Cu9  1  0.00000000  0.56075400  0.50000000  1
  Cu  Cu10  1  0.43924800  0.00000100  0.50000000  1
  Cu  Cu11  1  0.00000000  0.43924700  0.50000000  1
  Cu  Cu12  1  0.56075400  0.00000100  0.50000000  1
  H  H1  1  0.19367500  0.05308600  0.96125100  1
  H  H2  1  0.94691200  0.19367500  0.96125100  1
  H  H3  1  0.80632400  0.94691300  0.96125100  1
  H  H4  1  0.05308600  0.80632400  0.96125100  1
  H  H5  1  0.19367500  0.94691300  0.03874900  1
  H  H6  1  0.94691300  0.80632400  0.03874900  1
  H  H7  1  0.80632400  0.05308600  0.03874800  1
  H  H8  1  0.05308600  0.19367500  0.03874800  1
  H  H9  1  0.69367500  0.55308700  0.46125100  1
  H  H10  1  0.44691400  0.69367600  0.46125100  1
  H  H11  1  0.30632500  0.44691400  0.46125100  1
  H  H12  1  0.55308700  0.30632600  0.46125100  1
  H  H13  1  0.69367500  0.44691400  0.53874900  1
  H  H14  1  0.44691400  0.30632500  0.53874900  1
  H  H15  1  0.30632500  0.55308700  0.53874900  1
  H  H16  1  0.55308700  0.69367600  0.53874900  1
  H  H17  1  0.89175700  0.61042200  0.77588600  1
  H  H18  1  0.38957700  0.89175800  0.77588600  1
  H  H19  1  0.10824000  0.38957700  0.77588600  1
  H  H20  1  0.61042300  0.10824000  0.77588600  1
  H  H21  1  0.89175800  0.38957700  0.22411400  1
  H  H22  1  0.38957700  0.10824300  0.22411400  1
  H  H23  1  0.10824100  0.61042300  0.22411400  1
  H  H24  1  0.61042300  0.89176000  0.22411400  1
  H  H25  1  0.39175900  0.11042400  0.27588600  1
  H  H26  1  0.88957700  0.39175900  0.27588600  1
  H  H27  1  0.60824200  0.88957900  0.27588600  1
  H  H28  1  0.11042300  0.60824100  0.27588600  1
  H  H29  1  0.39175900  0.88957600  0.72411400  1
  H  H30  1  0.88957600  0.60824100  0.72411400  1
  H  H31  1  0.60824200  0.11042200  0.72411400  1
  H  H32  1  0.11042200  0.39175900  0.72411400  1
  H  H33  1  0.49173900  0.90113100  0.14169400  1
  H  H34  1  0.09886900  0.49173900  0.14169400  1
  H  H35  1  0.50826100  0.09887100  0.14169400  1
  H  H36  1  0.90113000  0.50826100  0.14169400  1
  H  H37  1  0.49173900  0.09886900  0.85830600  1
  H  H38  1  0.09886900  0.50826000  0.85830600  1
  H  H39  1  0.50826100  0.90112900  0.85830600  1
  H  H40  1  0.90112900  0.49173800  0.85830600  1
  H  H41  1  0.99173900  0.40113000  0.64169400  1
  H  H42  1  0.59887000  0.99173900  0.64169400  1
  H  H43  1  0.00826000  0.59887000  0.64169400  1
  H  H44  1  0.40113100  0.00826100  0.64169400  1
  H  H45  1  0.99173900  0.59887000  0.35830600  1
  H  H46  1  0.59887100  0.00826300  0.35830600  1
  H  H47  1  0.00826100  0.40113100  0.35830600  1
  H  H48  1  0.40113100  0.99174100  0.35830500  1
  H  H49  1  0.49562700  0.90087300  0.08964300  1
  H  H50  1  0.09912600  0.49562700  0.08964300  1
  H  H51  1  0.50437200  0.09912700  0.08964300  1
  H  H52  1  0.90087200  0.50437200  0.08964300  1
  H  H53  1  0.49562700  0.09912600  0.91035700  1
  H  H54  1  0.09912600  0.50437200  0.91035700  1
  H  H55  1  0.50437200  0.90087200  0.91035700  1
  H  H56  1  0.90087200  0.49562700  0.91035700  1
  H  H57  1  0.99562700  0.40087300  0.58964300  1
  H  H58  1  0.59912800  0.99562800  0.58964300  1
  H  H59  1  0.00437200  0.59912700  0.58964300  1
  H  H60  1  0.40087400  0.00437300  0.58964200  1
  H  H61  1  0.99562800  0.59912700  0.41035700  1
  H  H62  1  0.59912800  0.00437400  0.41035700  1
  H  H63  1  0.00437300  0.40087300  0.41035700  1
  H  H64  1  0.40087400  0.99562900  0.41035700  1
  H  H65  1  0.35105100  0.04399200  0.88553200  1
  H  H66  1  0.38194200  0.15307100  0.89179500  1
  H  H67  1  0.37007800  0.20359700  0.93881700  1
  H  H68  1  0.32493700  0.14575700  0.97926200  1
  H  H69  1  0.95600500  0.35105100  0.88553200  1
  H  H70  1  0.84692600  0.38194200  0.89179500  1
  H  H71  1  0.79640100  0.37007900  0.93881700  1
  H  H72  1  0.85424100  0.32493700  0.97926300  1
  H  H73  1  0.64894800  0.95600600  0.88553200  1
  H  H74  1  0.61805700  0.84692700  0.89179500  1
  H  H75  1  0.62992000  0.79640200  0.93881700  1
  H  H76  1  0.67506200  0.85424100  0.97926300  1
  H  H77  1  0.04399200  0.64894800  0.88553200  1
  H  H78  1  0.15307100  0.61805700  0.89179500  1
  H  H79  1  0.20359700  0.62992000  0.93881700  1
  H  H80  1  0.14575700  0.67506200  0.97926300  1
  H  H81  1  0.35105100  0.95600800  0.11446700  1
  H  H82  1  0.38194200  0.84692900  0.10820500  1
  H  H83  1  0.37007800  0.79640300  0.06118400  1
  H  H84  1  0.32493600  0.85424100  0.02073800  1
  H  H85  1  0.95600600  0.64894800  0.11446700  1
  H  H86  1  0.84692700  0.61805700  0.10820500  1
  H  H87  1  0.79640200  0.62992100  0.06118300  1
  H  H88  1  0.85424100  0.67506200  0.02073700  1
  H  H89  1  0.64894800  0.04399300  0.11446700  1
  H  H90  1  0.61805700  0.15307200  0.10820400  1
  H  H91  1  0.62992000  0.20359700  0.06118300  1
  H  H92  1  0.67506200  0.14575800  0.02073700  1
  H  H93  1  0.04399200  0.35105100  0.11446700  1
  H  H94  1  0.15307100  0.38194200  0.10820500  1
  H  H95  1  0.20359700  0.37007800  0.06118300  1
  H  H96  1  0.14575800  0.32493600  0.02073700  1
  H  H97  1  0.85105200  0.54399200  0.38553200  1
  H  H98  1  0.88194300  0.65307100  0.39179500  1
  H  H99  1  0.87007900  0.70359700  0.43881600  1
  H  H100  1  0.82493700  0.64575900  0.47926200  1
  H  H101  1  0.45601000  0.85105300  0.38553200  1
  H  H102  1  0.34693100  0.88194300  0.39179400  1
  H  H103  1  0.29640400  0.87007900  0.43881600  1
  H  H104  1  0.35424200  0.82493700  0.47926200  1
  H  H105  1  0.14894900  0.45600800  0.38553200  1
  H  H106  1  0.11805800  0.34692900  0.39179500  1
  H  H107  1  0.12992100  0.29640300  0.43881700  1
  H  H108  1  0.17506300  0.35424300  0.47926300  1
  H  H109  1  0.54399500  0.14895000  0.38553200  1
  H  H110  1  0.65307300  0.11805900  0.39179500  1
  H  H111  1  0.70359800  0.12992100  0.43881700  1
  H  H112  1  0.64575800  0.17506300  0.47926300  1
  H  H113  1  0.85105100  0.45600800  0.61446700  1
  H  H114  1  0.88194200  0.34692900  0.60820500  1
  H  H115  1  0.87007900  0.29640300  0.56118300  1
  H  H116  1  0.82493700  0.35424300  0.52073700  1
  H  H117  1  0.45600900  0.14894800  0.61446700  1
  H  H118  1  0.34693000  0.11805800  0.60820500  1
  H  H119  1  0.29640300  0.12992300  0.56118400  1
  H  H120  1  0.35424200  0.17506500  0.52073800  1
  H  H121  1  0.14894800  0.54399200  0.61446700  1
  H  H122  1  0.11805800  0.65307100  0.60820500  1
  H  H123  1  0.12992200  0.70359700  0.56118400  1
  H  H124  1  0.17506300  0.64575900  0.52073800  1
  H  H125  1  0.54399400  0.85105100  0.61446700  1
  H  H126  1  0.65307300  0.88194300  0.60820500  1
  H  H127  1  0.70359800  0.87008000  0.56118300  1
  H  H128  1  0.64575800  0.82493900  0.52073700  1
  C  C1  1  0.99999900  0.11757100  0.00000000  1
  C  C2  1  0.88242800  0.99999900  0.00000000  1
  C  C3  1  0.99999900  0.88242800  0.00000000  1
  C  C4  1  0.11757100  0.99999900  0.00000000  1
  C  C5  1  0.50000000  0.61757200  0.50000000  1
  C  C6  1  0.38242900  0.50000100  0.50000000  1
  C  C7  1  0.50000000  0.38242900  0.50000000  1
  C  C8  1  0.61757100  0.50000100  0.50000000  1
  C  C9  1  0.21791000  0.02938300  0.97834800  1
  C  C10  1  0.97061600  0.21791000  0.97834800  1
  C  C11  1  0.78208900  0.97061600  0.97834800  1
  C  C12  1  0.02938300  0.78208900  0.97834800  1
  C  C13  1  0.21791000  0.97061600  0.02165100  1
  C  C14  1  0.97061600  0.78208900  0.02165100  1
  C  C15  1  0.78208900  0.02938300  0.02165100  1
  C  C16  1  0.02938300  0.21791000  0.02165100  1
  C  C17  1  0.71791000  0.52938400  0.47834800  1
  C  C18  1  0.47061700  0.71791100  0.47834800  1
  C  C19  1  0.28209000  0.47061700  0.47834800  1
  C  C20  1  0.52938400  0.28209100  0.47834800  1
  C  C21  1  0.71791000  0.47061700  0.52165100  1
  C  C22  1  0.47061700  0.28209000  0.52165200  1
  C  C23  1  0.28209000  0.52938400  0.52165200  1
  C  C24  1  0.52938300  0.71791100  0.52165100  1
  C  C25  1  0.28191500  0.02985500  0.97843500  1
  C  C26  1  0.97014400  0.28191500  0.97843500  1
  C  C27  1  0.71808300  0.97014400  0.97843500  1
  C  C28  1  0.02985500  0.71808300  0.97843500  1
  C  C29  1  0.28191500  0.97014400  0.02156500  1
  C  C30  1  0.97014400  0.71808300  0.02156400  1
  C  C31  1  0.71808300  0.02985500  0.02156400  1
  C  C32  1  0.02985500  0.28191500  0.02156400  1
  C  C33  1  0.78191600  0.52985600  0.47843500  1
  C  C34  1  0.47014500  0.78191700  0.47843500  1
  C  C35  1  0.21808400  0.47014500  0.47843500  1
  C  C36  1  0.52985600  0.21808500  0.47843500  1
  C  C37  1  0.78191600  0.47014500  0.52156500  1
  C  C38  1  0.47014500  0.21808500  0.52156500  1
  C  C39  1  0.21808400  0.52985600  0.52156500  1
  C  C40  1  0.52985600  0.78191700  0.52156400  1
  C  C41  1  0.31433400  0.00000000  0.00000000  1
  C  C42  1  0.99999900  0.31433400  0.00000000  1
  C  C43  1  0.68566500  0.00000000  0.00000000  1
  C  C44  1  0.99999900  0.68566500  0.00000000  1
  C  C45  1  0.81433500  0.50000000  0.50000000  1
  C  C46  1  0.50000100  0.81433500  0.50000000  1
  C  C47  1  0.18566500  0.50000000  0.50000000  1
  C  C48  1  0.50000100  0.18566600  0.50000000  1
  C  C49  1  0.18557100  0.99999900  0.00000000  1
  C  C50  1  0.99999900  0.18557100  0.00000000  1
  C  C51  1  0.81442700  0.99999900  0.00000000  1
  C  C52  1  0.99999900  0.81442700  0.00000000  1
  C  C53  1  0.68557200  0.50000100  0.50000000  1
  C  C54  1  0.50000000  0.68557300  0.50000000  1
  C  C55  1  0.31442800  0.50000100  0.50000000  1
  C  C56  1  0.50000000  0.31442900  0.50000000  1
  C  C57  1  0.49999900  0.00000000  0.05452600  1
  C  C58  1  0.99999900  0.49999900  0.05452600  1
  C  C59  1  0.49999900  0.99999900  0.94547400  1
  C  C60  1  0.99999900  0.49999900  0.94547400  1
  C  C61  1  0.00000000  0.50000000  0.55452600  1
  C  C62  1  0.50000100  0.00000100  0.55452600  1
  C  C63  1  0.00000000  0.50000000  0.44547400  1
  C  C64  1  0.50000100  0.00000100  0.44547300  1
  C  C65  1  0.38221700  0.00000000  0.00000000  1
  C  C66  1  0.99999900  0.38221700  0.00000000  1
  C  C67  1  0.61778100  0.00000000  0.00000000  1
  C  C68  1  0.99999900  0.61778100  0.00000000  1
  C  C69  1  0.88221800  0.50000000  0.50000000  1
  C  C70  1  0.50000100  0.88221900  0.50000000  1
  C  C71  1  0.11778200  0.50000000  0.50000000  1
  C  C72  1  0.50000100  0.11778300  0.50000000  1
  C  C73  1  0.03655400  0.45966600  0.80935000  1
  C  C74  1  0.54033400  0.03655400  0.80935100  1
  C  C75  1  0.96344400  0.54033300  0.80935100  1
  C  C76  1  0.45966600  0.96344400  0.80935000  1
  C  C77  1  0.03655400  0.54033400  0.19064900  1
  C  C78  1  0.54033400  0.96344600  0.19064900  1
  C  C79  1  0.96344500  0.45966600  0.19064900  1
  C  C80  1  0.45966600  0.03655600  0.19064900  1
  C  C81  1  0.53655500  0.95966800  0.30935000  1
  C  C82  1  0.04033400  0.53655500  0.30935000  1
  C  C83  1  0.46344600  0.04033500  0.30935000  1
  C  C84  1  0.95966600  0.46344600  0.30935100  1
  C  C85  1  0.53655500  0.04033300  0.69064900  1
  C  C86  1  0.04033300  0.46344500  0.69064900  1
  C  C87  1  0.46344600  0.95966500  0.69064900  1
  C  C88  1  0.95966500  0.53655400  0.69064900  1
  C  C89  1  0.96178000  0.53969600  0.77968200  1
  C  C90  1  0.46030400  0.96178000  0.77968200  1
  C  C91  1  0.03821800  0.46030300  0.77968200  1
  C  C92  1  0.53969700  0.03821800  0.77968200  1
  C  C93  1  0.96178100  0.46030300  0.22031800  1
  C  C94  1  0.46030400  0.03822000  0.22031800  1
  C  C95  1  0.03821900  0.53969700  0.22031800  1
  C  C96  1  0.53969700  0.96178200  0.22031800  1
  C  C97  1  0.46178200  0.03969800  0.27968200  1
  C  C98  1  0.96030300  0.46178200  0.27968200  1
  C  C99  1  0.53821900  0.96030500  0.27968200  1
  C  C100  1  0.03969700  0.53821900  0.27968200  1
  C  C101  1  0.46178200  0.96030200  0.72031800  1
  C  C102  1  0.96030200  0.53821800  0.72031800  1
  C  C103  1  0.53821900  0.03969600  0.72031800  1
  C  C104  1  0.03969600  0.46178100  0.72031800  1
  C  C105  1  0.99999900  0.50000000  0.76480400  1
  C  C106  1  0.50000000  0.99999900  0.76480400  1
  C  C107  1  0.00000000  0.50000000  0.23519600  1
  C  C108  1  0.50000000  0.00000100  0.23519600  1
  C  C109  1  0.50000100  0.00000100  0.26480400  1
  C  C110  1  0.00000000  0.50000000  0.26480400  1
  C  C111  1  0.50000000  0.99999900  0.73519600  1
  C  C112  1  0.99999900  0.50000000  0.73519600  1
  C  C113  1  0.92247000  0.57886600  0.76478000  1
  C  C114  1  0.42113400  0.92247100  0.76478000  1
  C  C115  1  0.07752800  0.42113300  0.76478000  1
  C  C116  1  0.57886700  0.07752700  0.76478100  1
  C  C117  1  0.92247100  0.42113400  0.23521900  1
  C  C118  1  0.42113400  0.07753000  0.23521900  1
  C  C119  1  0.07752800  0.57886700  0.23521900  1
  C  C120  1  0.57886700  0.92247300  0.23521900  1
  C  C121  1  0.42247200  0.07886800  0.26478000  1
  C  C122  1  0.92113300  0.42247200  0.26478100  1
  C  C123  1  0.57752900  0.92113500  0.26478000  1
  C  C124  1  0.07886600  0.57752800  0.26478000  1
  C  C125  1  0.42247200  0.92113200  0.73521900  1
  C  C126  1  0.92113200  0.57752800  0.73521900  1
  C  C127  1  0.57752900  0.07886600  0.73521900  1
  C  C128  1  0.07886600  0.42247100  0.73521900  1
  C  C129  1  0.49605300  0.94479400  0.13043200  1
  C  C130  1  0.05520600  0.49605300  0.13043200  1
  C  C131  1  0.50394600  0.05520700  0.13043200  1
  C  C132  1  0.94479300  0.50394600  0.13043200  1
  C  C133  1  0.49605300  0.05520600  0.86956800  1
  C  C134  1  0.05520600  0.50394600  0.86956800  1
  C  C135  1  0.50394600  0.94479200  0.86956800  1
  C  C136  1  0.94479200  0.49605300  0.86956800  1
  C  C137  1  0.99605300  0.44479300  0.63043200  1
  C  C138  1  0.55520700  0.99605300  0.63043200  1
  C  C139  1  0.00394600  0.55520700  0.63043200  1
  C  C140  1  0.44479400  0.00394600  0.63043200  1
  C  C141  1  0.99605400  0.55520700  0.36956800  1
  C  C142  1  0.55520800  0.00394800  0.36956800  1
  C  C143  1  0.00394700  0.44479400  0.36956800  1
  C  C144  1  0.44479400  0.99605500  0.36956800  1
  C  C145  1  0.49731900  0.94473000  0.10086600  1
  C  C146  1  0.05526900  0.49731900  0.10086600  1
  C  C147  1  0.50268000  0.05527000  0.10086600  1
  C  C148  1  0.94472900  0.50268000  0.10086600  1
  C  C149  1  0.49731800  0.05526900  0.89913400  1
  C  C150  1  0.05526900  0.50268000  0.89913400  1
  C  C151  1  0.50268000  0.94472900  0.89913400  1
  C  C152  1  0.94472900  0.49731800  0.89913400  1
  C  C153  1  0.99731900  0.44473000  0.60086600  1
  C  C154  1  0.55527100  0.99731900  0.60086600  1
  C  C155  1  0.00268000  0.55527000  0.60086600  1
  C  C156  1  0.44473100  0.00268100  0.60086600  1
  C  C157  1  0.99731900  0.55527000  0.39913400  1
  C  C158  1  0.55527100  0.00268200  0.39913400  1
  C  C159  1  0.00268100  0.44473100  0.39913400  1
  C  C160  1  0.44473100  0.99732100  0.39913400  1
  C  C161  1  0.50000000  0.00000000  0.08593100  1
  C  C162  1  0.99999900  0.49999900  0.08593100  1
  C  C163  1  0.49999900  0.99999900  0.91406900  1
  C  C164  1  0.99999900  0.49999900  0.91406900  1
  C  C165  1  0.00000000  0.50000000  0.58593100  1
  C  C166  1  0.50000100  0.00000000  0.58593100  1
  C  C167  1  0.00000000  0.50000000  0.41406900  1
  C  C168  1  0.50000100  0.00000100  0.41406900  1
  C  C169  1  0.50000000  0.00000100  0.14546000  1
  C  C170  1  0.99999900  0.50000000  0.14546000  1
  C  C171  1  0.50000000  0.99999900  0.85454000  1
  C  C172  1  0.99999900  0.49999900  0.85454000  1
  C  C173  1  0.99999900  0.50000000  0.64546000  1
  C  C174  1  0.50000100  0.00000000  0.64546000  1
  C  C175  1  0.00000000  0.50000000  0.35454000  1
  C  C176  1  0.50000100  0.00000200  0.35454000  1
  C  C177  1  0.31408000  0.06200500  0.95527000  1
  C  C178  1  0.32133600  0.03348500  0.92896100  1
  C  C179  1  0.34556100  0.06626900  0.90617100  1
  C  C180  1  0.36286400  0.12742600  0.90968400  1
  C  C181  1  0.35645000  0.15566700  0.93606200  1
  C  C182  1  0.33161300  0.12310800  0.95878900  1
  C  C183  1  0.93799300  0.31408000  0.95527000  1
  C  C184  1  0.96651300  0.32133600  0.92896200  1
  C  C185  1  0.93372900  0.34556100  0.90617100  1
  C  C186  1  0.87257100  0.36286400  0.90968400  1
  C  C187  1  0.84433100  0.35645100  0.93606300  1
  C  C188  1  0.87689000  0.33161300  0.95879000  1
  C  C189  1  0.68591800  0.93799300  0.95527000  1
  C  C190  1  0.67866300  0.96651300  0.92896100  1
  C  C191  1  0.65443700  0.93372900  0.90617100  1
  C  C192  1  0.63713500  0.87257200  0.90968400  1
  C  C193  1  0.64354800  0.84433100  0.93606200  1
  C  C194  1  0.66838500  0.87689100  0.95879000  1
  C  C195  1  0.06200500  0.68591800  0.95527000  1
  C  C196  1  0.03348500  0.67866300  0.92896100  1
  C  C197  1  0.06626900  0.65443700  0.90617100  1
  C  C198  1  0.12742700  0.63713500  0.90968400  1
  C  C199  1  0.15566700  0.64354800  0.93606200  1
  C  C200  1  0.12310800  0.66838500  0.95878900  1
  C  C201  1  0.31408000  0.93799400  0.04472900  1
  C  C202  1  0.32133600  0.96651500  0.07103800  1
  C  C203  1  0.34556200  0.93373100  0.09382900  1
  C  C204  1  0.36286400  0.87257400  0.09031600  1
  C  C205  1  0.35645000  0.84433200  0.06393800  1
  C  C206  1  0.33161300  0.87689100  0.04121100  1
  C  C207  1  0.93799300  0.68591800  0.04472900  1
  C  C208  1  0.96651300  0.67866300  0.07103800  1
  C  C209  1  0.93373000  0.65443700  0.09382900  1
  C  C210  1  0.87257200  0.63713500  0.09031600  1
  C  C211  1  0.84433100  0.64354800  0.06393700  1
  C  C212  1  0.87689000  0.66838600  0.04121000  1
  C  C213  1  0.68591800  0.06200600  0.04472900  1
  C  C214  1  0.67866300  0.03348600  0.07103800  1
  C  C215  1  0.65443700  0.06627000  0.09382800  1
  C  C216  1  0.63713500  0.12742700  0.09031600  1
  C  C217  1  0.64354800  0.15566800  0.06393700  1
  C  C218  1  0.66838600  0.12310900  0.04121000  1
  C  C219  1  0.06200500  0.31408000  0.04472900  1
  C  C220  1  0.03348500  0.32133600  0.07103800  1
  C  C221  1  0.06626900  0.34556200  0.09382800  1
  C  C222  1  0.12742700  0.36286400  0.09031600  1
  C  C223  1  0.15566700  0.35645000  0.06393700  1
  C  C224  1  0.12310800  0.33161300  0.04121000  1
  C  C225  1  0.81408100  0.56200600  0.45527000  1
  C  C226  1  0.82133700  0.53348500  0.42896100  1
  C  C227  1  0.84556200  0.56626900  0.40617100  1
  C  C228  1  0.86286400  0.62742700  0.40968300  1
  C  C229  1  0.85645100  0.65566800  0.43606200  1
  C  C230  1  0.83161400  0.62310900  0.45878900  1
  C  C231  1  0.43799500  0.81408200  0.45527000  1
  C  C232  1  0.46651600  0.82133800  0.42896100  1
  C  C233  1  0.43373300  0.84556400  0.40617100  1
  C  C234  1  0.37257500  0.86286500  0.40968300  1
  C  C235  1  0.34433400  0.85645100  0.43606100  1
  C  C236  1  0.37689200  0.83161400  0.45878900  1
  C  C237  1  0.18591900  0.43799500  0.45527000  1
  C  C238  1  0.17866400  0.46651500  0.42896100  1
  C  C239  1  0.15443800  0.43373100  0.40617100  1
  C  C240  1  0.13713600  0.37257300  0.40968400  1
  C  C241  1  0.14354900  0.34433300  0.43606200  1
  C  C242  1  0.16838600  0.37689200  0.45878900  1
  C  C243  1  0.56200700  0.18592000  0.45527100  1
  C  C244  1  0.53348700  0.17866500  0.42896100  1
  C  C245  1  0.56627100  0.15443900  0.40617100  1
  C  C246  1  0.62742900  0.13713700  0.40968400  1
  C  C247  1  0.65566900  0.14354900  0.43606300  1
  C  C248  1  0.62310900  0.16838700  0.45879000  1
  C  C249  1  0.81408100  0.43799500  0.54472900  1
  C  C250  1  0.82133600  0.46651500  0.57103800  1
  C  C251  1  0.84556200  0.43373100  0.59382900  1
  C  C252  1  0.86286400  0.37257300  0.59031600  1
  C  C253  1  0.85645100  0.34433300  0.56393800  1
  C  C254  1  0.83161400  0.37689200  0.54121000  1
  C  C255  1  0.43799500  0.18592000  0.54473000  1
  C  C256  1  0.46651600  0.17866400  0.57103800  1
  C  C257  1  0.43373200  0.15443800  0.59382900  1
  C  C258  1  0.37257400  0.13713600  0.59031600  1
  C  C259  1  0.34433300  0.14355000  0.56393800  1
  C  C260  1  0.37689200  0.16838700  0.54121100  1
  C  C261  1  0.18591900  0.56200600  0.54473000  1
  C  C262  1  0.17866300  0.53348500  0.57103800  1
  C  C263  1  0.15443700  0.56626900  0.59382900  1
  C  C264  1  0.13713600  0.62742700  0.59031600  1
  C  C265  1  0.14354900  0.65566800  0.56393800  1
  C  C266  1  0.16838600  0.62310900  0.54121100  1
  C  C267  1  0.56200600  0.81408200  0.54472900  1
  C  C268  1  0.53348700  0.82133700  0.57103800  1
  C  C269  1  0.56627000  0.84556200  0.59382900  1
  C  C270  1  0.62742800  0.86286500  0.59031600  1
  C  C271  1  0.65566800  0.85645200  0.56393700  1
  C  C272  1  0.62310900  0.83161500  0.54121000  1
  N  N1  1  0.99999900  0.49999900  0.82381200  1
  N  N2  1  0.50000000  0.99999900  0.82381200  1
  N  N3  1  0.00000000  0.50000000  0.17618800  1
  N  N4  1  0.50000000  0.00000100  0.17618800  1
  N  N5  1  0.50000100  0.00000200  0.32381200  1
  N  N6  1  0.00000000  0.50000000  0.32381200  1
  N  N7  1  0.50000100  0.99999900  0.67618800  1
  N  N8  1  0.99999900  0.50000000  0.67618800  1
  Cl  Cl1  1  0.29930800  0.95586700  0.92429200  1
  Cl  Cl2  1  0.04413000  0.29930700  0.92429100  1
  Cl  Cl3  1  0.70069100  0.04413100  0.92429100  1
  Cl  Cl4  1  0.95586700  0.70069100  0.92429100  1
  Cl  Cl5  1  0.29930900  0.04413300  0.07570800  1
  Cl  Cl6  1  0.04413100  0.70069100  0.07570800  1
  Cl  Cl7  1  0.70069100  0.95586800  0.07570800  1
  Cl  Cl8  1  0.95586700  0.29930800  0.07570800  1
  Cl  Cl9  1  0.79930900  0.45586700  0.42429200  1
  Cl  Cl10  1  0.54413400  0.79931100  0.42429200  1
  Cl  Cl11  1  0.20069200  0.54413300  0.42429200  1
  Cl  Cl12  1  0.45586900  0.20069300  0.42429100  1
  Cl  Cl13  1  0.79930800  0.54413300  0.57570800  1
  Cl  Cl14  1  0.54413400  0.20069100  0.57570800  1
  Cl  Cl15  1  0.20069100  0.45586700  0.57570800  1
  Cl  Cl16  1  0.45586900  0.79930800  0.57570800  1
  O  O1  1  0.01785400  0.08841900  0.02357700  1
  O  O2  1  0.91158000  0.01785400  0.02357700  1
  O  O3  1  0.98214500  0.91158000  0.02357700  1
  O  O4  1  0.08841900  0.98214500  0.02357700  1
  O  O5  1  0.01785400  0.91158000  0.97642300  1
  O  O6  1  0.91158000  0.98214500  0.97642200  1
  O  O7  1  0.98214500  0.08841900  0.97642200  1
  O  O8  1  0.08841900  0.01785400  0.97642200  1
  O  O9  1  0.51785500  0.58842100  0.52357700  1
  O  O10  1  0.41158000  0.51785600  0.52357700  1
  O  O11  1  0.48214500  0.41158100  0.52357700  1
  O  O12  1  0.58842000  0.48214600  0.52357700  1
  O  O13  1  0.51785500  0.41158100  0.47642300  1
  O  O14  1  0.41158000  0.48214600  0.47642300  1
  O  O15  1  0.48214500  0.58842100  0.47642300  1
  O  O16  1  0.58842000  0.51785600  0.47642300  1
  O  O17  1  0.51649000  0.05136600  0.04106600  1
  O  O18  1  0.94863300  0.51649100  0.04106600  1
  O  O19  1  0.48350800  0.94863400  0.04106600  1
  O  O20  1  0.05136500  0.48350800  0.04106600  1
  O  O21  1  0.51649000  0.94863400  0.95893400  1
  O  O22  1  0.94863300  0.48350800  0.95893400  1
  O  O23  1  0.48350800  0.05136500  0.95893400  1
  O  O24  1  0.05136500  0.51649000  0.95893400  1
  O  O25  1  0.01649100  0.55136600  0.54106600  1
  O  O26  1  0.44863500  0.01649200  0.54106600  1
  O  O27  1  0.98350900  0.44863500  0.54106600  1
  O  O28  1  0.55136700  0.98350900  0.54106600  1
  O  O29  1  0.01649100  0.44863500  0.45893400  1
  O  O30  1  0.44863500  0.98351000  0.45893400  1
  O  O31  1  0.98350900  0.55136600  0.45893400  1
  O  O32  1  0.55136700  0.01649200  0.45893400  1
  O  O33  1  0.41127400  0.05136300  0.00770000  1
  O  O34  1  0.94863600  0.41127400  0.00770000  1
  O  O35  1  0.58872500  0.94863700  0.00770000  1
  O  O36  1  0.05136200  0.58872500  0.00770000  1
  O  O37  1  0.41127400  0.94863700  0.99230000  1
  O  O38  1  0.94863600  0.58872500  0.99229900  1
  O  O39  1  0.58872500  0.05136300  0.99229900  1
  O  O40  1  0.05136200  0.41127400  0.99229900  1
  O  O41  1  0.91127500  0.55136300  0.50770000  1
  O  O42  1  0.44863800  0.91127500  0.50770000  1
  O  O43  1  0.08872500  0.44863700  0.50770000  1
  O  O44  1  0.55136400  0.08872600  0.50770000  1
  O  O45  1  0.91127500  0.44863700  0.49229900  1
  O  O46  1  0.44863800  0.08872600  0.49230000  1
  O  O47  1  0.08872500  0.55136300  0.49230000  1
  O  O48  1  0.55136400  0.91127600  0.49229900  1
  O  O49  1  0.07043900  0.41758300  0.82379000  1
  O  O50  1  0.58241600  0.07043900  0.82379000  1
  O  O51  1  0.92955800  0.58241500  0.82379000  1
  O  O52  1  0.41758400  0.92955900  0.82379000  1
  O  O53  1  0.07044000  0.58241600  0.17621000  1
  O  O54  1  0.58241600  0.92956100  0.17621000  1
  O  O55  1  0.92955900  0.41758400  0.17621000  1
  O  O56  1  0.41758400  0.07044100  0.17621000  1
  O  O57  1  0.57044100  0.91758500  0.32379000  1
  O  O58  1  0.08241600  0.57044000  0.32379000  1
  O  O59  1  0.42956100  0.08241800  0.32379000  1
  O  O60  1  0.91758400  0.42956000  0.32379000  1
  O  O61  1  0.57044100  0.08241600  0.67621000  1
  O  O62  1  0.08241600  0.42956000  0.67621000  1
  O  O63  1  0.42956000  0.91758300  0.67621000  1
  O  O64  1  0.91758300  0.57044000  0.67621000  1
