# Generated by REPEAT Assigner based on pymatgen
data_DB0-m3_o1520_o156_f0_fsc.sym.47
_audit_creation_date              2022-05-24
_audit_creation_method            REPEAT_Assigner
_cell_length_a                    8.512220
_cell_length_b                    13.054190
_cell_length_c                    17.471924
_cell_angle_alpha                 90.960445
_cell_angle_beta                  90.087034
_cell_angle_gamma                 95.296895
_cell_volume                      1932.911139
_symmetry_space_group_name_H-M    P1
_symmetry_Int_Tables_number       1
loop_
    _symmetry_equiv_pos_site_id
    _symmetry_equiv_pos_as_xyz
    1  x,y,z
loop_
    _atom_site_type_symbol
    _atom_site_label
    _atom_site_fract_x
    _atom_site_fract_y
    _atom_site_fract_z
    _atom_type_partial_charge
    C   C1   0.110321  0.297299  0.986278  -0.209549
    C   C2   0.886178  0.708771  0.004149  -0.209861
    C   C3   0.979148  0.348776  0.977251  -0.121818
    C   C4   0.017354  0.657297  0.013174  -0.123708
    C   C5   0.831964  0.300105  0.987359  -0.000129
    C   C6   0.164534  0.705970  0.003064  0.006103
    C   C7   0.813332  0.195033  0.996375  -0.356452
    C   C8   0.183161  0.811041  0.994049  -0.358049
    C   C9   0.944644  0.137855  0.994016  0.186867
    C   C10  0.051848  0.868217  0.996413  0.184555
    C   C11  0.093930  0.191173  0.993356  0.149630
    C   C12  0.902563  0.814898  0.997074  0.154516
    C   C13  0.930689  0.029566  0.993869  0.004180
    C   C14  0.065803  0.976506  0.996561  0.005114
    C   C15  0.212302  0.033002  0.001563  -0.168324
    C   C16  0.784189  0.973069  0.988870  -0.162699
    C   C17  0.225789  0.138412  0.998770  -0.256867
    C   C18  0.770703  0.867659  0.991664  -0.265915
    H   H1   0.992550  0.429886  0.967121  0.132324
    H   H2   0.003955  0.576186  0.023303  0.131270
    H   H3   0.694708  0.161876  0.005278  0.149949
    H   H4   0.301786  0.844197  0.985143  0.144349
    H   H5   0.675357  0.007397  0.982070  0.129447
    H   H6   0.321134  0.998675  0.008366  0.138560
    H   H7   0.654056  0.827355  0.989815  0.128856
    H   H8   0.342437  0.178713  0.000622  0.120619
    O   O1   0.680412  0.604643  0.064643  -0.743879
    O   O2   0.316082  0.401430  0.925780  -0.758673
    O   O3   0.676863  0.617486  0.933152  -0.715923
    O   O4   0.319642  0.388579  0.057272  -0.719778
    C   C19  0.734910  0.645621  0.000842  0.930719
    C   C20  0.261593  0.360446  0.989581  0.946157
    O   O5   0.655757  0.403798  0.926576  -0.750154
    O   O6   0.340734  0.602270  0.063837  -0.741387
    O   O7   0.647808  0.390808  0.058082  -0.708926
    O   O8   0.348697  0.615269  0.932347  -0.706731
    C   C21  0.699528  0.363678  0.990577  0.847148
    C   C22  0.296969  0.642398  0.999844  0.840225
    Zn  Zn1  0.499293  0.508147  0.910074  1.050572
    Zn  Zn2  0.497202  0.497926  0.080346  1.038955
    C   C23  0.488843  0.420556  0.771541  -0.261165
    C   C24  0.506561  0.585642  0.218747  -0.224806
    N   N1   0.500475  0.511456  0.809802  0.206224
    N   N2   0.495992  0.494638  0.180620  0.186874
    C   C25  0.512163  0.600625  0.771791  -0.316977
    C   C26  0.485001  0.405581  0.218780  -0.300568
    C   C27  0.476662  0.324202  0.653520  -0.324514
    C   C28  0.517691  0.682252  0.336671  -0.358657
    C   C29  0.488019  0.417306  0.692622  0.262216
    C   C30  0.506453  0.589137  0.297666  0.237847
    C   C31  0.498866  0.507656  0.652952  -0.144912
    C   C32  0.495411  0.499024  0.337512  -0.104520
    C   C33  0.511467  0.599788  0.692688  0.289208
    C   C34  0.484653  0.406715  0.297868  0.232675
    C   C35  0.523403  0.690959  0.653715  -0.361971
    C   C36  0.473925  0.315844  0.337157  -0.165613
    C   C37  0.465887  0.228941  0.535192  -0.399365
    C   C38  0.530422  0.777602  0.454673  -0.400457
    C   C39  0.475777  0.321942  0.574510  0.204701
    C   C40  0.518253  0.684677  0.415699  0.281834
    C   C41  0.485678  0.412767  0.534827  -0.081783
    C   C42  0.507192  0.594334  0.455678  -0.069097
    C   C43  0.464196  0.226514  0.456097  0.348078
    C   C44  0.532204  0.781588  0.533573  0.154216
    C   C45  0.473928  0.317480  0.416386  -0.112487
    C   C46  0.521271  0.690476  0.574308  0.189946
    C   C47  0.497532  0.505887  0.574129  0.122034
    C   C48  0.495524  0.501256  0.416423  0.062724
    C   C49  0.508410  0.597063  0.534728  -0.104728
    C   C50  0.484706  0.410429  0.455902  0.061848
    H   H9   0.479945  0.349700  0.803014  0.178037
    H   H10  0.515380  0.656413  0.187166  0.162636
    H   H11  0.468719  0.253127  0.684743  0.140214
    H   H12  0.526530  0.753263  0.305353  0.169776
    H   H13  0.534611  0.761236  0.687004  0.169529
    H   H14  0.465524  0.244137  0.305021  0.075701
    H   H15  0.459594  0.157938  0.566419  0.216215
    H   H16  0.539223  0.848334  0.423293  0.178651
    H   H17  0.521646  0.672768  0.803485  0.183162
    H   H18  0.476631  0.333300  0.187273  0.204945
    N   N3   0.460707  0.132050  0.415448  -0.110579
    C   C51  0.322249  0.063740  0.431025  -0.079093
    C   C52  0.604457  0.083978  0.425432  -0.278575
    H   H19  0.247660  0.098686  0.474383  0.034567
    H   H20  0.356383  0.989109  0.451621  0.057390
    H   H21  0.252708  0.049800  0.377529  0.027057
    H   H22  0.706369  0.140586  0.413450  0.098465
    H   H23  0.606913  0.018316  0.384569  0.100372
    H   H24  0.613718  0.057205  0.484977  0.060235
    N   N4   0.546668  0.879336  0.570347  -0.065467
    C   C53  0.407348  0.900535  0.612841  -0.055580
    C   C54  0.696209  0.901711  0.609217  -0.127879
    H   H25  0.319242  0.832498  0.609587  0.027633
    H   H26  0.354959  0.966465  0.586975  0.000453
    H   H27  0.433129  0.920047  0.673756  0.042583
    H   H28  0.763740  0.833068  0.606354  0.045138
    H   H29  0.682269  0.924590  0.669951  0.060904
    H   H30  0.765405  0.965581  0.579900  0.033410
