# generated using pymatgen
data_Fe2H23C58N4O16F
_symmetry_space_group_name_H-M   'P 1'
_cell_length_a   17.25376400
_cell_length_b   12.30323400
_cell_length_c   19.05033500
_cell_angle_alpha   77.97797600
_cell_angle_beta   90.60881600
_cell_angle_gamma   114.37611700
_symmetry_Int_Tables_number   1
_chemical_formula_structural   Fe2H23C58N4O16F
_chemical_formula_sum   'Fe2 H23 C58 N4 O16 F1'
_cell_volume   3589.76225031
_cell_formula_units_Z   1
loop_
 _symmetry_equiv_pos_site_id
 _symmetry_equiv_pos_as_xyz
  1  'x, y, z'
loop_
 _atom_site_type_symbol
 _atom_site_label
 _atom_site_symmetry_multiplicity
 _atom_site_fract_x
 _atom_site_fract_y
 _atom_site_fract_z
 _atom_site_occupancy
  Fe  Fe1  1  0.53537600  0.02843400  0.31334200  1
  Fe  Fe2  1  0.46534200  0.97277500  0.68652000  1
  H  H1  1  0.01073100  0.90717800  0.23852700  1
  H  H2  1  0.72460800  0.94964500  0.02743500  1
  H  H3  1  0.98923800  0.09134600  0.76311200  1
  H  H4  1  0.27594500  0.04952500  0.97527100  1
  H  H5  1  0.93548700  0.90796900  0.04694300  1
  H  H6  1  0.06443500  0.09050600  0.95466300  1
  H  H7  1  0.06544600  0.00847300  0.71033600  1
  H  H8  1  0.29536700  0.99189300  0.86512800  1
  H  H9  1  0.34857400  0.04574100  0.07974000  1
  H  H10  1  0.27181500  0.92061400  0.30672200  1
  H  H11  1  0.12748200  0.89317600  0.28434200  1
  H  H12  1  0.93468600  0.99120200  0.29110700  1
  H  H13  1  0.70577000  0.00939000  0.13552000  1
  H  H14  1  0.72863600  0.07610400  0.69359000  1
  H  H15  1  0.87267400  0.10342400  0.71696800  1
  H  H16  1  0.17815500  0.96580600  0.66503600  1
  H  H17  1  0.82211900  0.03483500  0.33595000  1
  H  H18  1  0.45289400  0.83804700  0.53270700  1
  H  H19  1  0.48313300  0.54397200  0.67024900  1
  H  H20  1  0.54745800  0.16295700  0.46690100  1
  H  H21  1  0.51679500  0.45681200  0.32944800  1
  H  H22  1  0.50377400  0.60820200  0.37588800  1
  H  H23  1  0.49613900  0.39249300  0.62383400  1
  C  C1  1  0.21659300  0.99219700  0.11324500  1
  C  C2  1  0.15661400  0.95305100  0.16943500  1
  C  C3  1  0.08221100  0.95124600  0.14140800  1
  C  C4  1  0.17631900  0.00919100  0.05130800  1
  C  C5  1  0.01113500  0.92836400  0.18055500  1
  C  C6  1  0.93700300  0.94661300  0.15108200  1
  C  C7  1  0.88254900  0.97405500  0.18904500  1
  C  C8  1  0.82084000  0.98102200  0.14587200  1
  C  C9  1  0.83910300  0.95874400  0.08106600  1
  C  C10  1  0.78920600  0.96053700  0.01788600  1
  C  C11  1  0.82316600  0.98923600  0.95012700  1
  C  C12  1  0.78267300  0.00567500  0.88797200  1
  C  C13  1  0.84293900  0.04455000  0.83188700  1
  C  C14  1  0.91738200  0.04674600  0.86008200  1
  C  C15  1  0.98870500  0.07001600  0.82107100  1
  C  C16  1  0.06320800  0.05255900  0.85043000  1
  C  C17  1  0.11797600  0.02600000  0.81224900  1
  C  C18  1  0.17996100  0.01946000  0.85525200  1
  C  C19  1  0.16153300  0.04115300  0.92025200  1
  C  C20  1  0.21099000  0.03857600  0.98378500  1
  C  C21  1  0.11549200  0.00544500  0.74413200  1
  C  C22  1  0.17964700  0.98048900  0.71908400  1
  C  C23  1  0.24526300  0.97653000  0.76153200  1
  C  C24  1  0.24526200  0.99483400  0.83134500  1
  C  C25  1  0.30013300  0.01084700  0.12417000  1
  C  C26  1  0.32036300  0.98518100  0.19479000  1
  C  C27  1  0.25711000  0.94023300  0.25154600  1
  C  C28  1  0.17485900  0.92533000  0.23937100  1
  C  C29  1  0.88489700  0.99474300  0.25712500  1
  C  C30  1  0.82084200  0.02024400  0.28188700  1
  C  C31  1  0.75551500  0.02462600  0.23916200  1
  C  C32  1  0.75569700  0.00621000  0.16944500  1
  C  C33  1  0.69909700  0.98724100  0.87610200  1
  C  C34  1  0.67940500  0.01257200  0.80523500  1
  C  C35  1  0.74302000  0.05698600  0.74890800  1
  C  C36  1  0.82509600  0.07179300  0.76172900  1
  C  C37  1  0.68554200  0.04158700  0.27172700  1
  C  C38  1  0.48513100  0.80232000  0.40944300  1
  C  C39  1  0.40810000  0.00990600  0.21260300  1
  C  C40  1  0.52995000  0.24350600  0.33428800  1
  C  C41  1  0.47350100  0.71502300  0.47875800  1
  C  C42  1  0.46027100  0.75363800  0.53885200  1
  C  C43  1  0.46410900  0.69372500  0.60714300  1
  C  C44  1  0.47751400  0.58905800  0.61656900  1
  C  C45  1  0.48600500  0.54405800  0.55747900  1
  C  C46  1  0.48588200  0.60721500  0.48811100  1
  C  C47  1  0.49868200  0.43803000  0.56882500  1
  C  C48  1  0.51404100  0.39344200  0.51158500  1
  C  C49  1  0.51386400  0.45657900  0.44222200  1
  C  C50  1  0.50119700  0.56260000  0.43088100  1
  C  C51  1  0.52655300  0.28572900  0.52091100  1
  C  C52  1  0.53987100  0.24721500  0.46078500  1
  C  C53  1  0.53600600  0.30716400  0.39249200  1
  C  C54  1  0.52239400  0.41166100  0.38311500  1
  C  C55  1  0.59191200  0.98858000  0.78668500  1
  C  C56  1  0.47089700  0.75795100  0.66516700  1
  C  C57  1  0.31517300  0.95987800  0.72854800  1
  C  C58  1  0.51516400  0.19858300  0.59025600  1
  N  N1  1  0.09409700  0.98479900  0.06888900  1
  N  N2  1  0.90976600  0.93608200  0.08509800  1
  N  N3  1  0.90541700  0.01364800  0.93256800  1
  N  N4  1  0.09049900  0.06301900  0.91639900  1
  O  O1  1  0.61760600  0.03743700  0.23829900  1
  O  O2  1  0.46269400  0.76707800  0.34908000  1
  O  O3  1  0.68671100  0.04878900  0.33949400  1
  O  O4  1  0.51517000  0.91917200  0.41002500  1
  O  O5  1  0.41862700  0.96050700  0.27795200  1
  O  O6  1  0.47370300  0.09283100  0.16916000  1
  O  O7  1  0.58724200  0.20047300  0.32777600  1
  O  O8  1  0.45425600  0.19029700  0.31179800  1
  O  O9  1  0.58218400  0.04089200  0.72183800  1
  O  O10  1  0.52573700  0.90289200  0.82834600  1
  O  O11  1  0.41346600  0.80050300  0.67231500  1
  O  O12  1  0.54708100  0.81227600  0.68652700  1
  O  O13  1  0.53747700  0.23394200  0.65060100  1
  O  O14  1  0.38320700  0.96380000  0.76171900  1
  O  O15  1  0.48539200  0.08174000  0.58975500  1
  O  O16  1  0.31373700  0.95296200  0.66072400  1
  F  F1  1  0.63745400  0.94419500  0.93104500  1
