# Generated by REPEAT Assigner based on pymatgen
data_DB0-m9_o3_o17_f0_sra.sym.79
_audit_creation_date              2022-05-24
_audit_creation_method            REPEAT_Assigner
_cell_length_a                    6.325411
_cell_length_b                    21.776389
_cell_length_c                    25.334394
_cell_angle_alpha                 105.354328
_cell_angle_beta                  90.552922
_cell_angle_gamma                 90.629767
_cell_volume                      3364.629992
_symmetry_space_group_name_H-M    P1
_symmetry_Int_Tables_number       1
loop_
    _symmetry_equiv_pos_site_id
    _symmetry_equiv_pos_as_xyz
    1  x,y,z
loop_
    _atom_site_type_symbol
    _atom_site_label
    _atom_site_fract_x
    _atom_site_fract_y
    _atom_site_fract_z
    _atom_type_partial_charge
    O  O1   0.428235  0.435851  0.522329  -0.396509
    O  O2   0.223995  0.422326  0.457998  -0.423773
    O  O3   0.010849  0.519092  0.430539  -0.550588
    C  C1   0.341802  0.428127  0.416293  0.632449
    O  O4   0.139982  0.479416  0.569537  -0.555920
    O  O5   0.934042  0.575555  0.541753  -0.366082
    C  C2   0.311996  0.446663  0.566266  0.578374
    O  O6   0.508203  0.466474  0.423208  -0.556868
    O  O7   0.327449  0.550489  0.506123  -0.567450
    V  V1   0.050854  0.494074  0.499049  1.265241
    O  O8   0.643256  0.542365  0.578380  -0.569756
    C  C3   0.817992  0.575364  0.584140  0.616777
    O  O9   0.730209  0.573380  0.479124  -0.453494
    C  C4   0.846036  0.556575  0.434069  0.596747
    V  V2   0.551459  0.509465  0.501274  1.314940
    O  O10  0.823404  0.452833  0.492263  -0.560150
    C  C5   0.751576  0.917856  0.145820  0.007477
    H  H1   0.641331  0.956437  0.150380  0.068232
    C  C6   0.746060  0.880014  0.181601  -0.200453
    H  H2   0.633368  0.890415  0.214358  0.104617
    C  C7   0.885727  0.830442  0.176041  0.079250
    C  C8   0.032341  0.819681  0.134445  -0.110395
    H  H3   0.141175  0.780719  0.128834  0.097207
    C  C9   0.037162  0.857646  0.098507  -0.132129
    H  H4   0.150175  0.848486  0.065696  0.117524
    C  C10  0.896098  0.906704  0.104139  -0.047251
    C  C11  0.048064  0.752925  0.219586  -0.182873
    H  H5   0.191067  0.754488  0.197053  0.122446
    C  C12  0.040218  0.714931  0.255349  -0.131221
    H  H6   0.177878  0.687903  0.259937  0.120235
    C  C13  0.861319  0.713089  0.285864  0.094996
    C  C14  0.690574  0.749876  0.280172  -0.183708
    H  H7   0.547563  0.748318  0.302700  0.121180
    C  C15  0.698424  0.787871  0.244412  -0.128600
    H  H8   0.560767  0.814899  0.239826  0.119056
    C  C16  0.877352  0.789734  0.213916  0.092711
    C  C17  0.706428  0.683292  0.365408  -0.110446
    H  H9   0.597550  0.722237  0.370970  0.098752
    C  C18  0.701699  0.645431  0.401428  -0.136911
    H  H10  0.588712  0.654654  0.434246  0.114814
    C  C19  0.842859  0.596412  0.395882  -0.033062
    C  C20  0.987374  0.585187  0.354198  -0.001543
    H  H11  0.097721  0.546641  0.349708  0.073244
    C  C21  0.992791  0.622926  0.318330  -0.197482
    H  H12  0.105510  0.612483  0.285578  0.103992
    C  C22  0.853029  0.672464  0.323808  0.077102
    C  C23  0.693167  0.631972  0.674461  -0.164001
    C  C24  0.840838  0.626852  0.633943  -0.015487
    C  C25  0.002260  0.671263  0.640028  -0.321025
    C  C26  0.014456  0.721188  0.686704  0.323327
    C  C27  0.865322  0.726574  0.727045  -0.111330
    C  C28  0.705092  0.681817  0.720985  0.159060
    C  C29  0.174901  0.765966  0.692887  -0.312078
    C  C30  0.185921  0.816141  0.739336  0.104862
    C  C31  0.036090  0.821606  0.779439  -0.214360
    C  C32  0.875954  0.776819  0.773395  0.084261
    C  C33  0.726841  0.782184  0.813736  0.158838
    C  C34  0.566880  0.737264  0.807650  -0.210269
    C  C35  0.555897  0.687081  0.761207  -0.183346
    C  C36  0.047367  0.871655  0.825838  0.431839
    C  C37  0.899571  0.876776  0.866343  -0.265001
    C  C38  0.738676  0.832205  0.860339  -0.201036
    H  H13  0.566188  0.597183  0.669373  0.111738
    H  H14  0.117473  0.667378  0.608112  0.143894
    H  H15  0.291820  0.761766  0.661333  0.133000
    H  H16  0.311863  0.851247  0.744294  0.052552
    H  H17  0.623502  0.836065  0.892261  0.131534
    H  H18  0.450210  0.741396  0.839255  0.134884
    H  H19  0.430289  0.651880  0.756301  0.114430
    C  C39  0.537054  0.177943  0.141446  -0.283340
    C  C40  0.397984  0.127149  0.134074  -0.042305
    C  C41  0.249622  0.125905  0.173274  -0.144853
    C  C42  0.238494  0.175578  0.219781  0.143116
    C  C43  0.376169  0.226645  0.227133  -0.039316
    C  C44  0.525898  0.227785  0.188084  0.261139
    C  C45  0.088622  0.174334  0.258667  -0.194354
    C  C46  0.076369  0.224309  0.305099  -0.210189
    C  C47  0.213830  0.275527  0.312524  0.264003
    C  C48  0.363591  0.276652  0.273478  -0.041933
    C  C49  0.501223  0.327726  0.280813  0.142092
    C  C50  0.651078  0.328977  0.241927  -0.187912
    C  C51  0.663340  0.279003  0.195501  -0.212473
    C  C52  0.202612  0.325399  0.359148  -0.293216
    C  C53  0.341644  0.376204  0.366493  -0.020404
    C  C54  0.490017  0.377421  0.327294  -0.152652
    H  H20  0.652527  0.179111  0.110536  0.132053
    H  H21  0.140025  0.086126  0.167144  0.098027
    H  H22  0.980675  0.134183  0.252723  0.117419
    H  H23  0.959164  0.223332  0.335649  0.131791
    H  H24  0.087084  0.324253  0.390050  0.132473
    H  H25  0.599551  0.417212  0.333397  0.104197
    H  H26  0.758964  0.369142  0.247864  0.113951
    H  H27  0.780500  0.279991  0.164943  0.132213
    C  C55  0.249576  0.141654  0.901613  -0.129994
    H  H28  0.135604  0.147167  0.934001  0.108405
    C  C56  0.238861  0.179597  0.865689  -0.137967
    H  H29  0.116845  0.214884  0.870881  0.110641
    C  C57  0.386436  0.173569  0.824631  0.056619
    C  C58  0.542794  0.128673  0.819577  -0.156457
    H  H30  0.656898  0.121854  0.787241  0.087177
    C  C59  0.552793  0.090889  0.855338  -0.047495
    H  H31  0.676184  0.056058  0.851245  0.116250
    C  C60  0.407300  0.097332  0.896470  -0.026843
    C  C61  0.554053  0.221561  0.756774  -0.161435
    H  H32  0.700968  0.198960  0.761845  0.130639
    C  C62  0.546357  0.259422  0.720896  -0.176445
    H  H33  0.686787  0.265265  0.698750  0.119685
    C  C63  0.363098  0.290739  0.714593  0.119108
    C  C64  0.187436  0.283512  0.744589  -0.159688
    H  H34  0.040548  0.306122  0.739508  0.134264
    C  C65  0.195098  0.245630  0.780451  -0.176474
    H  H35  0.054603  0.239769  0.802563  0.114567
    C  C66  0.378337  0.214292  0.786744  0.124382
    C  C67  0.198631  0.376275  0.681664  -0.160302
    H  H36  0.084965  0.383258  0.714114  0.092411
    C  C68  0.188246  0.413878  0.645760  -0.028554
    H  H37  0.065015  0.448779  0.649915  0.083431
    C  C69  0.333115  0.407140  0.604436  -0.030113
    C  C70  0.490742  0.362790  0.599321  -0.131996
    H  H38  0.604237  0.357065  0.566804  0.112231
    C  C71  0.501896  0.325067  0.635414  -0.096207
    H  H39  0.623769  0.289737  0.630244  0.093949
    C  C72  0.354811  0.331329  0.676606  0.042241
    O  O11  0.231302  0.037013  0.077179  -0.549737
    O  O12  0.599625  0.024579  0.930974  -0.610833
    O  O13  0.805195  0.928183  0.958424  -0.358012
    C  C73  0.427910  0.057488  0.934386  0.652218
    O  O14  0.515617  0.081281  0.042569  -0.439706
    O  O15  0.728399  0.984248  0.069718  -0.559277
    C  C74  0.397824  0.075316  0.084209  0.663839
    O  O16  0.311517  0.068084  0.978280  -0.422456
    O  O17  0.411853  0.953213  0.994103  -0.562554
    V  V3   0.688588  0.009590  0.001352  1.273697
    O  O18  0.008831  0.930033  0.021012  -0.471791
    C  C75  0.893064  0.946702  0.066080  0.617915
    O  O19  0.096161  0.961524  0.921958  -0.510628
    C  C76  0.921787  0.928353  0.916117  0.669304
    V  V4   0.187826  0.994071  0.999108  1.278856
    O  O20  0.916110  0.050802  0.008266  -0.561597
    O  O21  0.207560  0.915697  0.832210  -0.406488
    C  C77  0.125724  0.963606  0.811100  0.290732
    H  H40  0.255948  0.986504  0.793908  -0.000619
    H  H41  0.047846  0.999669  0.844186  -0.059010
    C  C78  0.966012  0.935055  0.766146  0.163181
    H  H42  0.043500  0.898604  0.733317  -0.038807
    H  H43  0.834283  0.912628  0.783224  -0.005182
    C  C79  0.880379  0.986943  0.742550  -0.314166
    H  H44  0.803304  0.023614  0.775293  0.055379
    H  H45  0.763056  0.966039  0.709717  0.071119
    H  H46  0.012114  0.009179  0.725305  0.052079
