# Generated by REPEAT Assigner based on pymatgen
data_DB0-m29_o89_o150_f0_pts.sym.3
_audit_creation_date              2022-05-24
_audit_creation_method            REPEAT_Assigner
_cell_length_a                    14.286136
_cell_length_b                    9.408773
_cell_length_c                    19.874121
_cell_angle_alpha                 85.767826
_cell_angle_beta                  90.406616
_cell_angle_gamma                 110.107624
_cell_volume                      2501.238804
_symmetry_space_group_name_H-M    P1
_symmetry_Int_Tables_number       1
loop_
    _symmetry_equiv_pos_site_id
    _symmetry_equiv_pos_as_xyz
    1  x,y,z
loop_
    _atom_site_type_symbol
    _atom_site_label
    _atom_site_fract_x
    _atom_site_fract_y
    _atom_site_fract_z
    _atom_type_partial_charge
    C   C1   0.836016  0.999931  0.078320  -0.286225
    C   C2   0.749579  0.004474  0.048029  0.161863
    C   C3   0.743787  0.009626  0.978024  -0.231313
    C   C4   0.825048  0.010441  0.939235  0.230041
    C   C5   0.911909  0.006856  0.970907  -0.117327
    C   C6   0.916456  0.997077  0.040608  0.265026
    C   C7   0.994419  0.010954  0.933418  -0.083613
    C   C8   0.078776  0.002188  0.964505  0.049738
    C   C9   0.083044  0.987766  0.033703  0.247652
    C   C10  0.001703  0.985986  0.072220  -0.260189
    C   C11  0.159034  0.007813  0.925065  -0.155265
    C   C12  0.245976  0.002681  0.953910  0.038676
    C   C13  0.251174  0.988037  0.023755  0.078397
    C   C14  0.169086  0.976309  0.063105  -0.306425
    H   H1   0.839547  0.000133  0.132385  0.161809
    H   H2   0.996316  0.022906  0.879082  0.131888
    H   H3   0.153491  0.017815  0.870815  0.141978
    H   H4   0.176786  0.965513  0.117059  0.173913
    N   N1   0.067818  0.076297  0.183076  -0.214780
    C   C15  0.050649  0.022585  0.248119  -0.087828
    C   C16  0.976924  0.881213  0.252558  -0.187091
    C   C17  0.948293  0.848070  0.187425  -0.193966
    C   C18  0.005770  0.970770  0.146015  0.275464
    H   H5   0.119411  0.180343  0.164866  0.290577
    H   H6   0.089541  0.082762  0.289993  0.145120
    H   H7   0.947428  0.810233  0.298190  0.156981
    H   H8   0.892154  0.746141  0.171957  0.158620
    O   O1   0.584982  0.020549  0.069129  -0.436545
    C   C19  0.665734  0.999322  0.092565  0.480551
    O   O2   0.495600  0.708343  0.134775  -0.441677
    O   O3   0.671459  0.972206  0.157903  -0.519525
    O   O4   0.478687  0.839602  0.222176  -0.475663
    C   C20  0.487526  0.716507  0.199994  0.504425
    Fe  Fe1  0.489135  0.989832  0.144821  1.403439
    O   O5   0.351932  0.909382  0.106916  -0.612817
    O   O6   0.423086  0.128782  0.042121  -0.492964
    C   C21  0.345680  0.006089  0.057394  0.597298
    O   O7   0.536831  0.195886  0.180846  -0.570802
    O   O8   0.423163  0.068505  0.263203  -0.540786
    C   C22  0.488088  0.195600  0.236618  0.609131
    O   O9   0.467349  0.814017  0.821070  -0.599949
    O   O10  0.575955  0.948045  0.736763  -0.512932
    C   C23  0.516919  0.818148  0.765156  0.593093
    O   O11  0.641671  0.102403  0.901211  -0.617454
    O   O12  0.573546  0.868752  0.955587  -0.495581
    C   C24  0.649137  0.996327  0.945665  0.729477
    O   O13  0.325993  0.049821  0.844387  -0.512449
    O   O14  0.520232  0.170420  0.782105  -0.493216
    C   C25  0.511035  0.293334  0.804113  0.513160
    O   O15  0.406486  0.978983  0.931782  -0.453570
    C   C26  0.329580  0.012236  0.909000  0.503238
    O   O16  0.501487  0.301252  0.869224  -0.438149
    Fe  Fe2  0.507812  0.018067  0.858879  1.406181
    H   H9   0.506272  0.562611  0.835422  0.152317
    C   C27  0.510474  0.420719  0.756880  0.072470
    C   C28  0.511602  0.410178  0.687801  -0.166656
    H   H10  0.511228  0.306255  0.667819  0.139316
    C   C29  0.515176  0.533643  0.644009  0.082329
    C   C30  0.519456  0.668243  0.669504  -0.208891
    H   H11  0.521547  0.764972  0.635877  0.138573
    C   C31  0.513524  0.676589  0.738100  0.083555
    C   C32  0.508127  0.552857  0.781665  -0.180584
    C   C33  0.571629  0.638624  0.527610  -0.161990
    H   H12  0.624682  0.738249  0.547318  0.123220
    C   C34  0.567086  0.627187  0.458765  -0.187627
    H   H13  0.616858  0.717435  0.425667  0.129676
    C   C35  0.501861  0.499097  0.432561  0.278810
    C   C36  0.438852  0.384930  0.475718  -0.262801
    H   H14  0.384059  0.287255  0.455918  0.141311
    C   C37  0.444772  0.394936  0.544542  -0.089971
    H   H15  0.394637  0.304816  0.577499  0.111180
    C   C38  0.511597  0.521407  0.570876  0.079227
    C   C39  0.503284  0.351647  0.333841  0.262161
    C   C40  0.497248  0.338817  0.264876  -0.101323
    C   C41  0.493836  0.458749  0.221844  -0.118343
    H   H16  0.488825  0.445791  0.168235  0.141032
    C   C42  0.492236  0.590894  0.246945  0.020926
    C   C43  0.495047  0.602596  0.315937  -0.110021
    H   H17  0.492243  0.704532  0.336216  0.128996
    C   C44  0.500298  0.483714  0.359565  -0.187946
    C   C45  0.523015  0.229357  0.378297  -0.389377
    H   H18  0.565271  0.274646  0.423523  0.098967
    H   H19  0.451883  0.137689  0.393321  0.136434
    H   H20  0.571283  0.180818  0.351351  0.125390
    C   C46  0.818106  0.003825  0.863759  -0.235586
    H   H21  0.743932  0.989451  0.842982  0.078391
    H   H22  0.871690  0.109512  0.838762  0.095736
    H   H23  0.835896  0.904313  0.849122  0.071467
