# Generated by REPEAT Assigner based on pymatgen
data_DB0-m3_o18_o1490_f0_fsc.sym.1_sqe
_audit_creation_date              2022-05-24
_audit_creation_method            REPEAT_Assigner
_cell_length_a                    8.531292
_cell_length_b                    10.725247
_cell_length_c                    14.256726
_cell_angle_alpha                 101.919327
_cell_angle_beta                  90.108537
_cell_angle_gamma                 89.991613
_cell_volume                      1276.365510
_symmetry_space_group_name_H-M    P1
_symmetry_Int_Tables_number       1
loop_
    _symmetry_equiv_pos_site_id
    _symmetry_equiv_pos_as_xyz
    1  x,y,z
loop_
    _atom_site_type_symbol
    _atom_site_label
    _atom_site_fract_x
    _atom_site_fract_y
    _atom_site_fract_z
    _atom_type_partial_charge
    C   C1   0.002410  0.670664  0.958556  -0.021117
    C   C2   0.862156  0.734044  0.971943  -0.134581
    C   C3   0.858883  0.864615  0.991606  -0.086637
    C   C4   0.140867  0.737176  0.971268  -0.355896
    C   C5   0.139088  0.869087  0.986312  0.668481
    C   C6   0.997171  0.933795  0.993237  -0.331462
    C   C7   0.997294  0.066262  0.006397  0.468739
    C   C8   0.859144  0.135605  0.007758  -0.393297
    C   C9   0.862587  0.266146  0.027809  -0.024057
    N   N1   0.275203  0.933861  0.993740  -0.677071
    C   C10  0.277884  0.061840  0.006752  0.327530
    C   C11  0.139557  0.130409  0.013820  -0.250823
    C   C12  0.141673  0.262686  0.028921  -0.105364
    C   C13  0.003123  0.329226  0.041531  -0.118867
    H   H1   0.004109  0.568090  0.947493  0.124133
    H   H2   0.005038  0.431811  0.052731  0.131963
    H   H3   0.745759  0.907606  0.007680  0.091712
    H   H4   0.745957  0.092721  0.991349  0.181708
    H   H5   0.389669  0.110191  0.012802  0.028345
    O   O1   0.670285  0.661386  0.067407  -0.695498
    O   O2   0.665219  0.586567  0.903247  -0.731066
    C   C14  0.720716  0.661698  0.980596  0.839139
    O   O3   0.669760  0.339088  0.932483  -0.719057
    O   O4   0.665995  0.413926  0.096625  -0.764270
    C   C15  0.721025  0.338766  0.019249  0.898746
    O   O5   0.332137  0.338912  0.932921  -0.726902
    O   O6   0.337553  0.413270  0.096584  -0.768063
    C   C16  0.283210  0.336327  0.019755  0.919954
    O   O7   0.332709  0.661750  0.067103  -0.692658
    O   O8   0.336842  0.587363  0.903439  -0.716546
    C   C17  0.283200  0.664463  0.980286  0.881915
    Zn  Zn1  0.500613  0.449871  0.894168  1.045916
    Zn  Zn2  0.501419  0.550680  0.105788  1.049415
    N   N2   0.499800  0.392542  0.769735  0.115543
    N   N3   0.501537  0.607994  0.230147  0.134073
    C   C18  0.497987  0.223308  0.635687  -0.261179
    C   C19  0.498597  0.266764  0.733238  -0.081522
    C   C20  0.500055  0.477946  0.712364  -0.190239
    C   C21  0.499352  0.438421  0.612689  0.054555
    C   C22  0.498468  0.308861  0.575601  0.272433
    C   C23  0.499634  0.523742  0.549579  0.040149
    C   C24  0.499644  0.476805  0.450304  0.049495
    C   C25  0.498629  0.345413  0.416449  -0.110556
    C   C26  0.497988  0.263394  0.478499  -0.296046
    C   C27  0.499717  0.655136  0.583432  -0.106138
    C   C28  0.500044  0.737156  0.521380  -0.297002
    C   C29  0.500469  0.691686  0.424280  0.271358
    C   C30  0.500410  0.562125  0.387194  0.038339
    C   C31  0.500839  0.777238  0.364192  -0.236339
    C   C32  0.501212  0.733776  0.266642  -0.130718
    C   C33  0.501172  0.522593  0.287522  -0.171703
    H   H6   0.497152  0.161861  0.449944  0.162028
    H   H7   0.501680  0.424230  0.252250  0.176723
    H   H8   0.501329  0.800678  0.219385  0.175724
    H   H9   0.499993  0.838691  0.549934  0.160025
    H   H10  0.497184  0.121915  0.606549  0.144511
    H   H11  0.498286  0.199860  0.780493  0.148392
    H   H12  0.501104  0.576306  0.747642  0.183958
    H   H13  0.497957  0.300594  0.341939  0.133269
    H   H14  0.499204  0.699958  0.657941  0.138961
    H   H15  0.500735  0.878632  0.393327  0.137445
