# Generated by REPEAT Assigner based on pymatgen
data_DB0-m3_o22_o25_f0_nbo.sym.76
_audit_creation_date              2022-05-24
_audit_creation_method            REPEAT_Assigner
_cell_length_a                    21.612757
_cell_length_b                    21.584532
_cell_length_c                    22.112631
_cell_angle_alpha                 60.827637
_cell_angle_beta                  119.235100
_cell_angle_gamma                 89.960242
_cell_volume                      7463.967253
_symmetry_space_group_name_H-M    P1
_symmetry_Int_Tables_number       1
loop_
    _symmetry_equiv_pos_site_id
    _symmetry_equiv_pos_as_xyz
    1  x,y,z
loop_
    _atom_site_type_symbol
    _atom_site_label
    _atom_site_fract_x
    _atom_site_fract_y
    _atom_site_fract_z
    _atom_type_partial_charge
    O   O1   0.592626  0.449060  0.497388  -0.632459
    O   O2   0.597095  0.551764  0.505071  -0.634949
    C   C1   0.625199  0.498837  0.503735  0.312753
    O   O3   0.438475  0.509984  0.371882  -0.676771
    O   O4   0.444102  0.615442  0.374731  -0.705822
    C   C2   0.422708  0.582595  0.334523  0.807624
    Zn  Zn1  0.500279  0.431141  0.496469  1.303508
    Zn  Zn2  0.501731  0.569989  0.499190  1.311132
    O   O5   0.405503  0.448628  0.491739  -0.625020
    O   O6   0.408458  0.553043  0.496564  -0.661337
    O   O7   0.558781  0.385586  0.621009  -0.681801
    O   O8   0.562515  0.491165  0.623778  -0.697371
    C   C3   0.377469  0.501481  0.493092  0.339517
    C   C4   0.579235  0.418478  0.661217  0.802188
    C   C5   0.288348  0.735441  0.969882  -0.256877
    C   C6   0.316951  0.766788  0.023728  -0.139726
    H   H1   0.370782  0.778695  0.047129  0.079743
    H   H2   0.316316  0.722137  0.944994  0.101438
    H   H3   0.227573  0.883586  0.944140  0.089376
    C   C7   0.378438  0.628488  0.244921  -0.024958
    C   C8   0.126919  0.873407  0.751126  -0.005539
    C   C9   0.266049  0.681353  0.025478  -0.137600
    C   C10  0.294218  0.712255  0.078292  0.719610
    C   C11  0.189014  0.736394  0.972033  -0.250252
    C   C12  0.211984  0.790877  0.917727  0.879184
    C   C13  0.217822  0.767746  0.025852  -0.137882
    C   C14  0.239808  0.823042  0.969831  -0.227430
    C   C15  0.340659  0.666567  0.169657  -0.476747
    C   C16  0.165246  0.836068  0.826389  -0.534347
    H   H4   0.189830  0.780451  0.051044  0.079596
    H   H5   0.135496  0.723889  0.948931  0.099449
    C   C17  0.760846  0.426308  0.579931  -0.205577
    H   H6   0.784979  0.431167  0.634096  0.033034
    C   C18  0.819929  0.423903  0.562262  -0.023982
    H   H7   0.875232  0.400183  0.621725  0.038563
    H   H8   0.815572  0.387639  0.539106  -0.021131
    H   H9   0.665280  0.461871  0.419488  0.031676
    H   H10  0.749431  0.495589  0.388244  0.012180
    C   C19  0.676219  0.510771  0.422212  -0.148362
    C   C20  0.721033  0.562409  0.507660  -0.186755
    C   C21  0.694802  0.497982  0.504089  0.661548
    H   H11  0.679891  0.616467  0.449002  0.026447
    H   H12  0.727719  0.560968  0.561415  0.033791
    C   C22  0.809156  0.502570  0.496384  0.319471
    C   C23  0.740068  0.526527  0.412326  -0.065960
    C   C24  0.796233  0.555888  0.518054  -0.030322
    H   H13  0.841389  0.534539  0.583548  -0.001607
    H   H14  0.796404  0.611768  0.475972  0.011558
    H   H15  0.625261  0.559594  0.369364  0.028342
    H   H16  0.724833  0.587227  0.366519  0.005393
    C   C25  0.708414  0.207090  0.025125  -0.143050
    C   C26  0.681049  0.292166  0.969842  -0.226547
    H   H17  0.626845  0.328643  0.944257  0.086871
    H   H18  0.678967  0.171142  0.049679  0.076218
    H   H19  0.769409  0.330606  0.048481  0.082470
    C   C27  0.622925  0.372619  0.750889  -0.001352
    C   C28  0.868294  0.127473  0.245081  -0.006776
    C   C29  0.731743  0.204762  0.971181  -0.241356
    C   C30  0.705248  0.289105  0.917626  0.881803
    C   C31  0.807622  0.207814  0.025407  -0.160014
    C   C32  0.784560  0.210080  0.078322  0.745959
    C   C33  0.781385  0.292268  0.970570  -0.245988
    C   C34  0.757934  0.294416  0.024473  -0.149405
    C   C35  0.659951  0.334649  0.826197  -0.541714
    C   C36  0.830407  0.164833  0.169771  -0.496692
    H   H20  0.811287  0.327697  0.946321  0.101680
    H   H21  0.720894  0.168348  0.947475  0.096557
    C   C37  0.293458  0.427961  0.513166  -0.338261
    H   H22  0.337893  0.384234  0.579174  0.053960
    H   H23  0.295194  0.411657  0.473568  0.076533
    C   C38  0.218493  0.431836  0.502933  0.062251
    H   H24  0.228280  0.385354  0.562617  0.027599
    H   H25  0.367078  0.472581  0.618242  0.026437
    H   H26  0.266632  0.457147  0.619959  0.062747
    C   C39  0.316506  0.515451  0.556162  -0.116403
    C   C40  0.241926  0.565904  0.405803  -0.204783
    C   C41  0.307483  0.502654  0.491500  0.687436
    H   H27  0.253588  0.619727  0.390740  0.029311
    H   H28  0.234184  0.556643  0.357807  0.040861
    C   C42  0.187068  0.505806  0.487951  0.306188
    C   C43  0.248597  0.510383  0.560398  -0.167598
    C   C44  0.170992  0.570259  0.404527  -0.011308
    H   H29  0.126619  0.568965  0.351681  0.006173
    H   H30  0.150344  0.624779  0.391605  0.029245
    H   H31  0.323318  0.571242  0.539254  0.023033
    O   O9   0.050581  0.908239  0.499362  -0.678460
    O   O10  0.941998  0.908619  0.495606  -0.660225
    C   C45  0.996427  0.879745  0.496872  0.406242
    O   O11  0.115315  0.940157  0.622385  -0.688580
    O   O12  0.008861  0.935189  0.623030  -0.699481
    C   C46  0.081658  0.918101  0.661503  0.795738
    Zn  Zn3  0.067195  0.001405  0.497317  1.307740
    Zn  Zn4  0.927935  0.999422  0.499027  1.317707
    O   O13  0.052725  0.092609  0.499876  -0.631557
    O   O14  0.944930  0.092222  0.497851  -0.685260
    O   O15  0.986299  0.065102  0.373284  -0.685000
    O   O16  0.879769  0.061275  0.373925  -0.685080
    C   C47  0.998449  0.121410  0.498788  0.376658
    C   C48  0.913461  0.082765  0.334774  0.785911
    O   O17  0.034962  0.374045  0.565887  -0.682481
    O   O18  0.960266  0.446335  0.422046  -0.710299
    C   C49  0.996710  0.380922  0.493959  0.562260
    O   O19  0.942738  0.468062  0.563856  -0.722254
    O   O20  0.867697  0.541068  0.419813  -0.703904
    C   C50  0.876745  0.504263  0.493001  0.554605
    Zn  Zn5  0.045848  0.457084  0.585334  1.337002
    Zn  Zn6  0.948365  0.551068  0.396667  1.328301
    O   O21  0.035778  0.561833  0.559664  -0.697247
    O   O22  0.956274  0.633985  0.416219  -0.651224
    O   O23  0.126210  0.464941  0.561866  -0.713990
    O   O24  0.051604  0.542931  0.418240  -0.672005
    C   C51  0.997265  0.627160  0.487872  0.521424
    C   C52  0.117792  0.505131  0.489182  0.521708
    C   C53  0.015448  0.821446  0.432774  -0.168651
    H   H32  0.065838  0.839479  0.444588  0.048134
    H   H33  0.967609  0.864190  0.368274  0.032665
    C   C54  0.031691  0.747274  0.443450  -0.157248
    H   H34  0.093096  0.720747  0.485513  0.066449
    H   H35  0.110402  0.746667  0.597596  0.006425
    H   H36  0.102166  0.636864  0.612209  0.025600
    C   C55  0.053386  0.743491  0.579727  -0.136056
    C   C56  0.920016  0.801298  0.464842  -0.181256
    C   C57  0.996356  0.812146  0.493702  0.613030
    H   H37  0.908247  0.786343  0.512963  0.020513
    H   H38  0.876238  0.853266  0.405183  0.038919
    C   C58  0.997718  0.696538  0.488352  0.325539
    C   C59  0.045440  0.674173  0.578542  -0.054860
    C   C60  0.918699  0.738678  0.451398  -0.087789
    H   H39  0.881480  0.762007  0.383945  0.035836
    H   H40  0.895272  0.699648  0.483138  0.025951
    H   H41  0.044261  0.740440  0.626166  0.024720
    H   H42  0.018617  0.645041  0.611560  0.013419
    C   C61  0.057260  0.220818  0.487364  -0.382698
    H   H43  0.051611  0.228235  0.431411  0.063722
    H   H44  0.113171  0.181453  0.543756  0.060758
    C   C62  0.049668  0.295821  0.476393  0.221152
    H   H45  0.104870  0.295759  0.519972  -0.018257
    H   H46  0.029907  0.339528  0.411099  -0.018475
    H   H47  0.914311  0.265501  0.364856  0.014707
    H   H48  0.903043  0.367141  0.364541  0.068549
    C   C63  0.921378  0.250169  0.424076  -0.116044
    C   C64  0.010773  0.175421  0.578286  -0.117843
    C   C65  0.996859  0.191380  0.497179  0.668367
    H   H49  0.964132  0.159506  0.583708  0.009968
    H   H50  0.063084  0.128399  0.631835  0.014858
    C   C66  0.994092  0.311048  0.494265  0.155556
    C   C67  0.916918  0.319483  0.425849  -0.137772
    C   C68  0.018501  0.244351  0.580414  -0.070767
    H   H51  0.078067  0.233224  0.626285  0.013958
    H   H52  0.985264  0.255330  0.601579  0.033472
    H   H53  0.875961  0.227667  0.426290  0.032903
    C   C69  0.881309  0.158477  0.059025  0.734256
    F   F1   0.883960  0.170668  0.993029  -0.250853
    F   F2   0.887809  0.084358  0.107611  -0.236041
    F   F3   0.939391  0.175440  0.106864  -0.241721
    C   C70  0.168396  0.416602  0.436131  0.505525
    F   F4   0.095651  0.432194  0.413004  -0.186342
    F   F5   0.195332  0.341703  0.469683  -0.214421
    F   F6   0.168817  0.457696  0.365038  -0.197486
    C   C71  0.228237  0.573365  0.568127  0.580119
    F   F7   0.290817  0.566600  0.636150  -0.228387
    F   F8   0.172639  0.567792  0.582441  -0.171937
    F   F9   0.206687  0.643378  0.498293  -0.210885
    C   C72  0.009136  0.761666  0.359327  0.643084
    F   F10  0.042191  0.698562  0.371135  -0.229872
    F   F11  0.034832  0.818076  0.323388  -0.233415
    F   F12  0.932627  0.783367  0.304968  -0.229133
    C   C73  0.282045  0.598967  0.059196  0.724985
    F   F13  0.247544  0.590582  0.993271  -0.252159
    F   F14  0.254853  0.566054  0.108500  -0.236745
    F   F15  0.358203  0.565074  0.106332  -0.238923
    C   C74  0.851870  0.335149  0.432238  0.513895
    F   F16  0.785828  0.353520  0.359679  -0.218805
    F   F17  0.850159  0.394543  0.439844  -0.110626
    F   F18  0.856107  0.273854  0.499193  -0.185480
    C   C75  0.745348  0.351280  0.608921  0.606629
    F   F19  0.709232  0.343968  0.648072  -0.208970
    F   F20  0.812794  0.294504  0.666680  -0.231478
    F   F21  0.703536  0.343276  0.543454  -0.219140
