# Generated by REPEAT Assigner based on pymatgen
data_DB0-m2_o22_o27_f0_pcu.sym.23
_audit_creation_date              2022-05-24
_audit_creation_method            REPEAT_Assigner
_cell_length_a                    10.736415
_cell_length_b                    9.289631
_cell_length_c                    19.243896
_cell_angle_alpha                 90.000000
_cell_angle_beta                  89.998169
_cell_angle_gamma                 90.000000
_cell_volume                      1919.334771
_symmetry_space_group_name_H-M    P1
_symmetry_Int_Tables_number       1
loop_
    _symmetry_equiv_pos_site_id
    _symmetry_equiv_pos_as_xyz
    1  x,y,z
loop_
    _atom_site_type_symbol
    _atom_site_label
    _atom_site_fract_x
    _atom_site_fract_y
    _atom_site_fract_z
    _atom_type_partial_charge
    O   O1   0.312095  0.621705  0.500574  -0.615984
    O   O2   0.312778  0.375652  0.496342  -0.579481
    C   C1   0.253424  0.498375  0.499011  0.711081
    O   O3   0.501582  0.621629  0.399004  -0.408202
    O   O4   0.500650  0.375426  0.399156  -0.512084
    C   C2   0.501512  0.498335  0.366240  0.453036
    Cu  Cu1  0.493009  0.643952  0.499843  0.609267
    Cu  Cu2  0.493787  0.355437  0.500107  0.888860
    O   O5   0.673979  0.624408  0.504578  -0.542222
    O   O6   0.674897  0.376402  0.499149  -0.674945
    O   O7   0.493631  0.624998  0.600927  -0.447908
    O   O8   0.495076  0.376808  0.601073  -0.534180
    C   C3   0.733226  0.500671  0.502410  0.798741
    C   C4   0.490836  0.500969  0.633568  0.444447
    C   C5   0.536005  0.623048  0.254034  -0.003463
    C   C6   0.497686  0.370532  0.253355  -0.101194
    H   H1   0.554876  0.722030  0.281342  0.085519
    H   H2   0.483161  0.269748  0.279876  0.111640
    C   C7   0.539131  0.623320  0.182348  0.058652
    C   C8   0.501235  0.370444  0.181744  0.070221
    H   H3   0.556948  0.723603  0.155708  0.039050
    H   H4   0.487801  0.269713  0.154699  0.045575
    C   C9   0.519759  0.497306  0.145666  -0.456372
    C   C10  0.511348  0.497492  0.290016  0.073346
    N   N1   0.503604  0.374092  0.034086  -0.310648
    N   N2   0.527776  0.622787  0.034254  -0.311524
    N   N3   0.499274  0.374811  0.965442  -0.330471
    N   N4   0.523233  0.623531  0.965586  -0.322795
    C   C11  0.508738  0.499554  0.930329  0.881654
    C   C12  0.517935  0.498029  0.069359  0.889361
    C   C13  0.506073  0.628711  0.817803  0.161733
    C   C14  0.494064  0.372243  0.817717  0.179892
    H   H5   0.512485  0.730492  0.844730  0.027685
    H   H6   0.491272  0.270100  0.844517  0.031568
    C   C15  0.501013  0.629078  0.746167  -0.249706
    C   C16  0.489588  0.372633  0.746104  -0.264261
    H   H7   0.504182  0.731024  0.719203  0.162793
    H   H8   0.483321  0.270917  0.719118  0.137919
    C   C17  0.493223  0.500996  0.709840  0.203109
    C   C18  0.502905  0.500242  0.854079  -0.494901
    C   C19  0.065607  0.644999  0.524362  -0.408941
    C   C20  0.066927  0.386447  0.552851  -0.607041
    H   H9   0.083638  0.724829  0.483326  0.161789
    H   H10  0.109731  0.280084  0.542676  0.201972
    H   H11  0.116612  0.682662  0.570938  0.118794
    H   H12  0.093125  0.419349  0.606131  0.173204
    C   C21  0.925261  0.640124  0.536421  0.295870
    C   C22  0.926315  0.370704  0.545583  0.265927
    H   H13  0.885888  0.736623  0.510858  0.009720
    H   H14  0.910029  0.269896  0.517038  0.053412
    H   H15  0.118137  0.508894  0.389096  0.059402
    H   H16  0.075332  0.340969  0.423379  0.070046
    C   C23  0.061833  0.458137  0.430506  -0.159309
    C   C24  0.113439  0.497778  0.501431  0.270500
    C   C25  0.873667  0.500806  0.503911  -0.321044
    C   C26  0.922508  0.495157  0.427718  0.303091
    C   C27  0.618466  0.081315  0.512166  0.022367
    C   C28  0.612685  0.917735  0.520987  -0.452216
    H   H17  0.661694  0.129125  0.559167  0.093156
    H   H18  0.630869  0.890506  0.576059  0.184259
    H   H19  0.678308  0.106292  0.466827  0.090450
    H   H20  0.687985  0.873640  0.488145  0.182437
    H   H21  0.470341  0.098031  0.608289  0.077854
    H   H22  0.415582  0.870447  0.601659  -0.020537
    C   C29  0.420067  0.081053  0.558648  0.002902
    C   C30  0.401509  0.919563  0.549919  0.066928
    C   C31  0.451652  0.083147  0.434434  0.403562
    C   C32  0.467798  0.921616  0.430725  -0.362102
    N   N5   0.494051  0.139465  0.501608  -0.164131
    N   N6   0.491127  0.860284  0.500084  0.355939
    H   H23  0.513881  0.123301  0.392996  -0.012229
    H   H24  0.552472  0.903737  0.398884  0.178306
    H   H25  0.330054  0.137409  0.564461  0.007782
    H   H26  0.304496  0.896612  0.535171  0.032270
    N   N7   0.903255  0.635079  0.393716  0.558733
    O   O9   0.994617  0.703199  0.363926  -0.351050
    O   O10  0.791118  0.685671  0.386167  -0.406759
    N   N8   0.856412  0.386712  0.386547  0.437776
    O   O11  0.800780  0.425807  0.329577  -0.307571
    O   O12  0.867445  0.249970  0.399465  -0.331354
    N   N9   0.324972  0.128558  0.416915  0.539386
    O   O13  0.230132  0.099600  0.456487  -0.347981
    O   O14  0.305097  0.191182  0.357571  -0.355378
    N   N10  0.364727  0.856464  0.392277  0.511225
    O   O15  0.257131  0.833033  0.420606  -0.288453
    O   O16  0.370870  0.857881  0.324849  -0.373780
    N   N11  0.894262  0.652193  0.610072  0.511723
    O   O17  0.791726  0.716669  0.627875  -0.372600
    O   O18  0.974373  0.619320  0.658211  -0.344637
    N   N12  0.872526  0.349048  0.614725  0.468024
    O   O19  0.767466  0.407148  0.633210  -0.268428
    O   O20  0.919614  0.248797  0.653889  -0.358070
