# generated using pymatgen
data_Fe2H17C52N2O16F
_symmetry_space_group_name_H-M   'P 1'
_cell_length_a   17.46348900
_cell_length_b   14.38057600
_cell_length_c   11.45652000
_cell_angle_alpha   94.26503000
_cell_angle_beta   82.94686000
_cell_angle_gamma   106.68802200
_symmetry_Int_Tables_number   1
_chemical_formula_structural   Fe2H17C52N2O16F
_chemical_formula_sum   'Fe2 H17 C52 N2 O16 F1'
_cell_volume   2732.78517677
_cell_formula_units_Z   1
loop_
 _symmetry_equiv_pos_site_id
 _symmetry_equiv_pos_as_xyz
  1  'x, y, z'
loop_
 _atom_site_type_symbol
 _atom_site_label
 _atom_site_symmetry_multiplicity
 _atom_site_fract_x
 _atom_site_fract_y
 _atom_site_fract_z
 _atom_site_occupancy
  Fe  Fe1  1  0.50934300  0.99981800  0.25037400  1
  Fe  Fe2  1  0.49407600  0.99797900  0.74259500  1
  H  H1  1  0.25665500  0.98884200  0.27306600  1
  H  H2  1  0.12408400  0.98952000  0.34067400  1
  H  H3  1  0.22986300  0.95812400  0.76832300  1
  H  H4  1  0.99505700  0.99344800  0.30791300  1
  H  H5  1  0.88174000  0.98489200  0.27206500  1
  H  H6  1  0.02163400  0.04904800  0.70495900  1
  H  H7  1  0.75799900  0.98827700  0.22974100  1
  H  H8  1  0.89161900  0.05106800  0.66549600  1
  H  H9  1  0.75374200  0.03002200  0.72477200  1
  H  H10  1  0.47060700  0.63044200  0.26873200  1
  H  H11  1  0.51645500  0.69393200  0.68461900  1
  H  H12  1  0.51542200  0.53089700  0.70266600  1
  H  H13  1  0.51655400  0.36906000  0.72309100  1
  H  H14  1  0.47645500  0.29141900  0.30690900  1
  H  H15  1  0.33952100  0.40856700  0.28912500  1
  H  H16  1  0.43040200  0.39861400  0.93271300  1
  H  H17  1  0.59210000  0.49508300  0.18861200  1
  C  C1  1  0.24444000  0.98971500  0.18298100  1
  C  C2  1  0.11110600  0.99046700  0.25098400  1
  C  C3  1  0.30615600  0.99803500  0.09411200  1
  C  C4  1  0.29146300  0.00216400  0.97818400  1
  C  C5  1  0.16942200  0.99090200  0.15941800  1
  C  C6  1  0.15273900  0.99260400  0.04553100  1
  C  C7  1  0.21264700  0.99275900  0.95438900  1
  C  C8  1  0.19083900  0.97641200  0.84119200  1
  C  C9  1  0.03593900  0.99230500  0.23022800  1
  C  C10  1  0.01672500  0.99338800  0.11575500  1
  C  C11  1  0.07618900  0.99329100  0.02305500  1
  C  C12  1  0.05951900  0.99345000  0.90789400  1
  C  C13  1  0.11548900  0.97564400  0.81793000  1
  C  C14  1  0.87674800  0.98860400  0.18026600  1
  C  C15  1  0.93960700  0.99285600  0.09178700  1
  C  C16  1  0.92508100  0.00013800  0.97688200  1
  C  C17  1  0.98614800  0.00578000  0.88569400  1
  C  C18  1  0.97381200  0.02906200  0.77514400  1
  C  C19  1  0.80186300  0.98791500  0.15517200  1
  C  C20  1  0.78581600  0.99050400  0.04056500  1
  C  C21  1  0.84924300  0.00231900  0.95257100  1
  C  C22  1  0.83700000  0.01780000  0.83993700  1
  C  C23  1  0.70852800  0.98488800  0.01314100  1
  C  C24  1  0.69762200  0.99965800  0.89861000  1
  C  C25  1  0.89984700  0.03409800  0.75263500  1
  C  C26  1  0.76248400  0.01929300  0.81403400  1
  C  C27  1  0.63921200  0.96754600  0.10427100  1
  C  C28  1  0.48396900  0.81337700  0.33369900  1
  C  C29  1  0.38670500  0.01068300  0.12845900  1
  C  C30  1  0.48395500  0.14398100  0.40808700  1
  C  C31  1  0.51383000  0.84938700  0.58669900  1
  C  C32  1  0.61760200  0.98680100  0.86177000  1
  C  C33  1  0.50779500  0.18288200  0.66280600  1
  C  C34  1  0.35835000  0.01682500  0.88257800  1
  C  C35  1  0.48061200  0.64320600  0.36022100  1
  C  C36  1  0.48898200  0.73633800  0.40919300  1
  C  C37  1  0.50273800  0.75390700  0.52713800  1
  C  C38  1  0.50618300  0.67918100  0.59307100  1
  C  C39  1  0.49943800  0.58749100  0.54319300  1
  C  C40  1  0.48700400  0.56874400  0.42623400  1
  C  C41  1  0.50589700  0.51518500  0.61096800  1
  C  C42  1  0.50087800  0.42329600  0.56235100  1
  C  C43  1  0.48920500  0.40357100  0.44522400  1
  C  C44  1  0.48158200  0.47596400  0.37677400  1
  C  C45  1  0.50752800  0.35149100  0.63156100  1
  C  C46  1  0.50190800  0.25819100  0.58525700  1
  C  C47  1  0.49053500  0.23897000  0.46667900  1
  C  C48  1  0.48515200  0.31109800  0.39807000  1
  C  C49  1  0.39022300  0.41987600  0.22212800  1
  C  C50  1  0.44097500  0.41445200  0.02402300  1
  C  C51  1  0.53105700  0.46812200  0.16609200  1
  C  C52  1  0.46744300  0.45424300  0.25305700  1
  N  N1  1  0.37815700  0.40050500  0.10808800  1
  N  N2  1  0.51684800  0.44801400  0.05289100  1
  O  O1  1  0.58701900  0.01801000  0.10710200  1
  O  O2  1  0.46367000  0.79073300  0.22644300  1
  O  O3  1  0.62920800  0.90179900  0.18232400  1
  O  O4  1  0.50596500  0.90529500  0.36944700  1
  O  O5  1  0.39902300  0.94853100  0.19756100  1
  O  O6  1  0.44391700  0.09067000  0.10322300  1
  O  O7  1  0.54190200  0.13238100  0.32927100  1
  O  O8  1  0.41651200  0.07413700  0.42342400  1
  O  O9  1  0.45755300  0.86484900  0.66605400  1
  O  O10  1  0.58300400  0.91615600  0.56976600  1
  O  O11  1  0.60620000  0.04720800  0.78948700  1
  O  O12  1  0.55904800  0.90898800  0.89088800  1
  O  O13  1  0.35784400  0.06606000  0.79098800  1
  O  O14  1  0.49627900  0.09207900  0.62363800  1
  O  O15  1  0.41972100  0.98269500  0.88943400  1
  O  O16  1  0.51996800  0.20550000  0.77344000  1
  F  F1  1  0.09631200  0.94637200  0.70740800  1
