# Generated by REPEAT Assigner based on pymatgen
data_DB0-m3_o17_o25_f0_nbo.sym.31
_audit_creation_date              2022-05-24
_audit_creation_method            REPEAT_Assigner
_cell_length_a                    43.905728
_cell_length_b                    30.112109
_cell_length_c                    30.005128
_cell_angle_alpha                 90.000000
_cell_angle_beta                  47.112827
_cell_angle_gamma                 90.000000
_cell_volume                      29065.730078
_symmetry_space_group_name_H-M    P1
_symmetry_Int_Tables_number       1
loop_
    _symmetry_equiv_pos_site_id
    _symmetry_equiv_pos_as_xyz
    1  x,y,z
loop_
    _atom_site_type_symbol
    _atom_site_label
    _atom_site_fract_x
    _atom_site_fract_y
    _atom_site_fract_z
    _atom_type_partial_charge
    O   O1    0.498363  0.963039  0.067919  -0.734371
    O   O2    0.499810  0.960650  0.933719  -0.716454
    O   O3    0.998363  0.463039  0.067919  -0.734382
    O   O4    0.999810  0.460650  0.933719  -0.716491
    O   O5    0.501273  0.039720  0.065083  -0.677902
    O   O6    0.500698  0.037394  0.932956  -0.689088
    O   O7    0.001273  0.539720  0.065083  -0.677882
    O   O8    0.000698  0.537394  0.932956  -0.689111
    C   C1    0.499698  0.001377  0.087217  0.656426
    C   C2    0.500345  0.999039  0.912650  0.644434
    C   C3    0.999698  0.501377  0.087217  0.656445
    C   C4    0.000345  0.499039  0.912650  0.644476
    O   O9    0.437902  0.960928  0.060171  -0.680708
    O   O10   0.561920  0.962800  0.938090  -0.693241
    O   O11   0.937902  0.460928  0.060171  -0.680744
    O   O12   0.061920  0.462800  0.938090  -0.693240
    O   O13   0.438190  0.037611  0.062638  -0.678347
    O   O14   0.562157  0.039515  0.938772  -0.666063
    O   O15   0.938190  0.537611  0.062638  -0.678386
    O   O16   0.062157  0.539515  0.938772  -0.666068
    C   C5    0.418628  0.999338  0.080709  0.733819
    C   C6    0.581460  0.001100  0.919147  0.732762
    C   C7    0.918628  0.499338  0.080709  0.733848
    C   C8    0.081460  0.501100  0.919147  0.732768
    Zn  Zn1   0.500050  0.949871  0.000079  1.373443
    Zn  Zn2   0.000050  0.449871  0.000079  1.373474
    Zn  Zn3   0.500018  0.050551  0.999785  1.335252
    Zn  Zn4   0.000018  0.550551  0.999785  1.335269
    C   C9    0.236964  0.979278  0.298020  0.230852
    C   C10   0.763068  0.980017  0.702033  0.241114
    C   C11   0.736964  0.479278  0.298020  0.230872
    C   C12   0.263068  0.480017  0.702033  0.241137
    C   C13   0.264173  0.020085  0.270488  0.062585
    C   C14   0.736004  0.020934  0.729344  0.059611
    C   C15   0.764173  0.520085  0.270488  0.062549
    C   C16   0.236004  0.520934  0.729344  0.059612
    C   C17   0.373827  0.999493  0.125287  0.061879
    C   C18   0.626262  0.000937  0.874603  0.063177
    C   C19   0.873827  0.499493  0.125287  0.061911
    C   C20   0.126262  0.500937  0.874603  0.063176
    C   C21   0.126257  0.000131  0.374060  0.127565
    C   C22   0.873837  0.000533  0.625928  0.123684
    C   C23   0.626257  0.500131  0.374060  0.127600
    C   C24   0.373837  0.500533  0.625928  0.123610
    C   C25   0.263726  0.957913  0.235469  -0.392657
    C   C26   0.736216  0.958817  0.764696  -0.396753
    C   C27   0.763726  0.457913  0.235469  -0.392700
    C   C28   0.236216  0.458817  0.764696  -0.396778
    C   C29   0.290579  0.999483  0.208186  0.817200
    C   C30   0.709510  0.000496  0.791754  0.817149
    C   C31   0.790579  0.499483  0.208186  0.817262
    C   C32   0.209510  0.500496  0.791754  0.817142
    C   C33   0.236155  0.979550  0.227949  0.313484
    C   C34   0.763851  0.980398  0.772129  0.314351
    C   C35   0.736155  0.479550  0.227949  0.313535
    C   C36   0.263851  0.480398  0.772129  0.314400
    C   C37   0.209499  0.000060  0.290342  0.562866
    C   C38   0.790593  0.000744  0.709630  0.548191
    C   C39   0.709499  0.500060  0.290342  0.562863
    C   C40   0.290593  0.500744  0.709630  0.548123
    C   C41   0.263571  0.020672  0.199320  -0.395288
    C   C42   0.736581  0.021632  0.800535  -0.396052
    C   C43   0.763571  0.520672  0.199320  -0.395339
    C   C44   0.236581  0.521632  0.800535  -0.396067
    C   C45   0.236807  0.040801  0.262591  0.215385
    C   C46   0.763430  0.041595  0.737160  0.223591
    C   C47   0.736807  0.540801  0.262591  0.215419
    C   C48   0.263430  0.541595  0.737160  0.223622
    C   C49   0.336256  0.999534  0.162694  -0.541285
    C   C50   0.663833  0.000761  0.837220  -0.541212
    C   C51   0.836256  0.499534  0.162694  -0.541331
    C   C52   0.163833  0.500761  0.837220  -0.541212
    C   C53   0.163825  0.000116  0.336259  -0.520273
    C   C54   0.836268  0.000635  0.663725  -0.512081
    C   C55   0.663825  0.500116  0.336259  -0.520305
    C   C56   0.336268  0.500635  0.663725  -0.512016
    H   H1    0.274816  0.037732  0.157674  0.160257
    H   H2    0.725386  0.038786  0.842099  0.160279
    H   H3    0.774816  0.537732  0.157674  0.160266
    H   H4    0.225386  0.538786  0.842099  0.160283
    H   H5    0.275101  0.923158  0.223665  0.160826
    H   H6    0.724720  0.924107  0.776672  0.161726
    H   H7    0.775101  0.423158  0.223665  0.160833
    H   H8    0.224720  0.424107  0.776672  0.161729
    C   C57   0.524709  0.029062  0.317125  -0.233075
    C   C58   0.476637  0.029185  0.681596  -0.224533
    C   C59   0.024709  0.529062  0.317125  -0.233349
    C   C60   0.976637  0.529185  0.681596  -0.224583
    C   C61   0.499292  0.000319  0.365287  -0.086570
    C   C62   0.500846  0.999393  0.634487  -0.101491
    C   C63   0.999292  0.500319  0.365287  -0.086631
    C   C64   0.000846  0.499393  0.634487  -0.101497
    C   C65   0.473681  0.971417  0.368147  0.302211
    C   C66   0.525189  0.969151  0.632738  0.311370
    C   C67   0.973681  0.471417  0.368147  0.302232
    C   C68   0.025189  0.469151  0.632738  0.311360
    C   C69   0.474126  0.970671  0.321592  -0.151363
    C   C70   0.524655  0.968147  0.679377  -0.157461
    C   C71   0.974126  0.470671  0.321592  -0.151249
    C   C72   0.024655  0.468147  0.679377  -0.157435
    C   C73   0.498912  0.000473  0.274034  -0.091350
    C   C74   0.501119  0.998971  0.725846  -0.092164
    C   C75   0.998912  0.500473  0.274034  -0.091359
    C   C76   0.001119  0.498971  0.725846  -0.092212
    C   C77   0.523759  0.029936  0.272301  0.257152
    C   C78   0.477564  0.029735  0.726445  0.255198
    C   C79   0.023759  0.529936  0.272301  0.257214
    C   C80   0.977564  0.529735  0.726445  0.255272
    C   C81   0.450209  0.940448  0.321901  0.247310
    C   C82   0.547253  0.936672  0.680229  0.245318
    C   C83   0.950209  0.440448  0.321901  0.247232
    C   C84   0.047253  0.436672  0.680229  0.245308
    C   C85   0.451428  0.939943  0.274879  0.104335
    C   C86   0.545959  0.935955  0.727323  0.111061
    C   C87   0.951428  0.439943  0.274879  0.104365
    C   C88   0.045959  0.435955  0.727323  0.111071
    C   C89   0.475691  0.970158  0.228000  0.049154
    C   C90   0.522966  0.967170  0.773095  0.047182
    C   C91   0.975691  0.470158  0.228000  0.049119
    C   C92   0.022966  0.467170  0.773095  0.047174
    C   C93   0.499027  0.000819  0.227981  -0.015786
    C   C94   0.500970  0.999055  0.771934  -0.010011
    C   C95   0.999027  0.500819  0.227981  -0.015821
    C   C96   0.000970  0.499055  0.771934  -0.009999
    C   C97   0.522560  0.031793  0.181830  0.100663
    C   C98   0.478755  0.031010  0.816928  0.085409
    C   C99   0.022560  0.531793  0.181830  0.100713
    C   C100  0.978755  0.531010  0.816928  0.085409
    C   C101  0.546789  0.061710  0.180930  0.298963
    C   C102  0.455826  0.062189  0.816689  0.304942
    C   C103  0.046789  0.561710  0.180930  0.298868
    C   C104  0.955826  0.562189  0.816689  0.304958
    C   C105  0.547732  0.060365  0.225763  -0.432532
    C   C106  0.454869  0.061150  0.771865  -0.431853
    C   C107  0.047732  0.560365  0.225763  -0.432419
    C   C108  0.954869  0.561150  0.771865  -0.431896
    C   C109  0.476692  0.969772  0.181102  -0.189521
    C   C110  0.521919  0.966589  0.820040  -0.194527
    C   C111  0.976692  0.469772  0.181102  -0.189496
    C   C112  0.021919  0.466589  0.820040  -0.194536
    C   C113  0.499396  0.001307  0.135925  0.115865
    C   C114  0.500586  0.999093  0.864004  0.130615
    C   C115  0.999396  0.501307  0.135925  0.115844
    C   C116  0.000586  0.499093  0.864004  0.130618
    C   C117  0.521888  0.032660  0.136590  -0.259030
    C   C118  0.479454  0.031613  0.862140  -0.247114
    C   C119  0.021888  0.532660  0.136590  -0.259025
    C   C120  0.979454  0.531613  0.862140  -0.247133
    H   H9    0.544390  0.051888  0.315625  0.163714
    H   H10   0.457957  0.053045  0.682221  0.163246
    H   H11   0.044390  0.551888  0.315625  0.163838
    H   H12   0.957957  0.553045  0.682221  0.163251
    H   H13   0.458736  0.945725  0.180463  0.174068
    H   H14   0.538833  0.941612  0.821606  0.170420
    H   H15   0.958736  0.445725  0.180463  0.174071
    H   H16   0.038833  0.441612  0.821606  0.170435
    H   H17   0.540033  0.056845  0.100398  0.154648
    H   H18   0.462368  0.056574  0.897402  0.146978
    H   H19   0.040033  0.556845  0.100398  0.154635
    H   H20   0.962368  0.556574  0.897402  0.146980
    H   H21   0.567078  0.083575  0.224516  0.195504
    H   H22   0.436538  0.085370  0.772220  0.194544
    H   H23   0.067078  0.583575  0.224516  0.195466
    H   H24   0.936538  0.585370  0.772220  0.194555
    O   O17   0.001650  0.933916  0.537877  -0.688858
    O   O18   0.998201  0.934096  0.464452  -0.702818
    O   O19   0.501650  0.433916  0.537877  -0.688867
    O   O20   0.498201  0.434096  0.464452  -0.702818
    C   C121  0.999847  0.913337  0.501210  0.792148
    C   C122  0.499847  0.413337  0.501210  0.792049
    O   O21   0.062431  0.999711  0.476828  -0.657770
    O   O22   0.937658  0.001829  0.523179  -0.658178
    O   O23   0.562431  0.499711  0.476828  -0.657774
    O   O24   0.437658  0.501829  0.523179  -0.658204
    O   O25   0.061645  0.000761  0.400640  -0.656457
    O   O26   0.938450  0.999117  0.599328  -0.657865
    O   O27   0.561645  0.500761  0.400640  -0.656460
    O   O28   0.438450  0.499117  0.599328  -0.657881
    C   C123  0.081460  0.000120  0.419177  0.657595
    C   C124  0.918634  0.000400  0.580806  0.659724
    C   C125  0.581460  0.500120  0.419177  0.657585
    C   C126  0.418634  0.500400  0.580806  0.659814
    Zn  Zn5   0.000365  0.000265  0.550182  1.321901
    Zn  Zn6   0.999711  0.000089  0.449882  1.320430
    Zn  Zn7   0.500365  0.500265  0.550182  1.321893
    Zn  Zn8   0.499711  0.500089  0.449882  1.320436
    O   O29   0.000909  0.066319  0.536626  -0.703782
    O   O30   0.999415  0.066494  0.461152  -0.688913
    O   O31   0.500909  0.566319  0.536626  -0.703754
    O   O32   0.499415  0.566494  0.461152  -0.688898
    C   C127  0.000215  0.087071  0.498870  0.816195
    C   C128  0.500215  0.587071  0.498870  0.816163
    O   O33   0.463217  0.066470  0.537139  -0.665665
    O   O34   0.535022  0.066298  0.464953  -0.682217
    O   O35   0.963217  0.566470  0.537139  -0.665798
    O   O36   0.035022  0.566298  0.464953  -0.682533
    C   C129  0.499152  0.087059  0.501079  0.624779
    C   C130  0.999152  0.587059  0.501079  0.625017
    O   O37   0.464283  0.000285  0.469722  -0.708023
    O   O38   0.535846  0.998060  0.530062  -0.708615
    O   O39   0.964283  0.500285  0.469722  -0.708174
    O   O40   0.035846  0.498060  0.530062  -0.708820
    O   O41   0.536140  0.000430  0.396904  -0.694868
    O   O42   0.464072  0.001833  0.602808  -0.695203
    O   O43   0.036140  0.500430  0.396904  -0.695130
    O   O44   0.964072  0.501833  0.602808  -0.695333
    C   C131  0.499911  0.000301  0.413042  0.745879
    C   C132  0.500250  0.999702  0.586710  0.750122
    C   C133  0.999911  0.500301  0.413042  0.746269
    C   C134  0.000250  0.499702  0.586710  0.750342
    Zn  Zn9   0.452948  0.000071  0.547397  1.322375
    Zn  Zn10  0.547220  0.000254  0.452391  1.321638
    Zn  Zn11  0.952948  0.500071  0.547397  1.322543
    Zn  Zn12  0.047220  0.500254  0.452391  1.322125
    O   O45   0.465199  0.934090  0.536840  -0.655320
    O   O46   0.536894  0.933928  0.460599  -0.637527
    O   O47   0.965199  0.434090  0.536840  -0.655480
    O   O48   0.036894  0.433928  0.460599  -0.637810
    C   C135  0.501017  0.913344  0.498744  0.565468
    C   C136  0.001017  0.413344  0.498744  0.565877
    C   C137  0.467897  0.158622  0.511211  -0.264559
    C   C138  0.530692  0.158365  0.491055  -0.253298
    C   C139  0.967897  0.658622  0.511211  -0.264705
    C   C140  0.030692  0.658365  0.491055  -0.253313
    C   C141  0.499249  0.135568  0.501117  0.141295
    C   C142  0.999249  0.635568  0.501117  0.141328
    C   C143  0.530309  0.204220  0.492443  0.020110
    C   C144  0.468468  0.204479  0.509875  0.030392
    C   C145  0.030309  0.704220  0.492443  0.020163
    C   C146  0.968468  0.704479  0.509875  0.030609
    C   C147  0.499436  0.227291  0.501170  0.075546
    C   C148  0.999436  0.727291  0.501170  0.075270
    C   C149  0.560691  0.227110  0.485193  0.276198
    C   C150  0.438180  0.227629  0.517150  0.273888
    C   C151  0.060691  0.727110  0.485193  0.276123
    C   C152  0.938180  0.727629  0.517150  0.273805
    C   C153  0.060032  0.772806  0.487075  -0.257798
    C   C154  0.939031  0.773328  0.515309  -0.257981
    C   C155  0.560032  0.272806  0.487075  -0.257996
    C   C156  0.439031  0.273328  0.515309  -0.258259
    C   C157  0.029555  0.795968  0.494875  -0.032171
    C   C158  0.969605  0.796231  0.507529  -0.037915
    C   C159  0.529555  0.295968  0.494875  -0.031628
    C   C160  0.469605  0.296231  0.507529  -0.036886
    C   C161  0.999531  0.773166  0.501192  -0.024476
    C   C162  0.499531  0.273166  0.501192  -0.025225
    C   C163  0.029066  0.841837  0.496273  0.234076
    C   C164  0.970291  0.842101  0.506162  0.243218
    C   C165  0.529066  0.341837  0.496273  0.233665
    C   C166  0.470291  0.342101  0.506162  0.242168
    C   C167  0.999728  0.864858  0.501224  -0.189593
    C   C168  0.499728  0.364858  0.501224  -0.188943
    H   H25   0.443653  0.140554  0.518281  0.177420
    H   H26   0.554862  0.140094  0.483961  0.174903
    H   H27   0.943653  0.640554  0.518281  0.177460
    H   H28   0.054862  0.640094  0.483961  0.174940
    H   H29   0.083876  0.790083  0.481826  0.164968
    H   H30   0.915260  0.790811  0.520573  0.165443
    H   H31   0.583876  0.290083  0.481826  0.164999
    H   H32   0.415260  0.290811  0.520573  0.165486
    C   C169  0.530773  0.841878  0.445455  -0.241908
    C   C170  0.470961  0.841949  0.552095  -0.241353
    C   C171  0.030773  0.341878  0.445455  -0.241517
    C   C172  0.970961  0.341949  0.552095  -0.241189
    C   C173  0.500919  0.864838  0.498765  0.171895
    C   C174  0.000919  0.364838  0.498765  0.171492
    C   C175  0.471380  0.796091  0.552428  0.023184
    C   C176  0.530131  0.796025  0.445160  0.022692
    C   C177  0.971380  0.296091  0.552428  0.022978
    C   C178  0.030131  0.296025  0.445160  0.022489
    C   C179  0.500698  0.773117  0.498803  0.072417
    C   C180  0.000698  0.273117  0.498803  0.072567
    C   C181  0.442584  0.773101  0.606255  0.267627
    C   C182  0.558813  0.772975  0.391351  0.268325
    C   C183  0.942584  0.273101  0.606255  0.267927
    C   C184  0.058813  0.272975  0.391351  0.268301
    C   C185  0.943288  0.227399  0.606494  -0.243895
    C   C186  0.057874  0.227283  0.391145  -0.244360
    C   C187  0.443288  0.727399  0.606494  -0.243558
    C   C188  0.557874  0.727283  0.391145  -0.244429
    C   C189  0.972178  0.204336  0.552797  -0.056801
    C   C190  0.028864  0.204281  0.444859  -0.054539
    C   C191  0.472178  0.704336  0.552797  -0.056661
    C   C192  0.528864  0.704281  0.444859  -0.054366
    C   C193  0.000580  0.227242  0.498820  -0.017596
    C   C194  0.500580  0.727242  0.498820  -0.017768
    C   C195  0.972694  0.158463  0.552926  0.277033
    C   C196  0.028107  0.158416  0.444761  0.273110
    C   C197  0.472694  0.658463  0.552926  0.276789
    C   C198  0.528107  0.658416  0.444761  0.272984
    C   C199  0.000339  0.135551  0.498851  -0.243473
    C   C200  0.500339  0.635551  0.498851  -0.243308
    H   H33   0.553826  0.860021  0.403696  0.160581
    H   H34   0.447992  0.860146  0.593837  0.162643
    H   H35   0.053826  0.360021  0.403696  0.160467
    H   H36   0.947992  0.360146  0.593837  0.162614
    H   H37   0.920716  0.210041  0.649151  0.163121
    H   H38   0.080356  0.209881  0.348501  0.162917
    H   H39   0.420716  0.710041  0.649151  0.163012
    H   H40   0.580356  0.709881  0.348501  0.162936
    F   F1    0.279320  0.041560  0.292722  -0.213754
    F   F2    0.720949  0.042411  0.706977  -0.214218
    F   F3    0.779320  0.541560  0.292722  -0.213747
    F   F4    0.220949  0.542411  0.706977  -0.214215
    F   F5    0.428188  0.909783  0.275588  -0.148278
    F   F6    0.567899  0.904593  0.727754  -0.148556
    F   F7    0.928188  0.409783  0.275588  -0.148282
    F   F8    0.067899  0.404593  0.727754  -0.148562
    F   F9    0.570210  0.092143  0.135766  -0.178286
    F   F10   0.433691  0.093593  0.860728  -0.178684
    F   F11   0.070210  0.592143  0.135766  -0.178267
    F   F12   0.933691  0.593593  0.860728  -0.178685
    F   F13   0.591121  0.204994  0.476873  -0.188530
    F   F14   0.407659  0.205769  0.525450  -0.187873
    F   F15   0.091121  0.704994  0.476873  -0.188535
    F   F16   0.907659  0.705769  0.525450  -0.187879
    F   F17   0.058427  0.864456  0.490166  -0.132918
    F   F18   0.941036  0.864979  0.512267  -0.135627
    F   F19   0.558427  0.364456  0.490166  -0.132878
    F   F20   0.441036  0.364979  0.512267  -0.135428
    F   F21   0.222782  0.958328  0.350191  -0.235119
    F   F22   0.777190  0.958954  0.649960  -0.237440
    F   F23   0.722782  0.458328  0.350191  -0.235121
    F   F24   0.277190  0.458954  0.649960  -0.237447
    F   F25   0.413703  0.795121  0.659369  -0.185227
    F   F26   0.587805  0.794931  0.338220  -0.184442
    F   F27   0.913703  0.295121  0.659369  -0.185280
    F   F28   0.087805  0.294931  0.338220  -0.184417
    F   F29   0.944922  0.135744  0.605778  -0.146835
    F   F30   0.055763  0.135644  0.391926  -0.145871
    F   F31   0.444922  0.635744  0.605778  -0.146802
    F   F32   0.555763  0.635644  0.391926  -0.145867
    F   F33   0.222461  0.084046  0.277796  -0.224074
    F   F34   0.777929  0.084780  0.721737  -0.225844
    F   F35   0.722461  0.584046  0.277796  -0.224083
    F   F36   0.277929  0.584780  0.721737  -0.225856
    F   F37   0.220628  0.958148  0.206231  -0.266899
    F   F38   0.779287  0.958994  0.793982  -0.265941
    F   F39   0.720628  0.458148  0.206231  -0.266910
    F   F40   0.279287  0.458994  0.793982  -0.265950
    F   F41   0.449806  0.942650  0.415417  -0.143077
    F   F42   0.547856  0.939408  0.586519  -0.142464
    F   F43   0.949806  0.442650  0.415417  -0.143120
    F   F44   0.047856  0.439408  0.586519  -0.142461
    F   F45   0.425665  0.910577  0.367520  -0.164208
    F   F46   0.570556  0.905793  0.635692  -0.164829
    F   F47   0.925665  0.410577  0.367520  -0.164186
    F   F48   0.070556  0.405793  0.635692  -0.164826
