# generated using pymatgen
data_CuH14C23S3(NO3)2
_symmetry_space_group_name_H-M   'P 1'
_cell_length_a   12.58842700
_cell_length_b   14.00620400
_cell_length_c   23.37842000
_cell_angle_alpha   90.03003600
_cell_angle_beta   93.62384200
_cell_angle_gamma   98.21568200
_symmetry_Int_Tables_number   1
_chemical_formula_structural   CuH14C23S3(NO3)2
_chemical_formula_sum   'Cu2 H28 C46 S6 N4 O12'
_cell_volume   4071.34010264
_cell_formula_units_Z   2
loop_
 _symmetry_equiv_pos_site_id
 _symmetry_equiv_pos_as_xyz
  1  'x, y, z'
loop_
 _atom_site_type_symbol
 _atom_site_label
 _atom_site_symmetry_multiplicity
 _atom_site_fract_x
 _atom_site_fract_y
 _atom_site_fract_z
 _atom_site_occupancy
  Cu  Cu1  1  0.40332500  0.48718500  0.50189200  1
  Cu  Cu2  1  0.61777200  0.49950200  0.50902600  1
  H  H1  1  0.34063300  0.49164000  0.21516300  1
  H  H2  1  0.34021600  0.48545900  0.78431500  1
  H  H3  1  0.33989800  0.49198400  0.31924400  1
  H  H4  1  0.33917900  0.48593400  0.68018300  1
  H  H5  1  0.68116400  0.49366800  0.33082000  1
  H  H6  1  0.68221700  0.50150400  0.69160300  1
  H  H7  1  0.68038400  0.49394800  0.22672100  1
  H  H8  1  0.68171500  0.50192100  0.79569400  1
  H  H9  1  0.38778900  0.97206700  0.50272800  1
  H  H10  1  0.63330000  0.01461600  0.50820300  1
  H  H11  1  0.46691700  0.14655800  0.89551800  1
  H  H12  1  0.42797200  0.21471200  0.95428800  1
  H  H13  1  0.48296800  0.10420100  0.96856900  1
  H  H14  1  0.23541900  0.65232100  0.10855500  1
  H  H15  1  0.24908900  0.60595600  0.03756600  1
  H  H16  1  0.19178100  0.71564400  0.04550600  1
  H  H17  1  0.83018400  0.27107800  0.06713200  1
  H  H18  1  0.78608900  0.33411200  0.12723400  1
  H  H19  1  0.77276200  0.38071300  0.05538400  1
  H  H20  1  0.53974700  0.88263100  0.97130900  1
  H  H21  1  0.55603200  0.84036200  0.89933400  1
  H  H22  1  0.59450100  0.77199600  0.96071800  1
  H  H23  1  0.97282800  0.73395800  0.51884800  1
  H  H24  1  0.05744900  0.68062600  0.47136800  1
  H  H25  1  0.11738600  0.76848500  0.52460500  1
  H  H26  1  0.91286600  0.42418100  0.34713700  1
  H  H27  1  0.05673900  0.44060300  0.36424800  1
  H  H28  1  0.97450200  0.52493700  0.39135200  1
  C  C1  1  0.49449600  0.30859000  0.50510400  1
  C  C2  1  0.52660000  0.67809500  0.50581700  1
  C  C3  1  0.51062300  0.49300000  0.39546100  1
  C  C4  1  0.51049000  0.49365300  0.61545900  1
  C  C5  1  0.48129100  0.56909100  0.88485200  1
  C  C6  1  0.53885600  0.41687400  0.12596700  1
  C  C7  1  0.54093900  0.41808300  0.88673800  1
  C  C8  1  0.48245500  0.56910600  0.12419400  1
  C  C9  1  0.54271400  0.41629800  0.94656100  1
  C  C10  1  0.47804200  0.56966200  0.06434400  1
  C  C11  1  0.51101700  0.49339500  0.97557400  1
  C  C12  1  0.51088800  0.49324000  0.03533600  1
  C  C13  1  0.47944100  0.57064300  0.94455300  1
  C  C14  1  0.54360200  0.41666200  0.06643300  1
  C  C15  1  0.57599800  0.34007200  0.97828500  1
  C  C16  1  0.44250300  0.64479800  0.03269200  1
  C  C17  1  0.57938800  0.34173800  0.03707300  1
  C  C18  1  0.44615900  0.64676900  0.97415300  1
  C  C19  1  0.41551900  0.49247800  0.24061600  1
  C  C20  1  0.41540900  0.48943900  0.76390500  1
  C  C21  1  0.41537900  0.49238700  0.29960000  1
  C  C22  1  0.41513300  0.48950200  0.70491300  1
  C  C23  1  0.51052100  0.49284800  0.33269600  1
  C  C24  1  0.51068000  0.49372800  0.67822800  1
  C  C25  1  0.60564700  0.49322600  0.30606200  1
  C  C26  1  0.60638400  0.49795100  0.71128200  1
  C  C27  1  0.60549300  0.49308500  0.24707600  1
  C  C28  1  0.60640900  0.49797600  0.77026900  1
  C  C29  1  0.51051100  0.49278900  0.21412400  1
  C  C30  1  0.51098200  0.49369000  0.79681200  1
  C  C31  1  0.53600600  0.78141100  0.50603100  1
  C  C32  1  0.48508900  0.20527300  0.50489300  1
  C  C33  1  0.55430900  0.97175500  0.50644200  1
  C  C34  1  0.46678200  0.01492700  0.50448900  1
  C  C35  1  0.47684700  0.11849500  0.50471100  1
  C  C36  1  0.54424500  0.86818800  0.50621700  1
  C  C37  1  0.03475600  0.46454200  0.48961000  1
  C  C38  1  0.98641300  0.52336900  0.52053400  1
  C  C39  1  0.87096900  0.51520000  0.51720200  1
  C  C40  1  0.15015600  0.47195900  0.49342500  1
  C  C41  1  0.48695800  0.16875700  0.94091000  1
  C  C42  1  0.25265500  0.67238100  0.06385100  1
  C  C43  1  0.76914000  0.31420200  0.08130800  1
  C  C44  1  0.53572700  0.81811500  0.94330200  1
  C  C45  1  0.05140700  0.70801300  0.51538500  1
  C  C46  1  0.97756700  0.44830100  0.38059800  1
  S  S1  1  0.62168000  0.23625200  0.94806400  1
  S  S2  1  0.38556000  0.74263900  0.06285800  1
  S  S3  1  0.63634700  0.24382000  0.07095500  1
  S  S4  1  0.40086500  0.75087300  0.94103500  1
  S  S5  1  0.06478600  0.61246300  0.56662700  1
  S  S6  1  0.95628100  0.37486700  0.44393300  1
  N  N1  1  0.51111100  0.49363300  0.85786800  1
  N  N2  1  0.51055500  0.49290200  0.15307500  1
  N  N3  1  0.24296400  0.47774300  0.49645400  1
  N  N4  1  0.77813300  0.50897100  0.51444900  1
  O  O1  1  0.40633100  0.34821000  0.50409200  1
  O  O2  1  0.61475300  0.63847200  0.50675500  1
  O  O3  1  0.59071500  0.35870600  0.50626200  1
  O  O4  1  0.43039300  0.62797700  0.50472800  1
  O  O5  1  0.41890900  0.49122200  0.41930000  1
  O  O6  1  0.60221600  0.49558800  0.59161800  1
  O  O7  1  0.60248100  0.49491800  0.42538300  1
  O  O8  1  0.41859700  0.49163200  0.58553900  1
  O  O9  1  0.45548400  0.64257400  0.85258500  1
  O  O10  1  0.55844000  0.34080400  0.15773400  1
  O  O11  1  0.56672500  0.34469700  0.85608900  1
  O  O12  1  0.46276600  0.64501900  0.15478200  1
