# Generated by REPEAT Assigner based on pymatgen
data_DB0-m3_o1520_o156_f0_fsc.sym.14
_audit_creation_date              2022-05-24
_audit_creation_method            REPEAT_Assigner
_cell_length_a                    8.520332
_cell_length_b                    13.017023
_cell_length_c                    17.470194
_cell_angle_alpha                 90.957681
_cell_angle_beta                  90.087125
_cell_angle_gamma                 95.317139
_cell_volume                      1928.991812
_symmetry_space_group_name_H-M    P1
_symmetry_Int_Tables_number       1
loop_
    _symmetry_equiv_pos_site_id
    _symmetry_equiv_pos_as_xyz
    1  x,y,z
loop_
    _atom_site_type_symbol
    _atom_site_label
    _atom_site_fract_x
    _atom_site_fract_y
    _atom_site_fract_z
    _atom_type_partial_charge
    C   C1   0.122138  0.294700  0.989060  -0.166814
    C   C2   0.898922  0.705368  0.010943  -0.222089
    C   C3   0.991010  0.346196  0.979448  -0.106578
    C   C4   0.030058  0.653879  0.020552  -0.101196
    C   C5   0.844013  0.297161  0.989764  -0.024008
    C   C6   0.177049  0.702921  0.010236  0.006658
    C   C7   0.825685  0.192038  0.999609  -0.356289
    C   C8   0.195364  0.808043  0.000392  -0.323076
    C   C9   0.956900  0.134942  0.997655  0.213908
    C   C10  0.064142  0.865132  0.002352  0.154427
    C   C11  0.105892  0.188481  0.996962  0.098104
    C   C12  0.915155  0.811588  0.003045  0.150849
    C   C13  0.943033  0.026514  0.998211  -0.026186
    C   C14  0.078004  0.973558  0.001800  0.056903
    C   C15  0.224258  0.030278  0.007054  -0.224651
    C   C16  0.796779  0.969793  0.992961  -0.147692
    C   C17  0.237695  0.135860  0.003352  -0.187009
    C   C18  0.783347  0.864208  0.996660  -0.261417
    H   H1   0.004215  0.427659  0.969375  0.122854
    H   H2   0.016863  0.572416  0.030624  0.122942
    H   H3   0.707338  0.158815  0.009106  0.147125
    H   H4   0.313707  0.841268  0.990890  0.138291
    H   H5   0.688175  0.004044  0.985199  0.124187
    H   H6   0.332860  0.996027  0.014823  0.147961
    H   H7   0.666823  0.823759  0.994663  0.133344
    H   H8   0.354221  0.176305  0.005351  0.114493
    O   O1   0.692855  0.599953  0.070216  -0.761614
    O   O2   0.328210  0.400117  0.929798  -0.718128
    O   O3   0.689411  0.616199  0.938908  -0.703291
    O   O4   0.331661  0.383866  0.061083  -0.718244
    C   C19  0.747722  0.642305  0.006917  0.934027
    C   C20  0.273346  0.357754  0.993085  0.886317
    O   O5   0.667637  0.402056  0.930303  -0.762133
    O   O6   0.353431  0.598028  0.069686  -0.713455
    O   O7   0.659478  0.385692  0.061622  -0.696394
    O   O8   0.361597  0.614395  0.938388  -0.708632
    C   C21  0.711436  0.360427  0.993752  0.865014
    C   C22  0.309638  0.639667  0.006248  0.812898
    Zn  Zn1  0.511620  0.507169  0.914948  1.045501
    Zn  Zn2  0.509430  0.492908  0.085053  1.043528
    C   C23  0.499650  0.420533  0.777185  -0.053470
    C   C24  0.519104  0.579530  0.222815  -0.058993
    N   N1   0.512642  0.512184  0.814717  0.079499
    N   N2   0.508327  0.487891  0.185284  0.078648
    C   C25  0.524246  0.601187  0.776082  -0.236601
    C   C26  0.496938  0.398888  0.223918  -0.230030
    C   C27  0.482654  0.321676  0.659600  0.190802
    C   C28  0.528085  0.678343  0.340396  0.192083
    C   C29  0.497306  0.415809  0.698181  -0.006593
    C   C30  0.518164  0.584236  0.301816  -0.010549
    C   C31  0.509862  0.505975  0.657845  -0.038362
    C   C32  0.507507  0.494079  0.342153  -0.038089
    C   C33  0.523268  0.599214  0.696939  0.259434
    C   C34  0.496634  0.400853  0.303059  0.264164
    C   C35  0.535434  0.689969  0.656856  -0.394860
    C   C36  0.485481  0.310103  0.343141  -0.411625
    C   C37  0.473924  0.224887  0.541158  -0.044805
    C   C38  0.544980  0.775174  0.458838  -0.049816
    C   C39  0.484213  0.318452  0.580408  -0.027504
    C   C40  0.530836  0.681589  0.419588  -0.025404
    C   C41  0.496466  0.409235  0.540184  0.042586
    C   C42  0.519766  0.590813  0.459813  0.034296
    C   C43  0.474422  0.222293  0.462288  -0.355463
    C   C44  0.546540  0.777779  0.537709  -0.324799
    C   C45  0.485302  0.312952  0.422177  0.316608
    C   C46  0.534153  0.687112  0.577820  0.288242
    C   C47  0.508850  0.502917  0.578928  -0.049558
    C   C48  0.507670  0.497131  0.421069  -0.044771
    C   C49  0.520930  0.593631  0.538827  -0.004278
    C   C50  0.496476  0.406423  0.461170  -0.017955
    H   H9   0.491343  0.350517  0.809809  0.155736
    H   H10  0.528990  0.649555  0.190193  0.158740
    H   H11  0.545932  0.763260  0.687325  0.175736
    H   H12  0.476907  0.236822  0.312673  0.176647
    H   H13  0.466098  0.152836  0.571352  0.123111
    H   H14  0.555659  0.847239  0.428645  0.116744
    H   H15  0.466255  0.148788  0.432133  0.169764
    H   H16  0.557550  0.851299  0.567865  0.157677
    H   H17  0.534333  0.674010  0.807173  0.175181
    H   H18  0.488274  0.326074  0.192827  0.172803
    O   O9   0.467677  0.231935  0.699661  -0.385978
    C   C51  0.305550  0.209469  0.709281  0.437423
    H   H19  0.247001  0.198517  0.652642  -0.073961
    H   H20  0.256214  0.273583  0.740913  -0.069163
    C   C52  0.275350  0.111345  0.754395  -0.222489
    H   H21  0.333256  0.121983  0.811233  0.061331
    H   H22  0.146625  0.093337  0.762102  0.055778
    H   H23  0.324050  0.046841  0.722894  0.047240
    O   O10  0.536260  0.768050  0.300331  -0.382521
    C   C53  0.379722  0.788890  0.290585  0.452984
    H   H24  0.324043  0.799051  0.347182  -0.078888
    H   H25  0.313643  0.724280  0.258770  -0.070873
    C   C54  0.374838  0.886993  0.245643  -0.230928
    H   H26  0.429958  0.877141  0.188847  0.057456
    H   H27  0.250593  0.903711  0.237834  0.056198
    H   H28  0.440385  0.951985  0.277328  0.050982
