# generated using pymatgen
data_ZnH14C28NO4
_symmetry_space_group_name_H-M   'P 1'
_cell_length_a   14.51154800
_cell_length_b   14.55415600
_cell_length_c   10.56737200
_cell_angle_alpha   89.99719700
_cell_angle_beta   89.99555800
_cell_angle_gamma   90.00000000
_symmetry_Int_Tables_number   1
_chemical_formula_structural   ZnH14C28NO4
_chemical_formula_sum   'Zn2 H28 C56 N2 O8'
_cell_volume   2231.86418223
_cell_formula_units_Z   2
loop_
 _symmetry_equiv_pos_site_id
 _symmetry_equiv_pos_as_xyz
  1  'x, y, z'
loop_
 _atom_site_type_symbol
 _atom_site_label
 _atom_site_symmetry_multiplicity
 _atom_site_fract_x
 _atom_site_fract_y
 _atom_site_fract_z
 _atom_site_occupancy
  Zn  Zn1  1  0.49427800  0.50611800  0.64267700  1
  Zn  Zn2  1  0.50572200  0.49388200  0.35732400  1
  H  H1  1  0.73029500  0.81070100  0.30800100  1
  H  H2  1  0.26970500  0.18929900  0.69199900  1
  H  H3  1  0.56643400  0.82041800  0.26046300  1
  H  H4  1  0.43356600  0.17958200  0.73953700  1
  H  H5  1  0.48341600  0.69467100  0.20607600  1
  H  H6  1  0.51658400  0.30532900  0.79392500  1
  H  H7  1  0.72113100  0.54313000  0.15225800  1
  H  H8  1  0.27886800  0.45687000  0.84774200  1
  H  H9  1  0.86144900  0.59360800  0.09040800  1
  H  H10  1  0.02831400  0.59190200  0.11055500  1
  H  H11  1  0.10341100  0.66396400  0.29379000  1
  H  H12  1  0.00938200  0.73592700  0.45997400  1
  H  H13  1  0.84159300  0.73626600  0.44383900  1
  H  H14  1  0.13855100  0.40639200  0.90959200  1
  H  H15  1  0.97168600  0.40809800  0.88944500  1
  H  H16  1  0.89658900  0.33603600  0.70621000  1
  H  H17  1  0.99061800  0.26407300  0.54002700  1
  H  H18  1  0.15840700  0.26373400  0.55616100  1
  H  H19  1  0.60949100  0.72375500  0.96061900  1
  H  H20  1  0.74576200  0.80402500  0.87986800  1
  H  H21  1  0.87424400  0.71639700  0.78788700  1
  H  H22  1  0.86603800  0.54790800  0.77689600  1
  H  H23  1  0.72972500  0.46680100  0.85724500  1
  H  H24  1  0.27027500  0.53319900  0.14275600  1
  H  H25  1  0.13396200  0.45209200  0.22310400  1
  H  H26  1  0.12575600  0.28360300  0.21211300  1
  H  H27  1  0.25423900  0.19597500  0.12013200  1
  H  H28  1  0.39051000  0.27624500  0.03938100  1
  C  C1  1  0.49121300  0.31966100  0.52292400  1
  C  C2  1  0.50878700  0.68033900  0.47707600  1
  C  C3  1  0.32023000  0.50994000  0.48998100  1
  C  C4  1  0.67977000  0.49006000  0.51001900  1
  C  C5  1  0.22140900  0.50939500  0.48495600  1
  C  C6  1  0.77859100  0.49060500  0.51504400  1
  C  C7  1  0.13842700  0.50676700  0.48803800  1
  C  C8  1  0.86157300  0.49323300  0.51196200  1
  C  C9  1  0.04137700  0.50213700  0.49607100  1
  C  C10  1  0.95862300  0.49786300  0.50393000  1
  C  C11  1  0.49840100  0.22090600  0.51684300  1
  C  C12  1  0.50160000  0.77909400  0.48315800  1
  C  C13  1  0.50095900  0.13823600  0.50974100  1
  C  C14  1  0.49904100  0.86176400  0.49025900  1
  C  C15  1  0.50058900  0.04134600  0.50279000  1
  C  C16  1  0.49941200  0.95865400  0.49721000  1
  C  C17  1  0.59858000  0.75366000  0.26782600  1
  C  C18  1  0.40142000  0.24634000  0.73217500  1
  C  C19  1  0.54582700  0.67480200  0.25475900  1
  C  C20  1  0.45417300  0.32519800  0.74524200  1
  C  C21  1  0.59274900  0.61252500  0.17833800  1
  C  C22  1  0.40725100  0.38747500  0.82166200  1
  C  C23  1  0.68738400  0.60245700  0.19241800  1
  C  C24  1  0.31261600  0.39754300  0.80758200  1
  C  C25  1  0.73770600  0.66921100  0.25448800  1
  C  C26  1  0.26229400  0.33078900  0.74551200  1
  C  C27  1  0.69234000  0.74901900  0.28504700  1
  C  C28  1  0.30766000  0.25098100  0.71495400  1
  C  C29  1  0.58022900  0.54065900  0.96383300  1
  C  C30  1  0.41977100  0.45934100  0.03616700  1
  C  C31  1  0.45653400  0.44295700  0.91651500  1
  C  C32  1  0.54346600  0.55704300  0.08348600  1
  C  C33  1  0.83870700  0.66445200  0.26641800  1
  C  C34  1  0.89224400  0.62340300  0.17374500  1
  C  C35  1  0.98697800  0.62320800  0.18391400  1
  C  C36  1  0.02912100  0.66383200  0.28635100  1
  C  C37  1  0.97641700  0.70433400  0.37922500  1
  C  C38  1  0.88168100  0.70477900  0.36935500  1
  C  C39  1  0.16129400  0.33554800  0.73358200  1
  C  C40  1  0.10775600  0.37659700  0.82625500  1
  C  C41  1  0.01302200  0.37679200  0.81608600  1
  C  C42  1  0.97087900  0.33616800  0.71365000  1
  C  C43  1  0.02358300  0.29566600  0.62077500  1
  C  C44  1  0.11832000  0.29522100  0.63064600  1
  C  C45  1  0.66158300  0.58967400  0.91673000  1
  C  C46  1  0.66610500  0.68450800  0.92195000  1
  C  C47  1  0.74239400  0.72988900  0.87561800  1
  C  C48  1  0.81426800  0.68082400  0.82367700  1
  C  C49  1  0.80946800  0.58637900  0.81699300  1
  C  C50  1  0.73289700  0.54092200  0.86231900  1
  C  C51  1  0.33841700  0.41032600  0.08327000  1
  C  C52  1  0.26710300  0.45907800  0.13768100  1
  C  C53  1  0.19053200  0.41362100  0.18300700  1
  C  C54  1  0.18573200  0.31917600  0.17632300  1
  C  C55  1  0.25760700  0.27011100  0.12438200  1
  C  C56  1  0.33389500  0.31549200  0.07805100  1
  N  N1  1  0.53636900  0.48340500  0.88409800  1
  N  N2  1  0.46363200  0.51659500  0.11590300  1
  O  O1  1  0.48468700  0.36732000  0.63066500  1
  O  O2  1  0.51531300  0.63268000  0.36933600  1
  O  O3  1  0.49871300  0.36086900  0.41289000  1
  O  O4  1  0.50128700  0.63913100  0.58711000  1
  O  O5  1  0.35803800  0.50942500  0.60217100  1
  O  O6  1  0.64196200  0.49057500  0.39782900  1
  O  O7  1  0.36789600  0.50614000  0.38433600  1
  O  O8  1  0.63210500  0.49386000  0.61566500  1
