# Generated by REPEAT Assigner based on pymatgen
data_DB0-m2_o16_o26_f0_pcu.sym.41_sqe
_audit_creation_date              2022-05-24
_audit_creation_method            REPEAT_Assigner
_cell_length_a                    12.190717
_cell_length_b                    13.314534
_cell_length_c                    17.349804
_cell_angle_alpha                 103.454873
_cell_angle_beta                  74.105565
_cell_angle_gamma                 116.585406
_cell_volume                      2402.143737
_symmetry_space_group_name_H-M    P1
_symmetry_Int_Tables_number       1
loop_
    _symmetry_equiv_pos_site_id
    _symmetry_equiv_pos_as_xyz
    1  x,y,z
loop_
    _atom_site_type_symbol
    _atom_site_label
    _atom_site_fract_x
    _atom_site_fract_y
    _atom_site_fract_z
    _atom_type_partial_charge
    O   O1   0.025092  0.686101  0.521498  -0.612138
    O   O2   0.191184  0.647637  0.521446  -0.546282
    C   C1   0.144385  0.718954  0.521224  0.727173
    O   O3   0.918589  0.543737  0.638942  -0.607200
    O   O4   0.060780  0.463127  0.605799  -0.589743
    C   C2   0.985315  0.502679  0.659228  0.647954
    Cu  Cu1  0.904336  0.528681  0.526953  0.889381
    Cu  Cu2  0.105160  0.484687  0.491979  0.865563
    O   O5   0.814024  0.365021  0.526918  -0.573114
    O   O6   0.988266  0.328066  0.467203  -0.506055
    O   O7   0.920223  0.507053  0.409856  -0.565212
    O   O8   0.118428  0.511724  0.383106  -0.570525
    C   C3   0.866227  0.293566  0.492972  0.624363
    C   C4   0.023409  0.509523  0.359573  0.586038
    C   C5   0.978921  0.503876  0.745129  -0.066346
    C   C6   0.042820  0.455364  0.767662  -0.046505
    C   C7   0.040419  0.458754  0.848119  -0.230607
    C   C8   0.975164  0.512323  0.907467  0.274650
    C   C9   0.909424  0.558761  0.884738  -0.249544
    C   C10  0.911320  0.554927  0.804252  -0.057825
    C   C11  0.930874  0.491691  0.166988  -0.183756
    C   C12  0.926586  0.494170  0.247530  -0.112282
    C   C13  0.139963  0.520821  0.217775  -0.054584
    C   C14  0.144489  0.519153  0.137088  -0.244810
    C   C15  0.040678  0.505789  0.111015  0.252711
    C   C16  0.968365  0.517961  0.994531  -0.231137
    C   C17  0.049558  0.501817  0.023837  -0.217547
    C   C18  0.030902  0.508861  0.273586  -0.021545
    H   H1   0.095057  0.413420  0.722828  0.100157
    H   H2   0.839188  0.482400  0.289412  0.115869
    H   H3   0.222708  0.531829  0.236412  0.093747
    H   H4   0.129055  0.489927  0.983500  0.135423
    H   H5   0.856619  0.599646  0.930192  0.130850
    H   H6   0.845615  0.475596  0.149426  0.118367
    H   H7   0.860301  0.593377  0.788456  0.103161
    H   H8   0.896682  0.541570  0.035385  0.138972
    H   H9   0.088652  0.416852  0.862767  0.129134
    H   H10  0.230577  0.528766  0.094160  0.130390
    C   C19  0.736214  0.983650  0.411814  -0.261860
    H   H11  0.564890  0.791395  0.367704  0.124000
    H   H12  0.768110  0.919973  0.376520  0.115363
    C   C20  0.781197  0.171926  0.478673  -0.114481
    C   C21  0.177705  0.913803  0.578598  -0.094743
    C   C22  0.254785  0.024903  0.597834  -0.044463
    C   C23  0.381784  0.064583  0.568819  -0.288857
    C   C24  0.434817  0.994104  0.516601  0.182159
    C   C25  0.354805  0.882187  0.494764  0.149769
    C   C26  0.565098  0.030910  0.486783  -0.028982
    C   C27  0.609907  0.954937  0.436509  0.220058
    C   C28  0.529374  0.848552  0.410157  -0.202628
    C   C29  0.403202  0.813357  0.437192  -0.215059
    C   C30  0.652761  0.140804  0.505301  -0.128847
    C   C31  0.822696  0.089385  0.434652  0.059244
    C   C32  0.226859  0.840810  0.529084  -0.197379
    H   H13  0.623190  0.205074  0.540363  0.110553
    H   H14  0.079351  0.883297  0.605732  0.097406
    H   H15  0.435024  0.151732  0.589185  0.144176
    H   H16  0.215839  0.081107  0.638248  0.095837
    H   H17  0.344753  0.731065  0.411048  0.151174
    C   C33  0.638329  0.661248  0.639588  -0.300602
    H   H18  0.816290  0.682680  0.651400  0.159541
    H   H19  0.429274  0.682836  0.676620  0.142672
    H   H20  0.629899  0.721193  0.692395  0.138280
    N   N1   0.751683  0.561299  0.553400  -0.092547
    C   C34  0.272200  0.390709  0.393966  0.203481
    C   C35  0.378755  0.371958  0.363820  -0.153385
    C   C36  0.472567  0.415983  0.407079  -0.156515
    C   C37  0.460983  0.481984  0.481104  -0.005495
    C   C38  0.352401  0.501884  0.508777  0.280102
    C   C39  0.556318  0.531785  0.526983  -0.052713
    C   C40  0.544545  0.606189  0.595772  0.337988
    C   C41  0.438943  0.626089  0.621986  -0.301960
    C   C42  0.343332  0.572799  0.580445  -0.148545
    C   C43  0.663100  0.509443  0.507477  -0.029310
    C   C44  0.742878  0.639316  0.616731  -0.012428
    N   N2   0.258042  0.453419  0.465908  -0.291313
    H   H21  0.676426  0.447851  0.457853  0.124061
    H   H22  0.200048  0.355461  0.358469  0.059865
    H   H23  0.554316  0.399667  0.379078  0.153580
    H   H24  0.389103  0.322623  0.305424  0.094142
    H   H25  0.263577  0.591242  0.606355  0.169132
    C   C45  0.953494  0.104303  0.414703  0.167736
    C   C46  0.007328  0.079711  0.335620  -0.151794
    C   C47  0.122649  0.075444  0.317924  -0.120215
    C   C48  0.184080  0.094420  0.379242  0.090068
    Cl  Cl1  0.327995  0.084042  0.357075  -0.120344
    C   C49  0.131317  0.120039  0.458115  -0.041313
    C   C50  0.015856  0.124041  0.475937  -0.232018
    H   H26  0.958085  0.061337  0.287387  0.105846
    H   H27  0.163760  0.054989  0.256072  0.095660
    H   H28  0.179355  0.134878  0.506223  0.108893
    H   H29  0.972569  0.139135  0.538241  0.129864
