# Generated by REPEAT Assigner based on pymatgen
data_DB0-m29_o90_o101_f0_pts.sym.35
_audit_creation_date              2022-05-24
_audit_creation_method            REPEAT_Assigner
_cell_length_a                    16.706625
_cell_length_b                    17.033684
_cell_length_c                    11.306641
_cell_angle_alpha                 108.375243
_cell_angle_beta                  95.358998
_cell_angle_gamma                 107.630499
_cell_volume                      2845.945327
_symmetry_space_group_name_H-M    P1
_symmetry_Int_Tables_number       1
loop_
    _symmetry_equiv_pos_site_id
    _symmetry_equiv_pos_as_xyz
    1  x,y,z
loop_
    _atom_site_type_symbol
    _atom_site_label
    _atom_site_fract_x
    _atom_site_fract_y
    _atom_site_fract_z
    _atom_type_partial_charge
    C   C1   0.802054  0.004818  0.151262  -0.135034
    C   C2   0.723094  0.002157  0.096622  -0.026327
    C   C3   0.711589  0.006053  0.975562  0.104695
    C   C4   0.778502  0.012311  0.912362  -0.246124
    C   C5   0.855997  0.011933  0.965835  0.159098
    C   C6   0.869777  0.011479  0.087566  -0.006628
    C   C7   0.918243  0.009186  0.894429  -0.219095
    C   C8   0.993220  0.999132  0.939578  0.037638
    C   C9   0.009265  0.002896  0.063741  -0.102265
    C   C10  0.950270  0.015256  0.141277  0.264642
    C   C11  0.052613  0.986672  0.862732  0.225328
    C   C12  0.133154  0.990367  0.916998  0.105364
    C   C13  0.147353  0.990477  0.039484  -0.211305
    C   C14  0.083863  0.992859  0.109499  0.000824
    C   C15  0.200244  0.995848  0.851817  -0.194674
    C   C16  0.279306  0.997906  0.905002  0.006566
    C   C17  0.291469  0.994898  0.026389  -0.096942
    C   C18  0.226004  0.990539  0.092513  0.347007
    H   H1   0.808579  0.997618  0.242545  0.157973
    H   H2   0.767753  0.011589  0.816196  0.170549
    H   H3   0.905626  0.012804  0.801308  0.164518
    H   H4   0.192889  0.002168  0.759969  0.165521
    H   H5   0.093037  0.988245  0.202105  0.071124
    O   O1   0.585022  0.011530  0.134488  -0.478595
    C   C19  0.654569  0.997167  0.170506  0.538400
    O   O2   0.499957  0.827218  0.151855  -0.490759
    O   O3   0.664852  0.982836  0.277371  -0.527269
    O   O4   0.496188  0.918146  0.344800  -0.458233
    C   C20  0.497167  0.841344  0.272147  0.531004
    Fe  Fe1  0.504649  0.999790  0.251009  1.442738
    O   O5   0.385467  0.950291  0.144445  -0.613404
    O   O6   0.439483  0.082303  0.120503  -0.497113
    C   C21  0.375553  0.007964  0.095599  0.668285
    O   O7   0.548074  0.122784  0.381532  -0.604567
    O   O8   0.419281  0.064714  0.428725  -0.526381
    C   C22  0.490883  0.131509  0.451910  0.628984
    O   O9   0.453017  0.878116  0.618576  -0.598779
    O   O10  0.582294  0.934586  0.571592  -0.531670
    C   C23  0.509960  0.868575  0.547973  0.619179
    O   O11  0.617895  0.049183  0.854148  -0.598337
    O   O12  0.563282  0.918609  0.882055  -0.495356
    C   C24  0.627607  0.992255  0.904740  0.588595
    O   O13  0.335731  0.013768  0.721210  -0.532898
    O   O14  0.507087  0.083010  0.655798  -0.469345
    C   C25  0.503222  0.158710  0.727442  0.524750
    O   O15  0.418617  0.990482  0.867311  -0.484121
    C   C26  0.347482  0.001978  0.829843  0.558676
    O   O16  0.498468  0.172060  0.846980  -0.497350
    Fe  Fe2  0.498201  0.001159  0.749313  1.448069
    C   C27  0.503079  0.217093  0.548422  -0.011029
    C   C28  0.506058  0.285762  0.506846  0.076105
    H   H6   0.502480  0.273876  0.406494  0.051225
    C   C29  0.508489  0.366154  0.590106  -0.447930
    C   C30  0.511402  0.378391  0.717340  0.094509
    H   H7   0.513808  0.440538  0.785194  0.050954
    C   C31  0.510277  0.310725  0.760048  -0.160795
    H   H8   0.512619  0.322726  0.860220  0.136550
    C   C32  0.505197  0.229101  0.676565  0.042493
    N   N1   0.504397  0.513654  0.623693  -0.286722
    N   N2   0.499303  0.576204  0.580900  -0.252513
    C   C33  0.493975  0.563040  0.456199  0.799274
    N   N3   0.494227  0.485806  0.375478  -0.284984
    N   N4   0.499330  0.423258  0.418273  -0.255955
    C   C34  0.504660  0.436425  0.542978  0.809739
    C   C35  0.487007  0.621040  0.281822  0.092675
    H   H9   0.484012  0.558703  0.213801  0.050470
    C   C36  0.488540  0.688846  0.239232  -0.157868
    H   H10  0.485960  0.676763  0.138996  0.134018
    C   C37  0.494533  0.770759  0.322936  0.038979
    C   C38  0.496882  0.782824  0.451171  -0.013476
    C   C39  0.493451  0.714008  0.492600  0.060887
    H   H11  0.497333  0.725974  0.593014  0.056511
    C   C40  0.490321  0.633389  0.409144  -0.431235
    N   N5   0.029236  0.966786  0.728257  -0.580496
    H   H12  0.060761  0.926357  0.680109  0.277840
    H   H13  0.965567  0.923810  0.696083  0.276297
    N   N6   0.243851  0.992725  0.219739  -0.560535
    H   H14  0.201298  0.935856  0.226644  0.280661
    H   H15  0.237746  0.049406  0.282869  0.249949
    N   N7   0.974813  0.035791  0.275765  -0.582008
    H   H16  0.939398  0.070862  0.324995  0.277884
    H   H17  0.036615  0.083178  0.307472  0.281570
