# Generated by REPEAT Assigner based on pymatgen
data_DB0-m29_o81_o90_f0_pts.sym.21
_audit_creation_date              2022-05-24
_audit_creation_method            REPEAT_Assigner
_cell_length_a                    15.804216
_cell_length_b                    17.054741
_cell_length_c                    11.377124
_cell_angle_alpha                 108.201275
_cell_angle_beta                  88.000170
_cell_angle_gamma                 108.484398
_cell_volume                      2755.822399
_symmetry_space_group_name_H-M    P1
_symmetry_Int_Tables_number       1
loop_
    _symmetry_equiv_pos_site_id
    _symmetry_equiv_pos_as_xyz
    1  x,y,z
loop_
    _atom_site_type_symbol
    _atom_site_label
    _atom_site_fract_x
    _atom_site_fract_y
    _atom_site_fract_z
    _atom_type_partial_charge
    C   C1   0.889672  0.024660  0.850388  0.342545
    C   C2   0.283158  0.990148  0.901086  0.063262
    C   C3   0.198891  0.985216  0.862729  -0.251676
    C   C4   0.132680  0.988248  0.944780  0.229096
    C   C5   0.050827  0.988319  0.906237  -0.280345
    C   C6   0.985083  0.997847  0.989330  0.185889
    C   C7   0.806554  0.022752  0.816114  -0.335727
    C   C8   0.734835  0.000508  0.884309  0.129902
    C   C9   0.903034  0.004203  0.956367  -0.168589
    C   C10  0.833560  0.994874  0.035469  0.207463
    C   C11  0.747709  0.989029  0.997031  -0.188611
    C   C12  0.299138  0.994512  0.022998  -0.163354
    C   C13  0.231253  0.993630  0.102852  0.273536
    C   C14  0.148723  0.992318  0.064561  -0.030925
    C   C15  0.081998  0.995203  0.145428  -0.164849
    C   C16  0.000782  0.997226  0.107801  0.102217
    C   C17  0.935548  0.999084  0.190456  -0.166934
    C   C18  0.852398  0.996133  0.154495  -0.135472
    H   H1   0.184878  0.981772  0.768687  0.167557
    H   H2   0.039624  0.977137  0.808919  0.171803
    H   H3   0.797564  0.036387  0.731643  0.217856
    H   H4   0.093026  0.996527  0.239307  0.147149
    H   H5   0.948418  0.000546  0.283931  0.142176
    H   H6   0.805112  0.998952  0.224820  0.141629
    O   O1   0.614511  0.018062  0.083817  -0.510760
    C   C19  0.671498  0.974885  0.075721  0.545777
    O   O2   0.472610  0.814740  0.106877  -0.432499
    O   O3   0.659120  0.918091  0.135371  -0.452315
    O   O4   0.515965  0.915562  0.296996  -0.469391
    C   C20  0.490366  0.833550  0.226201  0.472942
    Fe  Fe1  0.524475  0.999421  0.206241  1.398931
    O   O5   0.403646  0.949424  0.113887  -0.517414
    O   O6   0.449846  0.085130  0.095567  -0.451952
    C   C21  0.388097  0.008798  0.075157  0.643932
    O   O7   0.559723  0.118615  0.332726  -0.597134
    O   O8   0.422143  0.058342  0.392292  -0.509549
    C   C22  0.495098  0.125361  0.406824  0.665086
    O   O9   0.459315  0.875883  0.581487  -0.587743
    O   O10  0.594607  0.922021  0.506243  -0.536175
    C   C23  0.516603  0.861977  0.497617  0.663885
    O   O11  0.636794  0.039458  0.772650  -0.579941
    O   O12  0.578046  0.920380  0.834924  -0.483698
    C   C24  0.646261  0.988144  0.832834  0.596809
    O   O13  0.335055  0.992664  0.699983  -0.502423
    O   O14  0.516276  0.078554  0.606801  -0.489477
    C   C25  0.504219  0.150957  0.677372  0.553912
    O   O15  0.431964  0.990341  0.839352  -0.478061
    C   C26  0.352548  0.991030  0.810943  0.567844
    O   O16  0.495439  0.162498  0.796121  -0.514996
    Fe  Fe2  0.510144  0.997045  0.700673  1.417810
    C   C27  0.501570  0.208947  0.499813  -0.217475
    C   C28  0.501632  0.276543  0.457320  0.500429
    C   C29  0.500300  0.355946  0.539116  -0.691971
    C   C30  0.501580  0.366823  0.665238  0.548026
    C   C31  0.502944  0.299768  0.707547  -0.370471
    H   H7   0.504024  0.310966  0.806400  0.198715
    C   C32  0.502496  0.220138  0.626237  0.136263
    N   N1   0.505459  0.506704  0.572276  -0.221575
    N   N2   0.500553  0.569694  0.531178  -0.226469
    C   C33  0.485333  0.554407  0.409203  0.720602
    N   N3   0.475333  0.474446  0.329394  -0.254520
    N   N4   0.480232  0.411499  0.370697  -0.210048
    C   C34  0.495559  0.426612  0.492757  0.833445
    C   C35  0.469698  0.611302  0.238259  0.091662
    H   H8   0.459357  0.547525  0.171423  0.059026
    C   C36  0.471398  0.679262  0.195907  -0.207810
    H   H9   0.462015  0.665960  0.097160  0.162120
    C   C37  0.486946  0.762849  0.277393  0.127060
    C   C38  0.498216  0.776374  0.404055  -0.053268
    C   C39  0.494525  0.707661  0.445751  0.050743
    H   H10  0.504652  0.720651  0.544301  0.059130
    C   C40  0.482202  0.625243  0.363580  -0.361992
    F   F1   0.957576  0.055418  0.783903  -0.179485
    F   F2   0.499974  0.442398  0.750173  -0.217472
    F   F3   0.248259  0.999673  0.221873  -0.135330
    F   F4   0.500340  0.262025  0.333183  -0.188331
