# generated using pymatgen
data_ZnH19C26NO10
_symmetry_space_group_name_H-M   'P 1'
_cell_length_a   8.93520800
_cell_length_b   19.43912500
_cell_length_c   18.23374000
_cell_angle_alpha   89.98914300
_cell_angle_beta   97.76219200
_cell_angle_gamma   90.01053600
_symmetry_Int_Tables_number   1
_chemical_formula_structural   ZnH19C26NO10
_chemical_formula_sum   'Zn2 H38 C52 N2 O20'
_cell_volume   3138.04681429
_cell_formula_units_Z   2
loop_
 _symmetry_equiv_pos_site_id
 _symmetry_equiv_pos_as_xyz
  1  'x, y, z'
loop_
 _atom_site_type_symbol
 _atom_site_label
 _atom_site_symmetry_multiplicity
 _atom_site_fract_x
 _atom_site_fract_y
 _atom_site_fract_z
 _atom_site_occupancy
  Zn  Zn1  1  0.51288700  0.49896300  0.58381700  1
  Zn  Zn2  1  0.50931100  0.50240300  0.41684100  1
  H  H1  1  0.99201100  0.50174400  0.41545200  1
  H  H2  1  0.03018400  0.49963700  0.58520800  1
  H  H3  1  0.56570600  0.72064900  0.39442000  1
  H  H4  1  0.46568400  0.28184900  0.60858800  1
  H  H5  1  0.55993000  0.84531900  0.39387700  1
  H  H6  1  0.45800700  0.15728400  0.60867100  1
  H  H7  1  0.63926200  0.94034900  0.61002300  1
  H  H8  1  0.38180000  0.06143300  0.39208300  1
  H  H9  1  0.63613500  0.06533700  0.60779600  1
  H  H10  1  0.38127800  0.93621700  0.39492900  1
  H  H11  1  0.72347100  0.54829800  0.71166000  1
  H  H12  1  0.29466100  0.45653900  0.28883800  1
  H  H13  1  0.30845200  0.44356000  0.82143300  1
  H  H14  1  0.71471900  0.55659800  0.17906000  1
  H  H15  1  0.31057200  0.44308700  0.68757300  1
  H  H16  1  0.71458700  0.55584200  0.31314800  1
  H  H17  1  0.44262600  0.39547400  0.93012300  1
  H  H18  1  0.57705300  0.60745900  0.07071200  1
  H  H19  1  0.43734600  0.39719200  0.06305800  1
  H  H20  1  0.58052800  0.60613600  0.93764100  1
  H  H21  1  0.37216000  0.91011900  0.74111300  1
  H  H22  1  0.55959500  0.89953900  0.79163100  1
  H  H23  1  0.41711100  0.83426000  0.79743600  1
  H  H24  1  0.66107900  0.08429000  0.26768600  1
  H  H25  1  0.86075900  0.09706300  0.29749400  1
  H  H26  1  0.75574000  0.15927400  0.23709900  1
  H  H27  1  0.25437000  0.63812900  0.70970800  1
  H  H28  1  0.15929500  0.71465800  0.73618600  1
  H  H29  1  0.35938600  0.70317400  0.76613300  1
  H  H30  1  0.53926700  0.35388000  0.23813100  1
  H  H31  1  0.49000300  0.27549700  0.18677800  1
  H  H32  1  0.67694900  0.28587100  0.23797600  1
  H  H33  1  0.00421900  0.58963700  0.92858700  1
  H  H34  1  0.97105700  0.68002500  0.90851200  1
  H  H35  1  0.06970000  0.62788700  0.84811600  1
  H  H36  1  0.01001600  0.42131900  0.07087700  1
  H  H37  1  0.94006400  0.38450000  0.15093400  1
  H  H38  1  0.03445300  0.33039300  0.09058900  1
  C  C1  1  0.51230400  0.36580100  0.49774700  1
  C  C2  1  0.50996000  0.63550000  0.50294900  1
  C  C3  1  0.21561100  0.50051400  0.48257000  1
  C  C4  1  0.80657800  0.50086200  0.51809300  1
  C  C5  1  0.05008900  0.50091200  0.47159300  1
  C  C6  1  0.97210100  0.50047100  0.52906900  1
  C  C7  1  0.53858200  0.74729900  0.44293000  1
  C  C8  1  0.48764600  0.25463700  0.55949300  1
  C  C9  1  0.53448800  0.81807400  0.44236400  1
  C  C10  1  0.48359600  0.18387600  0.55981200  1
  C  C11  1  0.50562800  0.85388500  0.50422000  1
  C  C12  1  0.51013700  0.14734000  0.49813100  1
  C  C13  1  0.47633300  0.81834500  0.56653600  1
  C  C14  1  0.54506300  0.18184500  0.43640200  1
  C  C15  1  0.47132100  0.74678600  0.56557500  1
  C  C16  1  0.54013600  0.25340700  0.43411300  1
  C  C17  1  0.50862200  0.71116700  0.50453400  1
  C  C18  1  0.51412300  0.29002300  0.49672000  1
  C  C19  1  0.57845900  0.96632600  0.56275200  1
  C  C20  1  0.44001500  0.03512000  0.43983300  1
  C  C21  1  0.57814100  0.03725900  0.56125000  1
  C  C22  1  0.43911200  0.96420900  0.44157800  1
  C  C23  1  0.50950600  0.07198200  0.49969600  1
  C  C24  1  0.50726500  0.92937600  0.50321900  1
  C  C25  1  0.63093000  0.52764100  0.73715600  1
  C  C26  1  0.38835300  0.47595900  0.26335500  1
  C  C27  1  0.63327400  0.52941900  0.81329500  1
  C  C28  1  0.38514000  0.47474100  0.18714100  1
  C  C29  1  0.51710800  0.49872800  0.84435600  1
  C  C30  1  0.50288300  0.50409700  0.15622000  1
  C  C31  1  0.40182800  0.46696100  0.79871800  1
  C  C32  1  0.62051500  0.53408000  0.20189500  1
  C  C33  1  0.40226900  0.46713400  0.72320200  1
  C  C34  1  0.62114300  0.53315900  0.27747500  1
  C  C35  1  0.47028600  0.44256800  0.96043300  1
  C  C36  1  0.54894900  0.56048800  0.04023200  1
  C  C37  1  0.46613200  0.44373700  0.03574600  1
  C  C38  1  0.55244900  0.55943700  0.96486000  1
  C  C39  1  0.50488500  0.50282900  0.07598500  1
  C  C40  1  0.51432300  0.50023700  0.92460900  1
  C  C41  1  0.51064100  0.83633100  0.69581300  1
  C  C42  1  0.46174700  0.87234100  0.76062900  1
  C  C43  1  0.71424400  0.16198200  0.34963400  1
  C  C44  1  0.75022700  0.12321700  0.28377400  1
  C  C45  1  0.30097500  0.72960200  0.65231800  1
  C  C46  1  0.26629800  0.69414800  0.72043800  1
  C  C47  1  0.50186600  0.26651900  0.30402900  1
  C  C48  1  0.55528800  0.29738700  0.23746300  1
  C  C49  1  0.83207600  0.61086500  0.83857800  1
  C  C50  1  0.97861200  0.62821200  0.88383500  1
  C  C51  1  0.17913300  0.39686800  0.16117000  1
  C  C52  1  0.03149700  0.38234300  0.11547700  1
  N  N1  1  0.51579600  0.49731200  0.69369400  1
  N  N2  1  0.50624600  0.50411300  0.30695000  1
  O  O1  1  0.51261200  0.39679800  0.56178100  1
  O  O2  1  0.50977700  0.60458600  0.43887800  1
  O  O3  1  0.51064500  0.39960400  0.43529200  1
  O  O4  1  0.51177200  0.60173100  0.56537500  1
  O  O5  1  0.28729800  0.49911800  0.55023400  1
  O  O6  1  0.73491200  0.50227900  0.45040100  1
  O  O7  1  0.28485300  0.50189400  0.42361800  1
  O  O8  1  0.73736300  0.49949600  0.57707800  1
  O  O9  1  0.44943800  0.85409400  0.62670300  1
  O  O10  1  0.61188400  0.79390200  0.70535800  1
  O  O11  1  0.59105400  0.14488200  0.38103600  1
  O  O12  1  0.80103900  0.20606400  0.37743900  1
  O  O13  1  0.42485200  0.71150500  0.62200500  1
  O  O14  1  0.21279000  0.77193600  0.62197000  1
  O  O15  1  0.56224400  0.28756800  0.37213700  1
  O  O16  1  0.39924500  0.22468300  0.29659400  1
  O  O17  1  0.75149700  0.55655300  0.85773300  1
  O  O18  1  0.78098200  0.64871800  0.78800000  1
  O  O19  1  0.26504500  0.44949800  0.14243600  1
  O  O20  1  0.22602000  0.35811600  0.21166300  1
