# generated using pymatgen
data_Cu2H9(C9O4)2
_symmetry_space_group_name_H-M   'P 1'
_cell_length_a   18.44018300
_cell_length_b   13.35584600
_cell_length_c   12.08905300
_cell_angle_alpha   65.53097400
_cell_angle_beta   44.83004000
_cell_angle_gamma   92.24961800
_symmetry_Int_Tables_number   1
_chemical_formula_structural   Cu2H9(C9O4)2
_chemical_formula_sum   'Cu4 H18 C36 O16'
_cell_volume   1633.11764277
_cell_formula_units_Z   2
loop_
 _symmetry_equiv_pos_site_id
 _symmetry_equiv_pos_as_xyz
  1  'x, y, z'
loop_
 _atom_site_type_symbol
 _atom_site_label
 _atom_site_symmetry_multiplicity
 _atom_site_fract_x
 _atom_site_fract_y
 _atom_site_fract_z
 _atom_site_occupancy
  Cu  Cu1  1  0.60080400  0.59872200  0.30282000  1
  Cu  Cu2  1  0.40404200  0.40172400  0.68971800  1
  Cu  Cu3  1  0.95488100  0.40953700  0.51260300  1
  Cu  Cu4  1  0.04995800  0.59091500  0.47993300  1
  H  H1  1  0.33208900  0.91010700  0.83463700  1
  H  H2  1  0.56380600  0.91048700  0.33101200  1
  H  H3  1  0.22315000  0.57638400  0.91268500  1
  H  H4  1  0.78169600  0.42406500  0.07985100  1
  H  H5  1  0.67275500  0.09034200  0.15789800  1
  H  H6  1  0.44104200  0.08996000  0.66152500  1
  H  H7  1  0.50086800  0.54331300  0.05544100  1
  H  H8  1  0.31890100  0.59899100  0.24421100  1
  H  H9  1  0.24362900  0.46225400  0.58465000  1
  H  H10  1  0.08310400  0.23800200  0.74306400  1
  H  H11  1  0.26838300  0.18160700  0.55135300  1
  H  H12  1  0.33800000  0.31796000  0.21182500  1
  H  H13  1  0.76122000  0.53819800  0.40789000  1
  H  H14  1  0.68594500  0.40146500  0.74833100  1
  H  H15  1  0.50397400  0.45713700  0.93710000  1
  H  H16  1  0.66683600  0.68249500  0.78071800  1
  H  H17  1  0.73645400  0.81884300  0.44118800  1
  H  H18  1  0.92173800  0.76245500  0.24947800  1
  C  C1  1  0.58151800  0.34668800  0.43642900  1
  C  C2  1  0.58530500  0.57362900  0.56567600  1
  C  C3  1  0.42332800  0.65375900  0.55610800  1
  C  C4  1  0.41953900  0.42681800  0.42686200  1
  C  C5  1  0.26470600  0.73939700  0.89087300  1
  C  C6  1  0.45632000  0.93245400  0.56171600  1
  C  C7  1  0.39291500  0.73816600  0.61176600  1
  C  C8  1  0.34916600  0.86604600  0.76703800  1
  C  C9  1  0.47798900  0.86627000  0.48547300  1
  C  C10  1  0.28565800  0.67792200  0.81185400  1
  C  C11  1  0.84214900  0.33995700  0.88213500  1
  C  C12  1  0.14462800  0.42274100  0.41741900  1
  C  C13  1  0.16269400  0.66049300  0.11039900  1
  C  C14  1  0.86021600  0.57771900  0.57512100  1
  C  C15  1  0.61193100  0.26228200  0.38077000  1
  C  C16  1  0.74013900  0.26105200  0.10166100  1
  C  C17  1  0.54852600  0.06799400  0.43081900  1
  C  C18  1  0.71918700  0.32252600  0.18068100  1
  C  C19  1  0.65567900  0.13440300  0.22549700  1
  C  C20  1  0.52685800  0.13417700  0.50706300  1
  C  C21  1  0.30783200  0.50331900  0.31436100  1
  C  C22  1  0.40520100  0.47365100  0.21058900  1
  C  C23  1  0.36011700  0.39795500  0.39886200  1
  C  C24  1  0.26284100  0.42800900  0.50167300  1
  C  C25  1  0.17855600  0.30707500  0.58696000  1
  C  C26  1  0.27672100  0.27581000  0.48363100  1
  C  C27  1  0.31926700  0.35291600  0.29379600  1
  C  C28  1  0.22068100  0.38262600  0.40133900  1
  C  C29  1  0.69701200  0.49713600  0.67818100  1
  C  C30  1  0.74200400  0.57244400  0.49086800  1
  C  C31  1  0.64472600  0.60249500  0.59367800  1
  C  C32  1  0.59964100  0.52680100  0.78195200  1
  C  C33  1  0.68557200  0.64753800  0.69874700  1
  C  C34  1  0.72811800  0.72464200  0.50891100  1
  C  C35  1  0.82628600  0.69338000  0.40558200  1
  C  C36  1  0.78416000  0.61783200  0.59120400  1
  O  O1  1  0.64953100  0.47152500  0.28838900  1
  O  O2  1  0.47693300  0.29897500  0.62114700  1
  O  O3  1  0.65318600  0.63452200  0.37940500  1
  O  O4  1  0.48412000  0.46378200  0.71402400  1
  O  O5  1  0.52791300  0.70147200  0.37139000  1
  O  O6  1  0.35531500  0.52892200  0.70414800  1
  O  O7  1  0.52072500  0.53666400  0.27851400  1
  O  O8  1  0.35165900  0.36592400  0.61313300  1
  O  O9  1  0.84324800  0.29967100  0.79892800  1
  O  O10  1  0.92164200  0.45840500  0.77224900  1
  O  O11  1  0.06349100  0.35551600  0.46183300  1
  O  O12  1  0.14716300  0.51735900  0.42555800  1
  O  O13  1  0.08319900  0.54204700  0.22028600  1
  O  O14  1  0.16159500  0.70078000  0.19360600  1
  O  O15  1  0.85768500  0.48310500  0.56697300  1
  O  O16  1  0.94135000  0.64494400  0.53071200  1
