# generated using pymatgen
data_ZnH9C20NO5
_symmetry_space_group_name_H-M   'P 1'
_cell_length_a   14.98400000
_cell_length_b   16.03500500
_cell_length_c   16.13315000
_cell_angle_alpha   89.99238200
_cell_angle_beta   90.00823100
_cell_angle_gamma   72.68639100
_symmetry_Int_Tables_number   1
_chemical_formula_structural   ZnH9C20NO5
_chemical_formula_sum   'Zn2 H18 C40 N2 O10'
_cell_volume   3700.65382261
_cell_formula_units_Z   2
loop_
 _symmetry_equiv_pos_site_id
 _symmetry_equiv_pos_as_xyz
  1  'x, y, z'
loop_
 _atom_site_type_symbol
 _atom_site_label
 _atom_site_symmetry_multiplicity
 _atom_site_fract_x
 _atom_site_fract_y
 _atom_site_fract_z
 _atom_site_occupancy
  Zn  Zn1  1  0.60166700  0.49957000  0.50001600  1
  Zn  Zn2  1  0.39833200  0.50042900  0.49998400  1
  H  H1  1  0.74811300  0.93042600  0.50002300  1
  H  H2  1  0.25188600  0.06957400  0.49997700  1
  H  H3  1  0.55277900  0.77466700  0.49999000  1
  H  H4  1  0.44722000  0.22533300  0.50001000  1
  H  H5  1  0.26941600  0.77792100  0.50000700  1
  H  H6  1  0.73058400  0.22207900  0.49999300  1
  H  H7  1  0.78046200  0.06407100  0.50000300  1
  H  H8  1  0.21953800  0.93592900  0.49999700  1
  H  H9  1  0.64542900  0.84536100  0.50003300  1
  H  H10  1  0.35457000  0.15463900  0.49996700  1
  H  H11  1  0.64218600  0.49992500  0.07626100  1
  H  H12  1  0.35781300  0.50007400  0.92373900  1
  H  H13  1  0.64218500  0.49991000  0.92376600  1
  H  H14  1  0.35781400  0.50009000  0.07623400  1
  H  H15  1  0.11399400  0.40118500  0.40741300  1
  H  H16  1  0.88600600  0.59881500  0.59258700  1
  H  H17  1  0.95802100  0.33337300  0.42819300  1
  H  H18  1  0.04197900  0.66666667  0.57180700  1
  C  C1  1  0.50000900  0.50002000  0.33800000  1
  C  C2  1  0.49999000  0.49997900  0.66200000  1
  C  C3  1  0.55381800  0.32883200  0.50000300  1
  C  C4  1  0.44618200  0.67116700  0.49999700  1
  C  C5  1  0.58427300  0.23281900  0.50000100  1
  C  C6  1  0.41572600  0.76718100  0.49999800  1
  C  C7  1  0.70653300  0.09854800  0.50000200  1
  C  C8  1  0.29346600  0.90145200  0.49999800  1
  C  C9  1  0.67821600  0.18809500  0.49999800  1
  C  C10  1  0.32178300  0.81190500  0.50000200  1
  C  C11  1  0.51915400  0.18694300  0.50000300  1
  C  C12  1  0.48084500  0.81305700  0.49999700  1
  C  C13  1  0.54693500  0.09553600  0.50000100  1
  C  C14  1  0.45306500  0.90446300  0.49999900  1
  C  C15  1  0.64185600  0.05278200  0.50000500  1
  C  C16  1  0.35814400  0.94721700  0.49999500  1
  C  C17  1  0.48335600  0.04577600  0.49999600  1
  C  C18  1  0.51664400  0.95422300  0.50000400  1
  C  C19  1  0.61291500  0.91465800  0.50001800  1
  C  C20  1  0.38708400  0.08534100  0.49998200  1
  C  C21  1  0.67384500  0.96346200  0.50001500  1
  C  C22  1  0.32615500  0.03653700  0.49998500  1
  C  C23  1  0.57971000  0.49994900  0.95727500  1
  C  C24  1  0.42028900  0.50005000  0.04272500  1
  C  C25  1  0.50000000  0.49999100  0.91454300  1
  C  C26  1  0.50000000  0.50000900  0.08545700  1
  C  C27  1  0.42028900  0.50004100  0.95725900  1
  C  C28  1  0.57971000  0.49995800  0.04274100  1
  C  C29  1  0.50000000  0.49998300  0.82561500  1
  C  C30  1  0.49999900  0.50001700  0.17438500  1
  C  C31  1  0.50000300  0.50002100  0.24906800  1
  C  C32  1  0.49999700  0.49997900  0.75093200  1
  C  C33  1  0.97202200  0.44413900  0.44814200  1
  C  C34  1  0.02797700  0.55586000  0.55185800  1
  C  C35  1  0.90812000  0.49955000  0.50005500  1
  C  C36  1  0.09187900  0.50045000  0.49994500  1
  C  C37  1  0.93611400  0.55537900  0.55191700  1
  C  C38  1  0.06388600  0.44462100  0.44808300  1
  C  C39  1  0.81243800  0.49929900  0.50003700  1
  C  C40  1  0.18756100  0.50070100  0.49996300  1
  N  N1  1  0.26473400  0.50082000  0.49997000  1
  N  N2  1  0.73526500  0.49917900  0.50003000  1
  O  O1  1  0.57717500  0.49969700  0.37650900  1
  O  O2  1  0.42282500  0.50030300  0.62349100  1
  O  O3  1  0.42284700  0.50033600  0.37648800  1
  O  O4  1  0.57715200  0.49966400  0.62351200  1
  O  O5  1  0.61800200  0.36951700  0.50000900  1
  O  O6  1  0.38199700  0.63048300  0.49999100  1
  O  O7  1  0.46387700  0.37019900  0.49999700  1
  O  O8  1  0.53612200  0.62980000  0.50000300  1
  O  O9  1  0.94435800  0.38878600  0.39675800  1
  O  O10  1  0.05564200  0.61121300  0.60324200  1
