# generated using pymatgen
data_ZnH6C14NO6
_symmetry_space_group_name_H-M   'P 1'
_cell_length_a   6.55366400
_cell_length_b   13.77382000
_cell_length_c   14.39290600
_cell_angle_alpha   100.54843200
_cell_angle_beta   89.91156600
_cell_angle_gamma   100.17372500
_symmetry_Int_Tables_number   1
_chemical_formula_structural   ZnH6C14NO6
_chemical_formula_sum   'Zn2 H12 C28 N2 O12'
_cell_volume   1256.55700442
_cell_formula_units_Z   2
loop_
 _symmetry_equiv_pos_site_id
 _symmetry_equiv_pos_as_xyz
  1  'x, y, z'
loop_
 _atom_site_type_symbol
 _atom_site_label
 _atom_site_symmetry_multiplicity
 _atom_site_fract_x
 _atom_site_fract_y
 _atom_site_fract_z
 _atom_site_occupancy
  Zn  Zn1  1  0.01792700  0.49608800  0.89856700  1
  Zn  Zn2  1  0.99078400  0.51026400  0.10736400  1
  H  H1  1  0.74360200  0.17315500  0.93260400  1
  H  H2  1  0.26510700  0.83319500  0.07332500  1
  H  H3  1  0.49495600  0.01886700  0.93864500  1
  H  H4  1  0.51375400  0.98748400  0.06728700  1
  H  H5  1  0.02049000  0.19300800  0.00893500  1
  H  H6  1  0.98822100  0.81334300  0.99699600  1
  H  H7  1  0.15421700  0.93244300  0.96571800  1
  H  H8  1  0.85449500  0.07390900  0.04021200  1
  H  H9  1  0.70243000  0.55588200  0.43864600  1
  H  H10  1  0.30629000  0.45047600  0.56728700  1
  H  H11  1  0.40746900  0.59615700  0.63867300  1
  H  H12  1  0.44657200  0.44142700  0.25503300  1
  C  C1  1  0.58325200  0.17714200  0.94747500  1
  C  C2  1  0.42545900  0.82920900  0.05845400  1
  C  C3  1  0.44409300  0.09049600  0.95225500  1
  C  C4  1  0.56461800  0.91585500  0.05367500  1
  C  C5  1  0.24249500  0.09534200  0.97758000  1
  C  C6  1  0.76621500  0.91101000  0.02835000  1
  C  C7  1  0.17924600  0.18715100  0.99336600  1
  C  C8  1  0.82946500  0.81920000  0.01256400  1
  C  C9  1  0.31700400  0.27346900  0.98660900  1
  C  C10  1  0.69170800  0.73288200  0.01932100  1
  C  C11  1  0.52091800  0.26920800  0.96561600  1
  C  C12  1  0.48779300  0.73714400  0.04031400  1
  C  C13  1  0.09962200  0.00261000  0.98639600  1
  C  C14  1  0.90908900  0.00374100  0.01953500  1
  C  C15  1  0.23498100  0.36587500  0.99408500  1
  C  C16  1  0.77373100  0.64047700  0.01184500  1
  C  C17  1  0.67876500  0.36025100  0.97776500  1
  C  C18  1  0.32994700  0.64610000  0.02816500  1
  C  C19  1  0.83517000  0.53283600  0.46688000  1
  C  C20  1  0.17355200  0.47352600  0.53905500  1
  C  C21  1  0.99354800  0.50955900  0.40862200  1
  C  C22  1  0.01516900  0.49679800  0.59731100  1
  C  C23  1  0.16255600  0.47983100  0.44471200  1
  C  C24  1  0.84617500  0.52654200  0.56122400  1
  C  C25  1  0.98230600  0.51449900  0.31004500  1
  C  C26  1  0.02641000  0.49185500  0.69588700  1
  C  C27  1  0.67873700  0.55156700  0.62311100  1
  C  C28  1  0.33003200  0.45484500  0.38283400  1
  N  N1  1  0.03198300  0.48946200  0.77577600  1
  N  N2  1  0.97673000  0.51689000  0.23015500  1
  O  O1  1  0.16445100  0.40239900  0.07587900  1
  O  O2  1  0.84426300  0.60395300  0.93005200  1
  O  O3  1  0.19641800  0.39506200  0.91511000  1
  O  O4  1  0.81229400  0.61128900  0.09082000  1
  O  O5  1  0.77048200  0.38697900  0.90286000  1
  O  O6  1  0.23823000  0.61937300  0.10307000  1
  O  O7  1  0.74201700  0.40233400  0.06461000  1
  O  O8  1  0.26669600  0.60401700  0.94132100  1
  O  O9  1  0.68825700  0.54601600  0.70650600  1
  O  O10  1  0.50847400  0.58174200  0.58687300  1
  O  O11  1  0.47935200  0.42850900  0.41461200  1
  O  O12  1  0.31910100  0.46111700  0.28765900  1
