# generated using pymatgen
data_FeH10C19O8
_symmetry_space_group_name_H-M   'P 1'
_cell_length_a   15.38930300
_cell_length_b   14.45788100
_cell_length_c   13.46509800
_cell_angle_alpha   93.48917100
_cell_angle_beta   101.90781000
_cell_angle_gamma   111.93052500
_symmetry_Int_Tables_number   1
_chemical_formula_structural   FeH10C19O8
_chemical_formula_sum   'Fe2 H20 C38 O16'
_cell_volume   2687.76382265
_cell_formula_units_Z   2
loop_
 _symmetry_equiv_pos_site_id
 _symmetry_equiv_pos_as_xyz
  1  'x, y, z'
loop_
 _atom_site_type_symbol
 _atom_site_label
 _atom_site_symmetry_multiplicity
 _atom_site_fract_x
 _atom_site_fract_y
 _atom_site_fract_z
 _atom_site_occupancy
  Fe  Fe1  1  0.48189500  0.99380400  0.76941500  1
  Fe  Fe2  1  0.49666700  0.99034000  0.22324400  1
  H  H1  1  0.79385500  0.04930400  0.24236700  1
  H  H2  1  0.95044700  0.07330700  0.21090500  1
  H  H3  1  0.82585300  0.00548200  0.88935900  1
  H  H4  1  0.05571600  0.09905200  0.08574000  1
  H  H5  1  0.93335100  0.92576700  0.90999400  1
  H  H6  1  0.20633200  0.00093800  0.75715600  1
  H  H7  1  0.54469200  0.65481700  0.33007100  1
  H  H8  1  0.50193700  0.64292500  0.63414300  1
  H  H9  1  0.48633300  0.35383200  0.67848600  1
  H  H10  1  0.52838500  0.36174400  0.37411500  1
  H  H11  1  0.47023500  0.87524400  0.46929900  1
  H  H12  1  0.53901800  0.11918900  0.53338300  1
  H  H13  1  0.57393200  0.52700100  0.42185800  1
  H  H14  1  0.45985300  0.48057200  0.58669000  1
  H  H15  1  0.00774200  0.05161700  0.77487200  1
  H  H16  1  0.05706600  0.99637100  0.68981500  1
  H  H17  1  0.96733500  0.91535800  0.74724000  1
  H  H18  1  0.16780100  0.02930600  0.18709700  1
  H  H19  1  0.06559700  0.91689300  0.11959900  1
  H  H20  1  0.17897400  0.91037700  0.15772700  1
  C  C1  1  0.79986900  0.04040700  0.16411200  1
  C  C2  1  0.88828600  0.05341900  0.14668200  1
  C  C3  1  0.89650900  0.03563400  0.04833700  1
  C  C4  1  0.81705100  0.01251800  0.96657400  1
  C  C5  1  0.72790700  0.00237600  0.98269000  1
  C  C6  1  0.71872500  0.01182200  0.08353700  1
  C  C7  1  0.99087200  0.04453500  0.03294700  1
  C  C8  1  0.99825700  0.98187200  0.96109200  1
  C  C9  1  0.10791100  0.99181900  0.84976400  1
  C  C10  1  0.19534800  0.99889500  0.83383300  1
  C  C11  1  0.27117500  0.00875200  0.91451400  1
  C  C12  1  0.25862900  0.00725300  0.01428300  1
  C  C13  1  0.16681100  0.99086900  0.02938100  1
  C  C14  1  0.09314000  0.98891200  0.94755400  1
  C  C15  1  0.49611800  0.17325000  0.69748600  1
  C  C16  1  0.36151600  0.01808200  0.88800100  1
  C  C17  1  0.64982400  0.99182200  0.89224100  1
  C  C18  1  0.47431300  0.81687900  0.65272600  1
  C  C19  1  0.53451600  0.17632100  0.35093300  1
  C  C20  1  0.33895600  0.01681900  0.10226700  1
  C  C21  1  0.62618700  0.99002000  0.11025300  1
  C  C22  1  0.51939200  0.82858200  0.30824600  1
  C  C23  1  0.50553900  0.76867900  0.39127000  1
  C  C24  1  0.52542500  0.68351500  0.39456000  1
  C  C25  1  0.51801200  0.63341300  0.47878100  1
  C  C26  1  0.49961200  0.67534100  0.56406700  1
  C  C27  1  0.48231000  0.76262600  0.56135000  1
  C  C28  1  0.48144400  0.80599000  0.47292000  1
  C  C29  1  0.53455300  0.53921700  0.47572200  1
  C  C30  1  0.49978500  0.46861900  0.53339200  1
  C  C31  1  0.50331300  0.32272000  0.61358700  1
  C  C32  1  0.51590700  0.23350300  0.61554700  1
  C  C33  1  0.53409200  0.19170500  0.53197300  1
  C  C34  1  0.53628100  0.23602300  0.44418600  1
  C  C35  1  0.52901100  0.32869200  0.44385200  1
  C  C36  1  0.51384000  0.37317000  0.52991700  1
  C  C37  1  0.03025900  0.98856400  0.76046600  1
  C  C38  1  0.14374800  0.96124500  0.12909600  1
  O  O1  1  0.55162800  0.12468400  0.72749000  1
  O  O2  1  0.44389500  0.09130200  0.93626100  1
  O  O3  1  0.40983100  0.14366500  0.71492100  1
  O  O4  1  0.35636300  0.96116100  0.80521500  1
  O  O5  1  0.56493800  0.98606300  0.90207200  1
  O  O6  1  0.66833900  0.99838500  0.80146100  1
  O  O7  1  0.45719300  0.89871000  0.64211100  1
  O  O8  1  0.49662700  0.79279200  0.74413000  1
  O  O9  1  0.50658100  0.07839200  0.34980400  1
  O  O10  1  0.55118900  0.21693500  0.26864700  1
  O  O11  1  0.40437100  0.98208300  0.09032700  1
  O  O12  1  0.34449000  0.05861800  0.19377200  1
  O  O13  1  0.60799900  0.88152100  0.30282800  1
  O  O14  1  0.62229600  0.04815300  0.18655500  1
  O  O15  1  0.44927700  0.85580600  0.26693100  1
  O  O16  1  0.55316900  0.90357300  0.07197200  1
