# Generated by REPEAT Assigner based on pymatgen
data_DB0-m3_o1_o14_f0_pcu.sym.62_sqe
_audit_creation_date              2022-05-24
_audit_creation_method            REPEAT_Assigner
_cell_length_a                    11.045060
_cell_length_b                    9.748657
_cell_length_c                    11.012898
_cell_angle_alpha                 90.000000
_cell_angle_beta                  90.001692
_cell_angle_gamma                 90.000000
_cell_volume                      1185.808314
_symmetry_space_group_name_H-M    P1
_symmetry_Int_Tables_number       1
loop_
    _symmetry_equiv_pos_site_id
    _symmetry_equiv_pos_as_xyz
    1  x,y,z
loop_
    _atom_site_type_symbol
    _atom_site_label
    _atom_site_fract_x
    _atom_site_fract_y
    _atom_site_fract_z
    _atom_type_partial_charge
    O   O1   0.319227  0.615694  0.496372  -0.652924
    O   O2   0.680773  0.615694  0.503675  -0.652780
    O   O3   0.320150  0.380972  0.493152  -0.578979
    O   O4   0.679852  0.380972  0.506910  -0.578670
    C   C1   0.261752  0.497294  0.494255  0.628285
    C   C2   0.738249  0.497295  0.505789  0.627846
    O   O5   0.503805  0.615510  0.319565  -0.586800
    O   O6   0.496195  0.615507  0.680485  -0.586740
    O   O7   0.507419  0.380857  0.318840  -0.705572
    O   O8   0.492584  0.380855  0.681216  -0.705597
    C   C3   0.510220  0.499293  0.261218  0.786838
    C   C4   0.489781  0.499292  0.738835  0.786768
    Zn  Zn1  0.500000  0.653279  0.500025  1.011996
    Zn  Zn2  0.500001  0.343248  0.500028  1.019802
    H   H1   0.503958  0.284062  0.109604  0.109432
    H   H2   0.496051  0.284062  0.890448  0.109242
    C   C5   0.554485  0.750443  0.111141  -0.222767
    C   C6   0.445508  0.750439  0.888909  -0.222323
    H   H3   0.607241  0.755936  0.193203  0.114564
    H   H4   0.392752  0.755928  0.806846  0.114514
    C   C7   0.531116  0.872628  0.053691  -0.095136
    C   C8   0.468872  0.872626  0.946358  -0.095783
    H   H5   0.557559  0.968408  0.095440  0.099133
    H   H6   0.442426  0.968405  0.904608  0.099314
    C   C9   0.482564  0.626207  0.939485  0.207148
    C   C10  0.517432  0.626208  0.060567  0.207634
    C   C11  0.515383  0.502917  0.126299  -0.246849
    C   C12  0.484618  0.502916  0.873754  -0.246837
    C   C13  0.503833  0.381336  0.062594  -0.067379
    C   C14  0.496172  0.381336  0.937459  -0.066876
    C   C15  0.062626  0.370133  0.498837  -0.142846
    C   C16  0.937370  0.370134  0.501001  -0.141788
    C   C17  0.872740  0.493568  0.502428  0.005863
    C   C18  0.127261  0.493566  0.497589  0.006367
    C   C19  0.937361  0.615265  0.501245  -0.088403
    C   C20  0.062643  0.615264  0.498929  -0.089050
    H   H7   0.890657  0.712641  0.502363  0.118384
    H   H8   0.109347  0.712641  0.497950  0.118439
    C   C21  0.569095  0.068991  0.579897  -0.016528
    C   C22  0.430909  0.068992  0.420156  -0.016410
    H   H9   0.624643  0.124248  0.644202  0.150965
    H   H10  0.375362  0.124251  0.355851  0.150870
    C   C23  0.569165  0.927535  0.579838  0.040909
    C   C24  0.430836  0.927536  0.420214  0.041247
    H   H11  0.624869  0.872285  0.644024  0.115225
    H   H12  0.375133  0.872288  0.356027  0.115063
    N   N1   0.500000  0.858459  0.500026  -0.053727
    N   N2   0.500001  0.138067  0.500027  -0.014262
    C   C25  0.122346  0.235327  0.495839  0.610031
    H   H13  0.180254  0.203625  0.570269  -0.053808
    O   O9   0.107702  0.158647  0.409525  -0.511443
    C   C26  0.877643  0.235325  0.503763  0.609097
    H   H14  0.819687  0.203823  0.429304  -0.053485
    O   O10  0.892309  0.158435  0.589927  -0.511213
