# generated using pymatgen
data_ZnH12C21I2NO4
_symmetry_space_group_name_H-M   'P 1'
_cell_length_a   19.46765800
_cell_length_b   18.26469400
_cell_length_c   11.20200300
_cell_angle_alpha   90.00000000
_cell_angle_beta   90.00733300
_cell_angle_gamma   90.00000000
_symmetry_Int_Tables_number   1
_chemical_formula_structural   ZnH12C21I2NO4
_chemical_formula_sum   'Zn2 H24 C42 I4 N2 O8'
_cell_volume   3983.10531791
_cell_formula_units_Z   2
loop_
 _symmetry_equiv_pos_site_id
 _symmetry_equiv_pos_as_xyz
  1  'x, y, z'
loop_
 _atom_site_type_symbol
 _atom_site_label
 _atom_site_symmetry_multiplicity
 _atom_site_fract_x
 _atom_site_fract_y
 _atom_site_fract_z
 _atom_site_occupancy
  Zn  Zn1  1  0.50000000  0.58117100  0.50000000  1
  Zn  Zn2  1  0.50000000  0.41498600  0.50000000  1
  H  H1  1  0.52236400  0.54881400  0.90727900  1
  H  H2  1  0.47763600  0.54881400  0.09272200  1
  H  H3  1  0.84643400  0.41058800  0.37391700  1
  H  H4  1  0.15356600  0.41058800  0.62608300  1
  H  H5  1  0.84035000  0.59473700  0.60941900  1
  H  H6  1  0.15965000  0.59473700  0.39058200  1
  H  H7  1  0.71594800  0.59237900  0.60335200  1
  H  H8  1  0.28405200  0.59237900  0.39664800  1
  H  H9  1  0.93797400  0.61970800  0.49532400  1
  H  H10  1  0.06202600  0.61970800  0.50467700  1
  H  H11  1  0.06187300  0.38540600  0.50002800  1
  H  H12  1  0.93812700  0.38540600  0.49997200  1
  H  H13  1  0.58015900  0.69725400  0.62565700  1
  H  H14  1  0.41984100  0.69725400  0.37434300  1
  H  H15  1  0.58103600  0.83069900  0.62899400  1
  H  H16  1  0.41896300  0.83069800  0.37100600  1
  H  H17  1  0.39022800  0.93182800  0.49274600  1
  H  H18  1  0.60977200  0.93182800  0.50725400  1
  H  H19  1  0.39020800  0.06424200  0.49286900  1
  H  H20  1  0.60979100  0.06424200  0.50713100  1
  H  H21  1  0.58159900  0.16548600  0.62794900  1
  H  H22  1  0.41840100  0.16548500  0.37205200  1
  H  H23  1  0.58079100  0.29889400  0.62442200  1
  H  H24  1  0.41920900  0.29889400  0.37557800  1
  C  C1  1  0.36546800  0.49805400  0.50815400  1
  C  C2  1  0.63453200  0.49805400  0.49184600  1
  C  C3  1  0.49690600  0.49777900  0.26574900  1
  C  C4  1  0.50309300  0.49777900  0.73425100  1
  C  C5  1  0.49431800  0.43878800  0.93499700  1
  C  C6  1  0.50568200  0.43878800  0.06500300  1
  C  C7  1  0.50639000  0.49800500  0.86600500  1
  C  C8  1  0.49361000  0.49800500  0.13399500  1
  C  C9  1  0.74762500  0.44739400  0.42511100  1
  C  C10  1  0.25237500  0.44739400  0.57488900  1
  C  C11  1  0.81841400  0.44962900  0.42755600  1
  C  C12  1  0.18158600  0.44962900  0.57244500  1
  C  C13  1  0.85284600  0.50205900  0.49347700  1
  C  C14  1  0.14715400  0.50205900  0.50652300  1
  C  C15  1  0.81515500  0.55373900  0.55541800  1
  C  C16  1  0.18484500  0.55373900  0.44458200  1
  C  C17  1  0.74435200  0.55221300  0.55251700  1
  C  C18  1  0.25564800  0.55221300  0.44748300  1
  C  C19  1  0.70994000  0.49859600  0.48932600  1
  C  C20  1  0.29006000  0.49859600  0.51067500  1
  C  C21  1  0.96455900  0.56782600  0.49854500  1
  C  C22  1  0.03544000  0.56782600  0.50145500  1
  C  C23  1  0.07150600  0.50255300  0.50292900  1
  C  C24  1  0.92849400  0.50255300  0.49707100  1
  C  C25  1  0.03537700  0.43737000  0.50130700  1
  C  C26  1  0.96462300  0.43737000  0.49869300  1
  C  C27  1  0.54472400  0.72719300  0.56966300  1
  C  C28  1  0.45527600  0.72719300  0.43033700  1
  C  C29  1  0.54552500  0.80268800  0.57059100  1
  C  C30  1  0.45447500  0.80268800  0.42940900  1
  C  C31  1  0.50000000  0.84135800  0.50000000  1
  C  C32  1  0.43887200  0.96030100  0.49424000  1
  C  C33  1  0.56112800  0.96030100  0.50576000  1
  C  C34  1  0.43886800  0.03580200  0.49428500  1
  C  C35  1  0.56113200  0.03580100  0.50571500  1
  C  C36  1  0.50000000  0.07420600  0.50000000  1
  C  C37  1  0.50000000  0.92191200  0.50000000  1
  C  C38  1  0.54583500  0.19346400  0.56997900  1
  C  C39  1  0.45416500  0.19346500  0.43002100  1
  C  C40  1  0.54506000  0.26895900  0.56899600  1
  C  C41  1  0.45494000  0.26895900  0.43100500  1
  C  C42  1  0.50000000  0.15477800  0.50000000  1
  I  I1  1  0.46217500  0.33444900  0.87217800  1
  I  I2  1  0.53782500  0.33444900  0.12782200  1
  I  I3  1  0.70274500  0.36862900  0.31092900  1
  I  I4  1  0.29725500  0.36862900  0.68907200  1
  N  N1  1  0.50000000  0.69068600  0.50000000  1
  N  N2  1  0.50000000  0.30547000  0.50000000  1
  O  O1  1  0.39766300  0.56112700  0.50490700  1
  O  O2  1  0.60233700  0.56112700  0.49509300  1
  O  O3  1  0.39771800  0.43508600  0.50544300  1
  O  O4  1  0.60228200  0.43508600  0.49455800  1
  O  O5  1  0.49721500  0.56101900  0.32199000  1
  O  O6  1  0.50278500  0.56101900  0.67801100  1
  O  O7  1  0.49688700  0.43517000  0.32234800  1
  O  O8  1  0.50311300  0.43517000  0.67765200  1
