# generated using pymatgen
data_ZnH6C16NClO4
_symmetry_space_group_name_H-M   'P 1'
_cell_length_a   16.12771600
_cell_length_b   14.97671400
_cell_length_c   11.00246000
_cell_angle_alpha   90.00000000
_cell_angle_beta   89.99007000
_cell_angle_gamma   90.00000000
_symmetry_Int_Tables_number   1
_chemical_formula_structural   ZnH6C16NClO4
_chemical_formula_sum   'Zn2 H12 C32 N2 Cl2 O8'
_cell_volume   2657.53623901
_cell_formula_units_Z   2
loop_
 _symmetry_equiv_pos_site_id
 _symmetry_equiv_pos_as_xyz
  1  'x, y, z'
loop_
 _atom_site_type_symbol
 _atom_site_label
 _atom_site_symmetry_multiplicity
 _atom_site_fract_x
 _atom_site_fract_y
 _atom_site_fract_z
 _atom_site_occupancy
  Zn  Zn1  1  0.49998300  0.59974800  0.50001300  1
  Zn  Zn2  1  0.49998700  0.39716000  0.49999400  1
  H  H1  1  0.49576500  0.35897500  0.10954700  1
  H  H2  1  0.50400800  0.35896100  0.89046500  1
  H  H3  1  0.42427500  0.66614200  0.19139800  1
  H  H4  1  0.57598600  0.66595800  0.80855300  1
  H  H5  1  0.45957900  0.80449200  0.09435300  1
  H  H6  1  0.54092900  0.80439900  0.90557300  1
  H  H7  1  0.07618000  0.64064400  0.50470000  1
  H  H8  1  0.92379600  0.64064700  0.49531100  1
  H  H9  1  0.92379000  0.35614000  0.49530700  1
  H  H10  1  0.07617500  0.35613700  0.50469700  1
  H  H11  1  0.40863600  0.91630300  0.36017000  1
  H  H12  1  0.59133300  0.91631200  0.63984800  1
  C  C1  1  0.33802800  0.49844100  0.51114500  1
  C  C2  1  0.66194200  0.49844700  0.48886300  1
  C  C3  1  0.49047400  0.49912600  0.26123200  1
  C  C4  1  0.50950200  0.49910500  0.73877200  1
  C  C5  1  0.46128200  0.66260300  0.11006200  1
  C  C6  1  0.53898400  0.66251100  0.88990400  1
  C  C7  1  0.47815900  0.74212600  0.05306100  1
  C  C8  1  0.52224600  0.74207500  0.94688400  1
  C  C9  1  0.51285400  0.58166500  0.93976200  1
  C  C10  1  0.48727400  0.58169600  0.06022700  1
  C  C11  1  0.48768900  0.50144600  0.12609400  1
  C  C12  1  0.51230600  0.50141500  0.87390600  1
  C  C13  1  0.49645200  0.42230700  0.06254200  1
  C  C14  1  0.50342600  0.42229600  0.93746600  1
  C  C15  1  0.95727600  0.57813300  0.49724600  1
  C  C16  1  0.04269800  0.57813100  0.50276400  1
  C  C17  1  0.91456200  0.49839400  0.49437300  1
  C  C18  1  0.08540800  0.49839000  0.50563500  1
  C  C19  1  0.95727200  0.41865300  0.49724400  1
  C  C20  1  0.04269500  0.41865100  0.50276200  1
  C  C21  1  0.82562600  0.49840000  0.49028100  1
  C  C22  1  0.17434500  0.49839200  0.50972700  1
  C  C23  1  0.24905200  0.49840600  0.51159400  1
  C  C24  1  0.75091900  0.49841500  0.48841400  1
  C  C25  1  0.44877800  0.95239400  0.42162000  1
  C  C26  1  0.55119200  0.95239900  0.57839100  1
  C  C27  1  0.49998400  0.90635800  0.50001000  1
  C  C28  1  0.55120300  0.04447500  0.57838800  1
  C  C29  1  0.44877100  0.04447000  0.42160600  1
  C  C30  1  0.49998800  0.09053000  0.49999300  1
  C  C31  1  0.49998300  0.81054200  0.50001800  1
  C  C32  1  0.49998800  0.18636000  0.49998600  1
  N  N1  1  0.49998800  0.26362000  0.49998300  1
  N  N2  1  0.49998200  0.73328900  0.50002200  1
  Cl  Cl1  1  0.38370800  0.10284700  0.32202700  1
  Cl  Cl2  1  0.61626800  0.10285900  0.67795700  1
  O  O1  1  0.37653600  0.57537700  0.50754400  1
  O  O2  1  0.62343200  0.57538100  0.49247900  1
  O  O3  1  0.37660800  0.42150600  0.50982100  1
  O  O4  1  0.62336500  0.42150900  0.49017000  1
  O  O5  1  0.49489900  0.57499900  0.31952700  1
  O  O6  1  0.50506700  0.57498600  0.68049600  1
  O  O7  1  0.49308300  0.42182700  0.31878900  1
  O  O8  1  0.50689100  0.42181100  0.68120200  1
