# Generated by REPEAT Assigner based on pymatgen
data_DB0-m2_o6_o11_f0_pcu.sym.16
_audit_creation_date              2022-05-24
_audit_creation_method            REPEAT_Assigner
_cell_length_a                    16.040398
_cell_length_b                    14.627928
_cell_length_c                    11.046488
_cell_angle_alpha                 90.000000
_cell_angle_beta                  89.990924
_cell_angle_gamma                 90.000000
_cell_volume                      2591.923455
_symmetry_space_group_name_H-M    P1
_symmetry_Int_Tables_number       1
loop_
    _symmetry_equiv_pos_site_id
    _symmetry_equiv_pos_as_xyz
    1  x,y,z
loop_
    _atom_site_type_symbol
    _atom_site_label
    _atom_site_fract_x
    _atom_site_fract_y
    _atom_site_fract_z
    _atom_type_partial_charge
    O   O1   0.378975  0.570578  0.497085  -0.615062
    O   O2   0.621284  0.571108  0.496898  -0.603019
    O   O3   0.378831  0.413305  0.497026  -0.620820
    O   O4   0.621133  0.413841  0.497060  -0.636569
    C   C1   0.340069  0.491967  0.500364  0.855022
    C   C2   0.660039  0.492426  0.500278  0.859279
    O   O5   0.502980  0.570861  0.325024  -0.583989
    O   O6   0.503085  0.570761  0.676662  -0.599602
    O   O7   0.497068  0.413476  0.324801  -0.581486
    O   O8   0.497087  0.413719  0.677018  -0.600964
    C   C3   0.500030  0.492343  0.268345  0.710911
    C   C4   0.500122  0.492439  0.733482  0.672285
    Cu  Cu1  0.500111  0.583725  0.500856  0.901860
    Cu  Cu2  0.500004  0.400745  0.500929  0.984727
    C   C5   0.497314  0.419398  0.933757  -0.032970
    C   C6   0.497328  0.419329  0.068005  -0.019259
    C   C7   0.500254  0.495329  0.866065  -0.258135
    C   C8   0.500098  0.495218  0.135758  -0.291082
    H   H1   0.494784  0.353438  0.889314  0.116858
    H   H2   0.494913  0.353318  0.112359  0.107703
    H   H3   0.502903  0.562636  0.905698  0.163033
    H   H4   0.502544  0.562537  0.096126  0.160894
    H   H5   0.076729  0.637531  0.497235  0.142442
    H   H6   0.923379  0.637530  0.497179  0.141739
    C   C9   0.957076  0.573536  0.496903  -0.179938
    C   C10  0.043042  0.573530  0.496937  -0.180742
    C   C11  0.914073  0.491918  0.496922  0.250692
    C   C12  0.086022  0.491891  0.496954  0.251266
    C   C13  0.957038  0.410249  0.496851  -0.177555
    C   C14  0.043021  0.410238  0.496877  -0.178056
    H   H7   0.923346  0.346243  0.497088  0.141161
    H   H8   0.076702  0.346222  0.497125  0.140460
    C   C15  0.824613  0.492051  0.497741  -0.079038
    C   C16  0.175485  0.491943  0.497807  -0.079282
    C   C17  0.250610  0.492002  0.498823  -0.267231
    C   C18  0.749492  0.492256  0.498737  -0.268294
    H   H9   0.608081  0.077819  0.612076  0.163290
    H   H10  0.392413  0.077995  0.390132  0.166209
    C   C19  0.561090  0.945465  0.564424  -0.043283
    C   C20  0.439130  0.945564  0.437900  -0.049612
    C   C21  0.500076  0.897937  0.501141  0.074634
    C   C22  0.439418  0.039984  0.438952  -0.217778
    C   C23  0.560977  0.039900  0.563311  -0.216038
    C   C24  0.500230  0.086866  0.501097  0.206584
    C   C25  0.500046  0.799569  0.500956  0.149852
    C   C26  0.500195  0.184942  0.501066  0.100503
    N   N1   0.500100  0.264026  0.500969  -0.194854
    N   N2   0.500034  0.720453  0.500796  -0.145814
    C   C27  0.627883  0.896615  0.633405  0.156326
    C   C28  0.595133  0.864864  0.755297  -0.113204
    H   H11  0.569734  0.924249  0.805640  0.030893
    H   H12  0.545471  0.813006  0.743394  0.023423
    H   H13  0.646982  0.834323  0.807972  0.039406
    H   H14  0.652623  0.837920  0.581001  -0.003851
    H   H15  0.680462  0.944175  0.650012  -0.004777
    C   C29  0.372239  0.896854  0.368953  0.162421
    C   C30  0.404973  0.864826  0.247183  -0.105724
    H   H16  0.430607  0.924021  0.196687  0.028926
    H   H17  0.454483  0.812819  0.259266  0.020563
    H   H18  0.353072  0.834346  0.194556  0.037159
    H   H19  0.347284  0.838300  0.421431  -0.005386
    H   H20  0.319801  0.944581  0.352212  -0.007106
