# generated using pymatgen
data_ZnH8(C9O2)2
_symmetry_space_group_name_H-M   'P 1'
_cell_length_a   30.16150200
_cell_length_b   30.16661300
_cell_length_c   24.01429100
_cell_angle_alpha   113.43296500
_cell_angle_beta   124.55397400
_cell_angle_gamma   103.33280700
_symmetry_Int_Tables_number   1
_chemical_formula_structural   ZnH8(C9O2)2
_chemical_formula_sum   'Zn6 H48 C108 O24'
_cell_volume   13163.53236967
_cell_formula_units_Z   6
loop_
 _symmetry_equiv_pos_site_id
 _symmetry_equiv_pos_as_xyz
  1  'x, y, z'
loop_
 _atom_site_type_symbol
 _atom_site_label
 _atom_site_symmetry_multiplicity
 _atom_site_fract_x
 _atom_site_fract_y
 _atom_site_fract_z
 _atom_site_occupancy
  Zn  Zn1  1  0.94335300  0.45623600  0.39960900  1
  Zn  Zn2  1  0.05603100  0.54313300  0.59974100  1
  Zn  Zn3  1  0.94180200  0.97922400  0.48565000  1
  Zn  Zn4  1  0.05764100  0.02016200  0.51371300  1
  Zn  Zn5  1  0.50612700  0.54343600  0.48539100  1
  Zn  Zn6  1  0.49325800  0.45590600  0.51396800  1
  H  H1  1  0.09591900  0.19328300  0.59435700  1
  H  H2  1  0.88080700  0.07630900  0.38561800  1
  H  H3  1  0.81964000  0.11170800  0.32387600  1
  H  H4  1  0.81931700  0.19232400  0.32245700  1
  H  H5  1  0.87993300  0.29456300  0.38243900  1
  H  H6  1  0.09450200  0.41496500  0.60796000  1
  H  H7  1  0.15509400  0.37888200  0.66554400  1
  H  H8  1  0.15567000  0.29631000  0.65985300  1
  H  H9  1  0.11949800  0.70483200  0.61698300  1
  H  H10  1  0.90493400  0.58442700  0.39140400  1
  H  H11  1  0.84435300  0.62050800  0.33378700  1
  H  H12  1  0.84379000  0.70307900  0.33946600  1
  H  H13  1  0.90355200  0.80611000  0.40497500  1
  H  H14  1  0.11866400  0.92308600  0.61377600  1
  H  H15  1  0.17981900  0.88768700  0.67554000  1
  H  H16  1  0.18012600  0.80707100  0.67696900  1
  H  H17  1  0.91142300  0.49659400  0.61665400  1
  H  H18  1  0.80626900  0.48535400  0.39054300  1
  H  H19  1  0.71246700  0.48811600  0.33262200  1
  H  H20  1  0.63554100  0.49436200  0.33826700  1
  H  H21  1  0.59808900  0.50031000  0.40403200  1
  H  H22  1  0.68996400  0.49430200  0.61346400  1
  H  H23  1  0.78705600  0.49484500  0.67527800  1
  H  H24  1  0.86910200  0.49593300  0.67669800  1
  H  H25  1  0.19311600  0.51398100  0.60882900  1
  H  H26  1  0.08800000  0.50279100  0.38276400  1
  H  H27  1  0.13032400  0.50345000  0.32272400  1
  H  H28  1  0.21236400  0.50452600  0.32413900  1
  H  H29  1  0.30944300  0.50504700  0.38593700  1
  H  H30  1  0.40127900  0.49899400  0.59532400  1
  H  H31  1  0.36381900  0.50493500  0.66107600  1
  H  H32  1  0.28689900  0.51119100  0.66666667  1
  H  H33  1  0.19616700  0.19006200  0.78360600  1
  H  H34  1  0.07692200  0.07840000  0.78036000  1
  H  H35  1  0.11424800  0.11510600  0.91880900  1
  H  H36  1  0.19612500  0.19570700  0.08130900  1
  H  H37  1  0.29780300  0.29660400  0.21950200  1
  H  H38  1  0.40600100  0.41191400  0.21532200  1
  H  H39  1  0.37171100  0.37408600  0.07952200  1
  H  H40  1  0.29404700  0.29137400  0.91913700  1
  H  H41  1  0.70158900  0.70269700  0.77982900  1
  H  H42  1  0.59343000  0.58743100  0.78409000  1
  H  H43  1  0.62774900  0.62528800  0.91991500  1
  H  H44  1  0.70543400  0.70801900  0.08030100  1
  H  H45  1  0.80332000  0.80933500  0.21580700  1
  H  H46  1  0.92252700  0.92095300  0.21897200  1
  H  H47  1  0.88517300  0.88421700  0.08049800  1
  H  H48  1  0.80327600  0.80359700  0.91799900  1
  C  C1  1  0.01055300  0.59041500  0.50279700  1
  C  C2  1  0.08760100  0.50792200  0.49700300  1
  C  C3  1  0.91181300  0.49145500  0.50240600  1
  C  C4  1  0.98887300  0.40898100  0.49660900  1
  C  C5  1  0.00912400  0.91759100  0.50980100  1
  C  C6  1  0.08466700  0.08136600  0.67541500  1
  C  C7  1  0.91481000  0.91802300  0.32395700  1
  C  C8  1  0.99035700  0.08180600  0.48956500  1
  C  C9  1  0.59378100  0.59039200  0.67538900  1
  C  C10  1  0.59160100  0.49993100  0.50935900  1
  C  C11  1  0.40778500  0.49939100  0.49001800  1
  C  C12  1  0.40561600  0.40892100  0.32398200  1
  C  C13  1  0.04839700  0.18538900  0.54841300  1
  C  C14  1  0.98846400  0.12974300  0.48967600  1
  C  C15  1  0.92782800  0.12011900  0.43231000  1
  C  C16  1  0.92738100  0.16576700  0.43210400  1
  C  C17  1  0.98749500  0.22179200  0.49238000  1
  C  C18  1  0.04797600  0.23178500  0.55133200  1
  C  C19  1  0.86699500  0.15552800  0.37160100  1
  C  C20  1  0.86681300  0.20096500  0.37079000  1
  C  C21  1  0.92696200  0.25728300  0.43201100  1
  C  C22  1  0.98723600  0.26783800  0.49364900  1
  C  C23  1  0.04737200  0.32441400  0.55638500  1
  C  C24  1  0.10779200  0.33466600  0.61647200  1
  C  C25  1  0.10811900  0.28817500  0.61323200  1
  C  C26  1  0.92702400  0.30296000  0.43151700  1
  C  C27  1  0.98723400  0.35992600  0.49564100  1
  C  C28  1  0.04720600  0.37071500  0.55873300  1
  C  C29  1  0.07241100  0.69643500  0.56788900  1
  C  C30  1  0.01219800  0.63946900  0.50375500  1
  C  C31  1  0.95223200  0.62867800  0.44064100  1
  C  C32  1  0.95207400  0.67497800  0.44297900  1
  C  C33  1  0.01221300  0.73155400  0.50572800  1
  C  C34  1  0.07248100  0.74211000  0.56738600  1
  C  C35  1  0.89165900  0.66472400  0.38287000  1
  C  C36  1  0.89133800  0.71121500  0.38610300  1
  C  C37  1  0.95148400  0.76760600  0.44801800  1
  C  C38  1  0.01196100  0.77760000  0.50699000  1
  C  C39  1  0.07207900  0.83362600  0.56728100  1
  C  C40  1  0.13246100  0.84386600  0.62780400  1
  C  C41  1  0.13263400  0.79842900  0.62862100  1
  C  C42  1  0.95107000  0.81400400  0.45093300  1
  C  C43  1  0.01100800  0.86965100  0.50968700  1
  C  C44  1  0.07164000  0.87927500  0.56707200  1
  C  C45  1  0.87069500  0.49448700  0.56739200  1
  C  C46  1  0.86357700  0.49056000  0.50316900  1
  C  C47  1  0.81122100  0.48729400  0.43985100  1
  C  C48  1  0.76719700  0.48972100  0.44210600  1
  C  C49  1  0.77335300  0.49238700  0.50499000  1
  C  C50  1  0.82447000  0.49386000  0.56682600  1
  C  C51  1  0.71732100  0.48994100  0.38181400  1
  C  C52  1  0.67404500  0.49349600  0.38502700  1
  C  C53  1  0.67958100  0.49535900  0.44711500  1
  C  C54  1  0.72856200  0.49391100  0.50624500  1
  C  C55  1  0.73284700  0.49418900  0.56672200  1
  C  C56  1  0.78312900  0.49438600  0.62739800  1
  C  C57  1  0.82938200  0.49501000  0.62821000  1
  C  C58  1  0.63613600  0.49876300  0.45008200  1
  C  C59  1  0.63929500  0.49772600  0.50906500  1
  C  C60  1  0.68703300  0.49450300  0.56657900  1
  C  C61  1  0.18817000  0.51204700  0.55952900  1
  C  C62  1  0.13582800  0.50880200  0.49622800  1
  C  C63  1  0.12871700  0.50488200  0.43201400  1
  C  C64  1  0.17493700  0.50550000  0.43257400  1
  C  C65  1  0.22604200  0.50695600  0.49439400  1
  C  C66  1  0.23218900  0.50961200  0.55726800  1
  C  C67  1  0.17003500  0.50435900  0.37120000  1
  C  C68  1  0.21628500  0.50497600  0.37200900  1
  C  C69  1  0.26655500  0.50515700  0.43267100  1
  C  C70  1  0.27083000  0.50542500  0.49313600  1
  C  C71  1  0.31979800  0.50396100  0.55225200  1
  C  C72  1  0.32532500  0.50581300  0.61432800  1
  C  C73  1  0.28205200  0.50937400  0.61754500  1
  C  C74  1  0.31236700  0.50483800  0.43281200  1
  C  C75  1  0.36009300  0.50160000  0.49031300  1
  C  C76  1  0.36324200  0.50055200  0.54928300  1
  C  C77  1  0.18777200  0.18314700  0.81855400  1
  C  C78  1  0.13171700  0.12907100  0.77194000  1
  C  C79  1  0.12049200  0.12094300  0.81658400  1
  C  C80  1  0.16633800  0.16649700  0.90823300  1
  C  C81  1  0.22151600  0.22099700  0.95416700  1
  C  C82  1  0.23176100  0.22949500  0.90904100  1
  C  C83  1  0.15719600  0.15773100  0.95415500  1
  C  C84  1  0.20335700  0.20315900  0.04575700  1
  C  C85  1  0.25797800  0.25801900  0.09141800  1
  C  C86  1  0.26648400  0.26707500  0.04522200  1
  C  C87  1  0.32004300  0.32224500  0.09008700  1
  C  C88  1  0.32964100  0.33098000  0.04457200  1
  C  C89  1  0.28594000  0.28440800  0.95429300  1
  C  C90  1  0.30407100  0.30380500  0.18307000  1
  C  C91  1  0.35678700  0.35947300  0.22745600  1
  C  C92  1  0.36418500  0.36873100  0.18057700  1
  C  C93  1  0.69533500  0.69551000  0.81627900  1
  C  C94  1  0.64262300  0.63984900  0.77191600  1
  C  C95  1  0.63524300  0.63060900  0.81881800  1
  C  C96  1  0.67939700  0.67710500  0.90930900  1
  C  C97  1  0.73295200  0.73226800  0.95415100  1
  C  C98  1  0.74144000  0.74130600  0.90793200  1
  C  C99  1  0.66981600  0.66838800  0.95484700  1
  C  C100  1  0.71352900  0.71497000  0.04512600  1
  C  C101  1  0.76770200  0.76987700  0.09035500  1
  C  C102  1  0.77793100  0.77835700  0.04520600  1
  C  C103  1  0.83310400  0.83285000  0.09111700  1
  C  C104  1  0.84223000  0.84159800  0.04517100  1
  C  C105  1  0.79605700  0.79615900  0.95357000  1
  C  C106  1  0.81170200  0.81623600  0.18084100  1
  C  C107  1  0.86775100  0.87030500  0.22743300  1
  C  C108  1  0.87896100  0.87841500  0.18276600  1
  O  O1  1  0.96389700  0.53452300  0.42569800  1
  O  O2  1  0.10853700  0.53804400  0.57400600  1
  O  O3  1  0.02321400  0.47379400  0.42109700  1
  O  O4  1  0.05215300  0.60170100  0.57861500  1
  O  O5  1  0.97620000  0.52559100  0.57831500  1
  O  O6  1  0.94727000  0.39769900  0.42079400  1
  O  O7  1  0.03553200  0.46487100  0.57371500  1
  O  O8  1  0.89088600  0.46133800  0.42540900  1
  O  O9  1  0.96159400  0.92149300  0.49449200  1
  O  O10  1  0.10755900  0.07741900  0.64213000  1
  O  O11  1  0.01977100  0.04485800  0.62202200  1
  O  O12  1  0.05230700  0.95432300  0.52039000  1
  O  O13  1  0.97970400  0.95452800  0.37734000  1
  O  O14  1  0.94718000  0.04507200  0.47898300  1
  O  O15  1  0.03789100  0.07791100  0.50487600  1
  O  O16  1  0.89192700  0.92198100  0.35725500  1
  O  O17  1  0.57687800  0.60180800  0.62179800  1
  O  O18  1  0.56554000  0.46754200  0.52025400  1
  O  O19  1  0.57246700  0.53217300  0.49396700  1
  O  O20  1  0.56444100  0.53433100  0.64231100  1
  O  O21  1  0.42691700  0.46714800  0.50541200  1
  O  O22  1  0.43495400  0.46498600  0.35707100  1
  O  O23  1  0.42250800  0.39749500  0.37755900  1
  O  O24  1  0.43384700  0.53177500  0.47911800  1
