# generated using pymatgen
data_Zn2H12C28N2O9
_symmetry_space_group_name_H-M   'P 1'
_cell_length_a   8.56488200
_cell_length_b   12.85359800
_cell_length_c   12.38076000
_cell_angle_alpha   96.18196700
_cell_angle_beta   90.09435200
_cell_angle_gamma   95.41187200
_symmetry_Int_Tables_number   1
_chemical_formula_structural   Zn2H12C28N2O9
_chemical_formula_sum   'Zn2 H12 C28 N2 O9'
_cell_volume   1348.93015685
_cell_formula_units_Z   1
loop_
 _symmetry_equiv_pos_site_id
 _symmetry_equiv_pos_as_xyz
  1  'x, y, z'
loop_
 _atom_site_type_symbol
 _atom_site_label
 _atom_site_symmetry_multiplicity
 _atom_site_fract_x
 _atom_site_fract_y
 _atom_site_fract_z
 _atom_site_occupancy
  Zn  Zn1  1  0.55968400  0.51909100  0.88944600  1
  Zn  Zn2  1  0.56046700  0.49441900  0.12606400  1
  H  H1  1  0.60608800  0.98165400  0.98628300  1
  H  H2  1  0.07250600  0.58072800  0.07640500  1
  H  H3  1  0.36084600  0.85516700  0.01745400  1
  H  H4  1  0.24797900  0.00835000  0.99552100  1
  H  H5  1  0.71972500  0.83022800  0.01782800  1
  H  H6  1  0.25819700  0.16780400  0.01196600  1
  H  H7  1  0.04200800  0.43211500  0.94150000  1
  H  H8  1  0.55256900  0.62559200  0.51359000  1
  H  H9  1  0.56785500  0.38792100  0.50190700  1
  H  H10  1  0.58529300  0.12141800  0.78742800  1
  H  H11  1  0.49581800  0.24227800  0.82125800  1
  H  H12  1  0.39362200  0.11796500  0.84822200  1
  C  C1  1  0.01037100  0.13828900  0.98437000  1
  C  C2  1  0.87500600  0.18843000  0.97252700  1
  C  C3  1  0.73080000  0.12967600  0.97198500  1
  C  C4  1  0.72051200  0.02494600  0.98595300  1
  C  C5  1  0.85283700  0.97526200  0.99911400  1
  C  C6  1  0.99923500  0.03020900  0.99656600  1
  C  C7  1  0.83620900  0.86995800  0.01446500  1
  C  C8  1  0.96629100  0.81723900  0.02861600  1
  C  C9  1  0.11341400  0.86970500  0.02224300  1
  C  C10  1  0.13000200  0.97436100  0.00436700  1
  C  C11  1  0.95138100  0.71270000  0.04846300  1
  C  C12  1  0.08404500  0.66321100  0.06501300  1
  C  C13  1  0.23098400  0.71365100  0.05234000  1
  C  C14  1  0.24556000  0.81667400  0.02982300  1
  C  C15  1  0.15396500  0.19855100  0.98910300  1
  C  C16  1  0.16655700  0.30179400  0.96760000  1
  C  C17  1  0.03294800  0.34913100  0.95048000  1
  C  C18  1  0.88713900  0.29603300  0.96041600  1
  C  C19  1  0.80126500  0.64764700  0.03645200  1
  C  C20  1  0.75556700  0.36200200  0.97453800  1
  C  C21  1  0.31744500  0.36666700  0.97938700  1
  C  C22  1  0.36427300  0.65050900  0.04040800  1
  C  C23  1  0.56288300  0.46405900  0.47263900  1
  C  C24  1  0.55755200  0.54945900  0.54286800  1
  C  C25  1  0.55833800  0.54076700  0.65768000  1
  C  C26  1  0.56205300  0.47274700  0.35782600  1
  C  C27  1  0.58512700  0.17503100  0.95637300  1
  C  C28  1  0.50986500  0.16359800  0.84658800  1
  N  N1  1  0.56138700  0.48015300  0.26552500  1
  N  N2  1  0.55894900  0.53335700  0.74998100  1
  O  O1  1  0.74595700  0.60249000  0.12041300  1
  O  O2  1  0.74041300  0.62581000  0.93833600  1
  O  O3  1  0.71119200  0.40835500  0.89168800  1
  O  O4  1  0.70579800  0.38551700  0.07373600  1
  O  O5  1  0.37309400  0.41182000  0.89530200  1
  O  O6  1  0.37976700  0.38765500  0.07715800  1
  O  O7  1  0.40826200  0.60467000  0.12377700  1
  O  O8  1  0.41559500  0.62862300  0.94163600  1
  O  O9  1  0.52186100  0.21735000  0.03482000  1
