# generated using pymatgen
data_CuH10C21NO4
_symmetry_space_group_name_H-M   'P 1'
_cell_length_a   13.22052900
_cell_length_b   17.49606700
_cell_length_c   8.47970800
_cell_angle_alpha   90.00000000
_cell_angle_beta   93.44282300
_cell_angle_gamma   90.00000000
_symmetry_Int_Tables_number   1
_chemical_formula_structural   CuH10C21NO4
_chemical_formula_sum   'Cu2 H20 C42 N2 O8'
_cell_volume   1957.87811153
_cell_formula_units_Z   2
loop_
 _symmetry_equiv_pos_site_id
 _symmetry_equiv_pos_as_xyz
  1  'x, y, z'
loop_
 _atom_site_type_symbol
 _atom_site_label
 _atom_site_symmetry_multiplicity
 _atom_site_fract_x
 _atom_site_fract_y
 _atom_site_fract_z
 _atom_site_occupancy
  Cu  Cu1  1  0.99335200  0.92493700  0.99870500  1
  Cu  Cu2  1  0.00664800  0.07506300  0.00129500  1
  H  H1  1  0.25639100  0.31222200  0.01810900  1
  H  H2  1  0.74360900  0.68777800  0.98189200  1
  H  H3  1  0.75594700  0.30366800  0.98582100  1
  H  H4  1  0.24405300  0.69633200  0.01418000  1
  H  H5  1  0.25360800  0.56202400  0.01529100  1
  H  H6  1  0.74639200  0.43797600  0.98470900  1
  H  H7  1  0.74263000  0.55317400  0.98251800  1
  H  H8  1  0.25737000  0.44682600  0.01748200  1
  H  H9  1  0.85052700  0.18859600  0.99183700  1
  H  H10  1  0.14947300  0.81140400  0.00816300  1
  H  H11  1  0.16839100  0.19284900  0.01250700  1
  H  H12  1  0.83160900  0.80715100  0.98749400  1
  H  H13  1  0.34541500  0.00973400  0.28024300  1
  H  H14  1  0.65458500  0.99026600  0.71975800  1
  H  H15  1  0.50119800  0.03489800  0.66552700  1
  H  H16  1  0.49880200  0.96510200  0.33447300  1
  H  H17  1  0.34167200  0.01133000  0.78517000  1
  H  H18  1  0.65832800  0.98867000  0.21483100  1
  H  H19  1  0.07189500  0.96946200  0.50247300  1
  H  H20  1  0.92810600  0.03053800  0.49752800  1
  C  C1  1  0.13796700  0.99441600  0.79417300  1
  C  C2  1  0.86203300  0.00558400  0.20582700  1
  C  C3  1  0.85865000  0.00656000  0.77310900  1
  C  C4  1  0.14135000  0.99344000  0.22689100  1
  C  C5  1  0.09704600  0.22318600  0.00789100  1
  C  C6  1  0.90295400  0.77681400  0.99211000  1
  C  C7  1  0.92038900  0.22078900  0.99641400  1
  C  C8  1  0.07961100  0.77921100  0.00358600  1
  C  C9  1  0.00517200  0.34121800  0.00145400  1
  C  C10  1  0.99482800  0.65878200  0.99854700  1
  C  C11  1  0.09566600  0.30225000  0.00753500  1
  C  C12  1  0.90433400  0.69775000  0.99246500  1
  C  C13  1  0.91714800  0.29951400  0.99598400  1
  C  C14  1  0.08285200  0.70048600  0.00401700  1
  C  C15  1  0.18479200  0.34221800  0.01319600  1
  C  C16  1  0.81520800  0.65778200  0.98680400  1
  C  C17  1  0.82557700  0.33618900  0.99002800  1
  C  C18  1  0.17442300  0.66381100  0.00997200  1
  C  C19  1  0.09029900  0.54159900  0.00545100  1
  C  C20  1  0.90970100  0.45840100  0.99455000  1
  C  C21  1  0.90707200  0.53845900  0.99370400  1
  C  C22  1  0.09292800  0.46154100  0.00629600  1
  C  C23  1  0.99740400  0.57928600  0.99923200  1
  C  C24  1  0.00259600  0.42071400  0.00076800  1
  C  C25  1  0.17861600  0.58544100  0.01062200  1
  C  C26  1  0.82138400  0.41455900  0.98937900  1
  C  C27  1  0.81607200  0.57924600  0.98734400  1
  C  C28  1  0.18392800  0.42075400  0.01265600  1
  C  C29  1  0.20015000  0.99174500  0.65752100  1
  C  C30  1  0.79985000  0.00825500  0.34248000  1
  C  C31  1  0.30331000  0.00433200  0.66987900  1
  C  C32  1  0.69669000  0.99566800  0.33012200  1
  C  C33  1  0.35800800  0.00502100  0.53536300  1
  C  C34  1  0.64199200  0.99497900  0.46463700  1
  C  C35  1  0.30641500  0.00194000  0.38729300  1
  C  C36  1  0.69358500  0.99806000  0.61270700  1
  C  C37  1  0.20265900  0.99025000  0.37647500  1
  C  C38  1  0.79734100  0.00975000  0.62352500  1
  C  C39  1  0.15200500  0.98057400  0.51158700  1
  C  C40  1  0.84799500  0.01942600  0.48841300  1
  C  C41  1  0.46935200  0.01180400  0.55513500  1
  C  C42  1  0.53064800  0.98819600  0.44486500  1
  N  N1  1  0.00963600  0.18364600  0.00226600  1
  N  N2  1  0.99036400  0.81635400  0.99773500  1
  O  O1  1  0.09484300  0.93150800  0.84055100  1
  O  O2  1  0.90515700  0.06849200  0.15945000  1
  O  O3  1  0.88971700  0.93902500  0.15155400  1
  O  O4  1  0.11028300  0.06097500  0.84844700  1
  O  O5  1  0.88760700  0.93938600  0.82926600  1
  O  O6  1  0.11239300  0.06061400  0.17073500  1
  O  O7  1  0.09788100  0.93040100  0.17237300  1
  O  O8  1  0.90211900  0.06959900  0.82762700  1
