# Generated by REPEAT Assigner based on pymatgen
data_DB0-m3_o158_o151_f0_fsc.sym.20_sqe
_audit_creation_date              2022-05-24
_audit_creation_method            REPEAT_Assigner
_cell_length_a                    13.417415
_cell_length_b                    8.547770
_cell_length_c                    19.380727
_cell_angle_alpha                 90.000000
_cell_angle_beta                  91.038202
_cell_angle_gamma                 90.000000
_cell_volume                      2222.390732
_symmetry_space_group_name_H-M    P1
_symmetry_Int_Tables_number       1
loop_
    _symmetry_equiv_pos_site_id
    _symmetry_equiv_pos_as_xyz
    1  x,y,z
loop_
    _atom_site_type_symbol
    _atom_site_label
    _atom_site_fract_x
    _atom_site_fract_y
    _atom_site_fract_z
    _atom_type_partial_charge
    H   H1   0.961155  0.000452  0.545484  0.107509
    H   H2   0.043581  0.001110  0.452755  0.109068
    C   C1   0.988088  0.139466  0.634163  -0.089529
    C   C2   0.020543  0.861817  0.363704  -0.105696
    C   C3   0.022478  0.140403  0.363555  -0.096407
    C   C4   0.984701  0.860993  0.634425  -0.078548
    C   C5   0.003295  0.140046  0.704733  -0.183128
    C   C6   0.011552  0.860497  0.292700  -0.135654
    C   C7   0.012273  0.141237  0.292680  -0.099991
    C   C8   0.993255  0.859871  0.705398  -0.128181
    H   H3   0.017418  0.250461  0.730034  0.116067
    H   H4   0.009123  0.748764  0.266931  0.090280
    H   H5   0.003896  0.252427  0.266892  0.066577
    H   H6   0.992793  0.748226  0.731229  0.067146
    C   C9   0.000481  0.000317  0.741577  0.081281
    C   C10  0.010549  0.000926  0.256231  0.047551
    C   C11  0.974414  0.000389  0.600228  -0.093840
    C   C12  0.031976  0.001077  0.397858  -0.086000
    C   C13  0.969958  0.875446  0.071943  -0.161484
    C   C14  0.976280  0.133024  0.925211  -0.166760
    C   C15  0.037458  0.871663  0.925853  -0.170427
    C   C16  0.043279  0.129059  0.072780  -0.168434
    H   H7   0.939189  0.776803  0.043919  0.111306
    H   H8   0.950270  0.234919  0.952569  0.109019
    H   H9   0.063593  0.769740  0.953790  0.106514
    H   H10  0.074109  0.227627  0.045511  0.108246
    C   C17  0.968247  0.876401  0.143095  -0.148310
    C   C18  0.973373  0.131770  0.854066  -0.110175
    C   C19  0.038772  0.872247  0.854705  -0.123807
    C   C20  0.045661  0.127681  0.143913  -0.121245
    H   H11  0.934132  0.778582  0.168659  0.114381
    H   H12  0.942667  0.232645  0.827892  0.099139
    H   H13  0.067937  0.770460  0.829212  0.111439
    H   H14  0.080765  0.224847  0.170233  0.109693
    C   C21  0.007294  0.001892  0.179992  0.064343
    C   C22  0.005349  0.001718  0.817847  0.044857
    C   C23  0.006699  0.002204  0.036630  0.091195
    C   C24  0.006884  0.002286  0.961267  0.085928
    O   O1   0.081419  0.670487  0.575924  -0.686641
    O   O2   0.926328  0.330931  0.421958  -0.679520
    O   O3   0.925438  0.669691  0.422487  -0.673959
    O   O4   0.082534  0.331629  0.575319  -0.649367
    O   O5   0.909947  0.663021  0.564836  -0.756057
    O   O6   0.097917  0.338287  0.433046  -0.755247
    O   O7   0.097129  0.665553  0.433167  -0.762630
    O   O8   0.910863  0.335669  0.564655  -0.768606
    C   C25  0.992068  0.718693  0.592988  0.875844
    C   C26  0.015563  0.282691  0.404938  0.868616
    C   C27  0.014319  0.719672  0.405276  0.886368
    C   C28  0.993831  0.281473  0.592479  0.872143
    Zn  Zn1  0.892926  0.499480  0.490579  1.035543
    Zn  Zn2  0.114968  0.501919  0.507294  1.035820
    C   C29  0.288335  0.498981  0.452553  -0.211791
    C   C30  0.719754  0.504116  0.545403  -0.249601
    N   N1   0.245684  0.502627  0.515019  0.195663
    N   N2   0.762219  0.498861  0.482914  0.224229
    C   C31  0.303826  0.522897  0.572511  -0.372022
    C   C32  0.703969  0.477128  0.425630  -0.424040
    C   C33  0.407902  0.515225  0.567943  0.382008
    C   C34  0.599927  0.485561  0.430263  0.335517
    C   C35  0.450136  0.502517  0.503493  -0.003536
    C   C36  0.557885  0.500153  0.494727  0.016136
    C   C37  0.389928  0.506078  0.446137  0.114199
    C   C38  0.618192  0.498147  0.552030  0.158112
    C   C39  0.475139  0.533628  0.630556  -0.830537
    C   C40  0.531920  0.463941  0.368236  -0.834405
    C   C41  0.575370  0.456891  0.619558  -0.014075
    C   C42  0.433521  0.546126  0.378690  0.010878
    H   H15  0.565433  0.328167  0.620828  0.107811
    H   H16  0.446935  0.674107  0.377589  0.084026
    H   H17  0.380858  0.516312  0.335966  0.044309
    H   H18  0.627545  0.489906  0.662099  0.039097
    H   H19  0.242499  0.500580  0.406276  0.197099
    H   H20  0.765699  0.502428  0.591624  0.207275
    C   C43  0.258366  0.566816  0.638197  0.712490
    O   O9   0.186323  0.496349  0.659505  -0.435984
    O   O10  0.297458  0.685768  0.675399  -0.176163
    C   C44  0.254044  0.735824  0.734899  -0.223767
    H   H21  0.300255  0.829772  0.758595  0.117635
    H   H22  0.247678  0.637431  0.771740  0.082497
    H   H23  0.179150  0.782677  0.722524  0.133706
    C   C45  0.749353  0.431259  0.360252  0.775592
    O   O11  0.820094  0.503330  0.337888  -0.446378
    O   O12  0.710543  0.310635  0.323904  -0.185383
    C   C46  0.748882  0.268255  0.261572  -0.261316
    H   H24  0.703759  0.171508  0.239141  0.144454
    H   H25  0.826529  0.228044  0.269159  0.111183
    H   H26  0.747244  0.369496  0.225788  0.106256
    C   C47  0.432006  0.453800  0.691822  0.958446
    O   O13  0.401621  0.319807  0.686545  -0.539487
    O   O14  0.432176  0.525559  0.753704  -0.346002
    C   C48  0.405322  0.445048  0.811686  -0.026927
    H   H27  0.408358  0.524684  0.856850  0.090093
    H   H28  0.457735  0.346447  0.820570  0.047959
    H   H29  0.328570  0.398604  0.805042  0.054596
    C   C49  0.575170  0.534335  0.304942  0.899478
    O   O15  0.567729  0.465082  0.250081  -0.556570
    O   O16  0.620392  0.675431  0.308962  -0.296496
    C   C50  0.668026  0.744224  0.254487  -0.094753
    H   H30  0.746437  0.769162  0.269871  0.109893
    H   H31  0.630453  0.855942  0.241143  0.068800
    H   H32  0.667931  0.668039  0.208277  0.069018
    C   C51  0.512570  0.293621  0.357741  0.990664
    O   O17  0.551089  0.198363  0.396715  -0.585751
    O   O18  0.450364  0.245281  0.306711  -0.260477
    C   C52  0.428819  0.089533  0.298751  -0.169298
    H   H33  0.376889  0.074043  0.254105  0.102866
    H   H34  0.393297  0.044714  0.346055  0.088180
    H   H35  0.498411  0.023658  0.289371  0.122555
    C   C53  0.491696  0.703506  0.644585  0.941825
    O   O19  0.455289  0.801050  0.605758  -0.577442
    O   O20  0.548169  0.749204  0.699138  -0.312101
    C   C54  0.564320  0.905019  0.711768  -0.097506
    H   H36  0.612177  0.918126  0.758667  0.087618
    H   H37  0.492054  0.964540  0.720028  0.104899
    H   H38  0.602181  0.958667  0.667200  0.078522
