# Generated by REPEAT Assigner based on pymatgen
data_DB0-m3_o16_o150_f0_fsc.sym.89
_audit_creation_date              2022-05-24
_audit_creation_method            REPEAT_Assigner
_cell_length_a                    12.160348
_cell_length_b                    8.554770
_cell_length_c                    15.021151
_cell_angle_alpha                 90.000000
_cell_angle_beta                  109.605965
_cell_angle_gamma                 90.000000
_cell_volume                      1472.037445
_symmetry_space_group_name_H-M    P1
_symmetry_Int_Tables_number       1
loop_
    _symmetry_equiv_pos_site_id
    _symmetry_equiv_pos_as_xyz
    1  x,y,z
loop_
    _atom_site_type_symbol
    _atom_site_label
    _atom_site_fract_x
    _atom_site_fract_y
    _atom_site_fract_z
    _atom_type_partial_charge
    H   H1   0.051802  0.000001  0.573248  0.143442
    C   C1   0.024139  0.139495  0.680362  0.052574
    C   C2   0.024140  0.860506  0.680362  0.052568
    C   C3   0.010115  0.140229  0.767688  -0.415214
    C   C4   0.010117  0.859773  0.767689  -0.415191
    H   H2   0.002713  0.249662  0.801213  0.132804
    H   H3   0.002717  0.750339  0.801215  0.132797
    C   C5   0.008496  0.000001  0.813104  0.454991
    C   C6   0.037760  0.000001  0.640170  -0.205655
    C   C7   0.901446  0.000014  0.925193  -0.080430
    H   H4   0.820778  0.000023  0.865939  0.081384
    C   C8   0.898777  0.000014  0.016121  -0.125955
    H   H5   0.816002  0.000024  0.028192  0.103189
    C   C9   0.001536  0.000001  0.091747  -0.003840
    C   C10  0.107197  0.999990  0.076680  -0.074593
    H   H6   0.186932  0.999981  0.136798  0.088973
    C   C11  0.110445  0.999990  0.985558  -0.037445
    C   C12  0.006897  0.000001  0.909706  -0.094674
    C   C13  0.994615  0.140243  0.232601  -0.365449
    C   C14  0.994618  0.859759  0.232602  -0.365444
    H   H7   0.003276  0.249618  0.199524  0.126673
    H   H8   0.003280  0.750385  0.199526  0.126673
    C   C15  0.977975  0.139703  0.318960  0.018571
    C   C16  0.977976  0.860298  0.318961  0.018553
    C   C17  0.962960  0.000001  0.358567  -0.191197
    H   H9   0.947169  0.000001  0.424807  0.136281
    C   C18  0.997353  0.000001  0.187544  0.379078
    O   O1   0.111723  0.669316  0.611158  -0.752932
    O   O2   0.111722  0.330684  0.611157  -0.752927
    O   O3   0.912398  0.664006  0.577845  -0.712480
    O   O4   0.912397  0.335996  0.577844  -0.712471
    C   C19  0.016613  0.718596  0.624795  0.857278
    C   C20  0.016612  0.281406  0.624794  0.857280
    O   O5   0.889933  0.668521  0.387890  -0.736209
    O   O6   0.889933  0.331481  0.387890  -0.736222
    O   O7   0.089863  0.663018  0.421101  -0.712091
    O   O8   0.089862  0.336982  0.421100  -0.712099
    C   C21  0.985387  0.718057  0.374481  0.865983
    C   C22  0.985386  0.281944  0.374480  0.865981
    Zn  Zn1  0.871127  0.500001  0.475462  1.045153
    Zn  Zn2  0.130263  0.500000  0.523925  1.064275
    C   C23  0.459291  0.499999  0.683050  -0.234878
    H   H10  0.292045  0.499999  0.697596  0.153130
    H   H11  0.684360  0.500000  0.733710  0.135589
    H   H12  0.504114  0.499999  0.758554  0.147569
    N   N1   0.282705  0.500000  0.555037  0.132377
    C   C24  0.665870  0.500002  0.350230  -0.024791
    C   C25  0.546674  0.500002  0.310546  -0.136213
    C   C26  0.478455  0.500001  0.366857  -0.102265
    C   C27  0.530346  0.500001  0.464432  0.047545
    C   C28  0.652533  0.500001  0.502377  0.129734
    C   C29  0.463610  0.500000  0.524983  0.049904
    C   C30  0.521076  0.500000  0.621555  0.241875
    C   C31  0.640522  0.500000  0.658075  -0.213347
    C   C32  0.705636  0.500001  0.599494  -0.181917
    C   C33  0.341193  0.500000  0.492915  -0.225019
    C   C34  0.339950  0.499999  0.648664  -0.082537
    N   N2   0.718389  0.500002  0.444745  0.002561
    H   H13  0.289324  0.500001  0.419334  0.182498
    H   H14  0.717348  0.500002  0.304025  0.142222
    H   H15  0.385846  0.500001  0.330996  0.137758
    H   H16  0.506345  0.500002  0.234528  0.144204
    H   H17  0.798200  0.500001  0.632974  0.207307
    C   C35  0.223490  0.999982  0.970117  0.404543
    H   H18  0.228139  0.999979  0.899347  0.006194
    O   O9   0.313977  0.999978  0.037419  -0.466025
