# generated using pymatgen
data_Zn2H34C43(N2O5)3
_symmetry_space_group_name_H-M   'P 1'
_cell_length_a   19.38698000
_cell_length_b   10.99297000
_cell_length_c   9.85301700
_cell_angle_alpha   90.00017700
_cell_angle_beta   89.99330900
_cell_angle_gamma   90.00537600
_symmetry_Int_Tables_number   1
_chemical_formula_structural   Zn2H34C43(N2O5)3
_chemical_formula_sum   'Zn2 H34 C43 N6 O15'
_cell_volume   2099.87978282
_cell_formula_units_Z   1
loop_
 _symmetry_equiv_pos_site_id
 _symmetry_equiv_pos_as_xyz
  1  'x, y, z'
loop_
 _atom_site_type_symbol
 _atom_site_label
 _atom_site_symmetry_multiplicity
 _atom_site_fract_x
 _atom_site_fract_y
 _atom_site_fract_z
 _atom_site_occupancy
  Zn  Zn1  1  0.50103900  0.50086500  0.64845500  1
  Zn  Zn2  1  0.50048500  0.50027800  0.33963000  1
  H  H1  1  0.28868400  0.39707200  0.68559100  1
  H  H2  1  0.14719100  0.57852400  0.32672500  1
  H  H3  1  0.71158700  0.41363600  0.68121700  1
  H  H4  1  0.85701100  0.59200700  0.32650800  1
  H  H5  1  0.50452800  0.11162600  0.28084900  1
  H  H6  1  0.57125800  0.18424800  0.74098400  1
  H  H7  1  0.43107100  0.81555900  0.73938900  1
  H  H8  1  0.49886400  0.89155300  0.27954900  1
  H  H9  1  0.57774800  0.62399800  0.12551400  1
  H  H10  1  0.41140000  0.33257800  0.23703000  1
  H  H11  1  0.33666000  0.20176700  0.11432800  1
  H  H12  1  0.33861500  0.20211200  0.86597800  1
  H  H13  1  0.41330100  0.33213300  0.74780800  1
  H  H14  1  0.61804200  0.09321600  0.95868300  1
  H  H15  1  0.55714600  0.02134400  0.06798900  1
  H  H16  1  0.58184200  0.24946800  0.03657700  1
  H  H17  1  0.38609200  0.89723500  0.95774200  1
  H  H18  1  0.44406600  0.97776500  0.06585900  1
  H  H19  1  0.42698600  0.75099700  0.05398000  1
  H  H20  1  0.11268600  0.30069900  0.69417100  1
  H  H21  1  0.12833300  0.43095600  0.80323400  1
  H  H22  1  0.19291300  0.31965000  0.90160400  1
  H  H23  1  0.59658300  0.74029800  0.92273900  1
  H  H24  1  0.58803100  0.67348500  0.76076000  1
  H  H25  1  0.69054200  0.66386900  0.92652900  1
  H  H26  1  0.23821800  0.64710500  0.21275800  1
  H  H27  1  0.31036700  0.54717900  0.21253700  1
  H  H28  1  0.29017400  0.77702600  0.31840800  1
  H  H29  1  0.80123700  0.33975500  0.79550800  1
  H  H30  1  0.87411500  0.43802300  0.79899500  1
  H  H31  1  0.85295600  0.20989300  0.68921800  1
  H  H32  1  0.68251200  0.69536300  0.31524800  1
  H  H33  1  0.69667500  0.56484100  0.20595700  1
  H  H34  1  0.75803600  0.78209100  0.21900800  1
  C  C1  1  0.50969200  0.26167900  0.49595700  1
  C  C2  1  0.36537100  0.49259500  0.49624900  1
  C  C3  1  0.49299000  0.73940100  0.49288900  1
  C  C4  1  0.63591200  0.51269800  0.49138300  1
  C  C5  1  0.25682000  0.43625300  0.60738000  1
  C  C6  1  0.18543600  0.43075300  0.61674300  1
  C  C7  1  0.14565700  0.48311500  0.51456800  1
  C  C8  1  0.17812100  0.53648500  0.40488800  1
  C  C9  1  0.24914800  0.54148600  0.39527400  1
  C  C10  1  0.28924600  0.49010300  0.49767800  1
  C  C11  1  0.93131700  0.49127700  0.51594700  1
  C  C12  1  0.06961800  0.48376900  0.51660100  1
  C  C13  1  0.81417600  0.44714700  0.61482100  1
  C  C14  1  0.74330200  0.45527600  0.60401300  1
  C  C15  1  0.71199900  0.51115000  0.49443100  1
  C  C16  1  0.75297700  0.56242800  0.39341600  1
  C  C17  1  0.82421600  0.55353500  0.40383700  1
  C  C18  1  0.85534500  0.49725300  0.51351800  1
  C  C19  1  0.53747500  0.10627100  0.73897800  1
  C  C20  1  0.52435900  0.04735000  0.85945500  1
  C  C21  1  0.47872400  0.95072100  0.85909700  1
  C  C22  1  0.46510600  0.89320200  0.73795000  1
  C  C23  1  0.49014400  0.94039800  0.61691300  1
  C  C24  1  0.51255400  0.05979300  0.61761400  1
  C  C25  1  0.51206300  0.12657900  0.49717400  1
  C  C26  1  0.50429900  0.06382000  0.37648600  1
  C  C27  1  0.49885400  0.93846200  0.37569600  1
  C  C28  1  0.49077400  0.87458900  0.49552500  1
  C  C29  1  0.41233800  0.34146900  0.12971100  1
  C  C30  1  0.36976800  0.26424300  0.06014200  1
  C  C31  1  0.37090300  0.26451900  0.92209900  1
  C  C32  1  0.41438000  0.34197700  0.85435500  1
  C  C33  1  0.45733000  0.42372200  0.92183300  1
  C  C34  1  0.45583500  0.42265300  0.06352600  1
  C  C35  1  0.54284800  0.56680700  0.06868500  1
  C  C36  1  0.54452600  0.56993800  0.92812200  1
  C  C37  1  0.56235900  0.08712100  0.98362300  1
  C  C38  1  0.44135400  0.90952400  0.98343300  1
  C  C39  1  0.15238100  0.36440900  0.73315800  1
  C  C40  1  0.59739300  0.65243800  0.86751800  1
  C  C41  1  0.27960300  0.60894800  0.27756300  1
  C  C42  1  0.84334200  0.37768700  0.73231800  1
  C  C43  1  0.72144800  0.63010300  0.27650500  1
  N  N1  1  0.03460200  0.48083200  0.39871700  1
  N  N2  1  0.96644000  0.48446100  0.39838600  1
  N  N3  1  0.96639500  0.49769000  0.63351400  1
  N  N4  1  0.03455100  0.49405300  0.63386200  1
  N  N5  1  0.49810000  0.49604400  0.13600400  1
  N  N6  1  0.50098100  0.49967300  0.85267500  1
  O  O1  1  0.50613100  0.31993400  0.61122600  1
  O  O2  1  0.50691000  0.31951700  0.37958000  1
  O  O3  1  0.39815400  0.49396700  0.61233000  1
  O  O4  1  0.39806900  0.49318000  0.38037800  1
  O  O5  1  0.49625300  0.68146600  0.60936300  1
  O  O6  1  0.49569400  0.68205800  0.37484400  1
  O  O7  1  0.60355500  0.50877100  0.60871700  1
  O  O8  1  0.60339600  0.51083000  0.37402800  1
  O  O9  1  0.53920600  0.20110700  0.02439700  1
  O  O10  1  0.46807500  0.79908800  0.02784200  1
  O  O11  1  0.20083500  0.29692200  0.80563300  1
  O  O12  1  0.66253000  0.60022900  0.88162800  1
  O  O13  1  0.32042600  0.70467000  0.32430300  1
  O  O14  1  0.88379400  0.28159300  0.68530700  1
  O  O15  1  0.77110700  0.69591900  0.20519800  1
