data_DB0-m29_o92_o550_f0_pts.sym.23_repeat
_audit_creation_date              2024-02-23
_audit_creation_method            'Materials Studio'
_symmetry_space_group_name_H-M    'P1'
_symmetry_Int_Tables_number       1
_symmetry_cell_setting            triclinic
loop_
_symmetry_equiv_pos_as_xyz
  x,y,z
_cell_length_a                    16.2970
_cell_length_b                    22.4964
_cell_length_c                    12.9660
_cell_angle_alpha                 116.6243
_cell_angle_beta                  91.7146
_cell_angle_gamma                 77.5677
loop_
_atom_site_label
_atom_site_type_symbol
_atom_site_fract_x
_atom_site_fract_y
_atom_site_fract_z
_atom_site_U_iso_or_equiv
_atom_site_adp_type
_atom_site_occupancy
H1     H     0.24305   0.87450   0.05921   0.00000  Uiso   1.00
C1     C     0.22233   0.22363   0.30029   0.00000  Uiso   1.00
C2     C     0.17394   0.28923   0.34907   0.00000  Uiso   1.00
C3     C     0.08796   0.30058   0.36333   0.00000  Uiso   1.00
C4     C     0.04990   0.24640   0.32883   0.00000  Uiso   1.00
C5     C     0.09798   0.17975   0.27975   0.00000  Uiso   1.00
C6     C     0.18482   0.16826   0.26522   0.00000  Uiso   1.00
C7     C     0.05977   0.12486   0.24496   0.00000  Uiso   1.00
C8     C     0.10830   0.05841   0.19532   0.00000  Uiso   1.00
C9     C     0.19515   0.04691   0.18082   0.00000  Uiso   1.00
C10    C     0.23336   0.10181   0.21559   0.00000  Uiso   1.00
C11    C     0.07076   0.00305   0.16025   0.00000  Uiso   1.00
C12    C     0.11915   0.93745   0.11157   0.00000  Uiso   1.00
C13    C     0.20514   0.92609   0.09739   0.00000  Uiso   1.00
C14    C     0.24322   0.98026   0.13184   0.00000  Uiso   1.00
H2     H     0.28952   0.21772   0.29016   0.00000  Uiso   1.00
H3     H     0.20365   0.33192   0.37590   0.00000  Uiso   1.00
H4     H     0.05004   0.35217   0.40163   0.00000  Uiso   1.00
H5     H     0.98213   0.25843   0.34249   0.00000  Uiso   1.00
H6     H     0.00356   0.00897   0.17033   0.00000  Uiso   1.00
H7     H     0.08942   0.89477   0.08478   0.00000  Uiso   1.00
H8     H     0.31099   0.96823   0.11825   0.00000  Uiso   1.00
C15    C     0.37074   0.07891   0.11148   0.00000  Uiso   1.00
H9     H     0.33770   0.08060   0.03896   0.00000  Uiso   1.00
C16    C     0.45764   0.06911   0.10962   0.00000  Uiso   1.00
C17    C     0.49800   0.06741   0.20375   0.00000  Uiso   1.00
H10    H     0.56525   0.06275   0.20626   0.00000  Uiso   1.00
C18    C     0.45252   0.08250   0.30324   0.00000  Uiso   1.00
C19    C     0.36613   0.09402   0.30653   0.00000  Uiso   1.00
H11    H     0.33003   0.10771   0.38567   0.00000  Uiso   1.00
C20    C     0.32536   0.08973   0.20952   0.00000  Uiso   1.00
C21    C     0.92697   0.13300   0.15425   0.00000  Uiso   1.00
H12    H     0.96305   0.11941   0.07514   0.00000  Uiso   1.00
C22    C     0.84058   0.14471   0.15769   0.00000  Uiso   1.00
C23    C     0.79512   0.15966   0.25712   0.00000  Uiso   1.00
H13    H     0.72786   0.16444   0.25470   0.00000  Uiso   1.00
C24    C     0.83552   0.15765   0.35102   0.00000  Uiso   1.00
C25    C     0.92244   0.14768   0.34903   0.00000  Uiso   1.00
H14    H     0.95550   0.14581   0.42143   0.00000  Uiso   1.00
C26    C     0.96778   0.13698   0.25107   0.00000  Uiso   1.00
O1     O     0.70438   0.15982   0.42969   0.00000  Uiso   1.00
C27    C     0.78559   0.15525   0.44081   0.00000  Uiso   1.00
O2     O     0.76542   0.00185   0.39548   0.00000  Uiso   1.00
O3     O     0.82247   0.13634   0.51604   0.00000  Uiso   1.00
O4     O     0.70467   0.06445   0.57826   0.00000  Uiso   1.00
C28    C     0.75812   0.01056   0.50214   0.00000  Uiso   1.00
Fe1    Fe    0.64453   0.12621   0.51591   0.00000  Uiso   1.00
O5     O     0.57329   0.06773   0.40422   0.00000  Uiso   1.00
O6     O     0.46897   0.16333   0.49319   0.00000  Uiso   1.00
C29    C     0.49576   0.10162   0.40926   0.00000  Uiso   1.00
O7     O     0.58981   0.21417   0.65185   0.00000  Uiso   1.00
O8     O     0.52835   0.14238   0.68530   0.00000  Uiso   1.00
C30    C     0.54058   0.20389   0.71761   0.00000  Uiso   1.00
O9     O     0.70331   0.01319   0.80936   0.00000  Uiso   1.00
O10    O     0.76466   0.08497   0.77560   0.00000  Uiso   1.00
C31    C     0.75233   0.02348   0.74338   0.00000  Uiso   1.00
O11    O     0.71973   0.15973   0.05703   0.00000  Uiso   1.00
O12    O     0.82408   0.06425   0.96754   0.00000  Uiso   1.00
C32    C     0.79729   0.12585   0.05174   0.00000  Uiso   1.00
O13    O     0.47070   0.08959   0.94366   0.00000  Uiso   1.00
O14    O     0.58846   0.16291   0.88271   0.00000  Uiso   1.00
C33    C     0.53341   0.21578   0.95805   0.00000  Uiso   1.00
O15    O     0.58863   0.06758   0.03153   0.00000  Uiso   1.00
C34    C     0.50758   0.07143   0.01972   0.00000  Uiso   1.00
O16    O     0.52498   0.22372   0.06410   0.00000  Uiso   1.00
Fe2    Fe    0.64848   0.10121   0.94524   0.00000  Uiso   1.00
C35    C     0.25448   0.43285   0.85940   0.00000  Uiso   1.00
O17    O     0.21750   0.39557   0.89248   0.00000  Uiso   1.00
N1     N     0.33926   0.42172   0.85142   0.00000  Uiso   1.00
C36    C     0.37715   0.45737   0.81492   0.00000  Uiso   1.00
C37    C     0.44338   0.31470   0.79326   0.00000  Uiso   1.00
C38    C     0.48884   0.26263   0.81515   0.00000  Uiso   1.00
C39    C     0.42858   0.32374   0.01063   0.00000  Uiso   1.00
C40    C     0.38181   0.37444   0.98669   0.00000  Uiso   1.00
C41    C     0.38910   0.37028   0.87784   0.00000  Uiso   1.00
C42    C     0.24294   0.51792   0.79316   0.00000  Uiso   1.00
C43    C     0.20548   0.48107   0.83074   0.00000  Uiso   1.00
C44    C     0.11914   0.49133   0.83670   0.00000  Uiso   1.00
C45    C     0.32954   0.50565   0.78523   0.00000  Uiso   1.00
C46    C     0.48258   0.26717   0.92584   0.00000  Uiso   1.00
H15    H     0.42215   0.32930   0.09738   0.00000  Uiso   1.00
H16    H     0.34007   0.41791   0.05433   0.00000  Uiso   1.00
H17    H     0.08785   0.46177   0.86232   0.00000  Uiso   1.00
C47    C     0.80877   0.95911   0.53446   0.00000  Uiso   1.00
C48    C     0.05845   0.63136   0.75363   0.00000  Uiso   1.00
C49    C     0.18411   0.64708   0.68621   0.00000  Uiso   1.00
C50    C     0.09682   0.66334   0.70546   0.00000  Uiso   1.00
C51    C     0.97218   0.65413   0.78306   0.00000  Uiso   1.00
C52    C     0.92384   0.70406   0.75911   0.00000  Uiso   1.00
C53    C     0.96081   0.73079   0.69886   0.00000  Uiso   1.00
C54    C     0.04756   0.71171   0.67607   0.00000  Uiso   1.00
C55    C     0.08498   0.74163   0.62356   0.00000  Uiso   1.00
C56    C     0.03672   0.78970   0.59438   0.00000  Uiso   1.00
N2     N     0.95213   0.80542   0.61163   0.00000  Uiso   1.00
C57    C     0.91360   0.77521   0.65921   0.00000  Uiso   1.00
C58    C     0.84979   0.91310   0.66863   0.00000  Uiso   1.00
C59    C     0.80391   0.96466   0.64594   0.00000  Uiso   1.00
C60    C     0.86112   0.90146   0.44923   0.00000  Uiso   1.00
C61    C     0.90781   0.85085   0.47364   0.00000  Uiso   1.00
C62    C     0.90256   0.85645   0.58380   0.00000  Uiso   1.00
O18    O     0.82923   0.78556   0.66096   0.00000  Uiso   1.00
C63    C     0.10711   0.57949   0.77600   0.00000  Uiso   1.00
C64    C     0.19437   0.56632   0.76359   0.00000  Uiso   1.00
C65    C     0.23337   0.60115   0.72177   0.00000  Uiso   1.00
C66    C     0.07056   0.53952   0.80928   0.00000  Uiso   1.00
H18    H     0.84670   0.91866   0.75575   0.00000  Uiso   1.00
H19    H     0.94054   0.63815   0.83451   0.00000  Uiso   1.00
H20    H     0.00389   0.54217   0.81139   0.00000  Uiso   1.00
O19    O     0.46164   0.44654   0.80893   0.00000  Uiso   1.00
C67    C     0.36822   0.54217   0.74855   0.00000  Uiso   1.00
H21    H     0.44763   0.31030   0.70698   0.00000  Uiso   1.00
H22    H     0.43599   0.53476   0.74345   0.00000  Uiso   1.00
C68    C     0.21993   0.67705   0.63086   0.00000  Uiso   1.00
C69    C     0.17099   0.72368   0.60055   0.00000  Uiso   1.00
O20    O     0.07440   0.82171   0.55015   0.00000  Uiso   1.00
C70    C     0.32110   0.58927   0.71746   0.00000  Uiso   1.00
H23    H     0.28603   0.66444   0.60569   0.00000  Uiso   1.00
H24    H     0.86613   0.89488   0.36167   0.00000  Uiso   1.00
H25    H     0.20188   0.74529   0.55747   0.00000  Uiso   1.00
H26    H     0.94778   0.80642   0.40532   0.00000  Uiso   1.00
H27    H     0.35657   0.61689   0.69355   0.00000  Uiso   1.00
C71    C     0.83620   0.73069   0.80996   0.00000  Uiso   1.00
O21    O     0.79394   0.69121   0.80616   0.00000  Uiso   1.00
O22    O     0.80543   0.79859   0.87091   0.00000  Uiso   1.00
C72    C     0.72530   0.82420   0.92365   0.00000  Uiso   1.00
H28    H     0.71254   0.88075   0.96787   0.00000  Uiso   1.00
H29    H     0.71920   0.80565   0.98860   0.00000  Uiso   1.00
H30    H     0.67902   0.80786   0.85790   0.00000  Uiso   1.00
