# Generated by REPEAT Assigner based on pymatgen
data_DB0-m3_o12_o16_f0_pcu.sym.80
_audit_creation_date              2022-05-24
_audit_creation_method            REPEAT_Assigner
_cell_length_a                    10.020980
_cell_length_b                    11.253079
_cell_length_c                    13.301253
_cell_angle_alpha                 91.362103
_cell_angle_beta                  109.612021
_cell_angle_gamma                 92.449365
_cell_volume                      1410.475717
_symmetry_space_group_name_H-M    P1
_symmetry_Int_Tables_number       1
loop_
    _symmetry_equiv_pos_site_id
    _symmetry_equiv_pos_as_xyz
    1  x,y,z
loop_
    _atom_site_type_symbol
    _atom_site_label
    _atom_site_fract_x
    _atom_site_fract_y
    _atom_site_fract_z
    _atom_type_partial_charge
    O   O1   0.897821  0.695103  0.496236  -0.750143
    O   O2   0.104671  0.662681  0.462472  -0.729086
    C   C1   0.011535  0.733639  0.476512  0.927684
    O   O3   0.970710  0.532292  0.662277  -0.620233
    O   O4   0.178264  0.502988  0.629313  -0.580894
    C   C2   0.108413  0.520150  0.695599  0.650407
    Zn  Zn1  0.831580  0.525770  0.510791  1.019574
    Zn  Zn2  0.105579  0.482952  0.467908  1.110134
    O   O5   0.831495  0.345917  0.515106  -0.720475
    O   O6   0.040301  0.313639  0.483511  -0.704111
    O   O7   0.758694  0.506635  0.349296  -0.688897
    O   O8   0.966430  0.474305  0.316478  -0.679735
    C   C3   0.925615  0.275109  0.502053  0.892028
    C   C4   0.828810  0.485797  0.283792  0.778221
    C   C5   0.723900  0.368239  0.003393  -0.277149
    H   H1   0.909693  0.365659  0.139507  0.109907
    H   H2   0.550254  0.305689  0.814939  0.148450
    H   H3   0.767198  0.312400  0.956003  0.130603
    C   C6   0.748262  0.464937  0.169778  -0.127278
    C   C7   0.128489  0.607671  0.869295  -0.104814
    C   C8   0.200346  0.636804  0.974698  -0.110264
    C   C9   0.332759  0.596422  0.024460  -0.197817
    C   C10  0.394927  0.521150  0.970250  0.090654
    C   C11  0.318854  0.488009  0.863476  0.171331
    C   C12  0.531194  0.478707  0.019620  -0.059503
    C   C13  0.588048  0.406248  0.960497  0.301097
    C   C14  0.508383  0.367596  0.858630  -0.288535
    C   C15  0.374051  0.404755  0.811774  -0.207113
    C   C16  0.612937  0.505234  0.126462  -0.087006
    C   C17  0.804816  0.398918  0.107039  -0.057779
    C   C18  0.187035  0.535800  0.811522  -0.138639
    H   H4   0.575436  0.556740  0.179415  0.082337
    H   H5   0.027558  0.645922  0.831721  0.120538
    H   H6   0.382613  0.627105  0.106128  0.140190
    H   H7   0.154077  0.694964  0.018325  0.106216
    H   H8   0.314375  0.363968  0.734976  0.137464
    H   H9   0.077831  0.098205  0.469177  0.111808
    H   H10  0.860096  0.910684  0.509704  0.157099
    C   C19  0.038427  0.862103  0.471713  -0.415846
    C   C20  0.952928  0.940411  0.490961  -0.038875
    H   H11  0.805659  0.115062  0.524154  0.180448
    C   C21  0.898907  0.146622  0.506696  -0.455713
    C   C22  0.984784  0.068446  0.487719  0.049125
    H   H12  0.131420  0.893524  0.453811  0.168179
    H   H13  0.532279  0.450770  0.407954  0.146158
    H   H14  0.393616  0.567841  0.566011  0.086148
    N   N1   0.286357  0.454695  0.440559  -0.385624
    C   C23  0.400036  0.510534  0.501429  0.256814
    N   N2   0.650800  0.554300  0.538148  0.170750
    C   C24  0.533779  0.500837  0.478957  -0.070914
    H   H15  0.296048  0.404100  0.378189  0.278653
    N   N3   0.652378  0.594089  0.636860  -0.577947
    C   C25  0.657911  0.719776  0.648425  0.462880
    C   C26  0.725129  0.774278  0.748013  -0.293721
    C   C27  0.729594  0.896406  0.761500  -0.063736
    C   C28  0.665997  0.964894  0.675777  -0.176466
    C   C29  0.597552  0.911175  0.576530  -0.015603
    C   C30  0.593243  0.789053  0.562499  -0.260850
    H   H16  0.730577  0.557693  0.697901  0.326824
    H   H17  0.774191  0.721668  0.816331  0.146755
    H   H18  0.782551  0.938421  0.839560  0.117081
    H   H19  0.669157  0.060627  0.686468  0.109044
    H   H20  0.546798  0.964916  0.509412  0.093695
    H   H21  0.537165  0.749979  0.483851  0.106468
