# Generated by REPEAT Assigner based on pymatgen
data_DB0-m3_o6_o21_f0_pcu.sym.2
_audit_creation_date              2022-05-24
_audit_creation_method            REPEAT_Assigner
_cell_length_a                    14.109270
_cell_length_b                    14.992257
_cell_length_c                    16.137091
_cell_angle_alpha                 90.008234
_cell_angle_beta                  89.982965
_cell_angle_gamma                 85.297171
_cell_volume                      3401.983546
_symmetry_space_group_name_H-M    P1
_symmetry_Int_Tables_number       1
loop_
    _symmetry_equiv_pos_site_id
    _symmetry_equiv_pos_as_xyz
    1  x,y,z
loop_
    _atom_site_type_symbol
    _atom_site_label
    _atom_site_fract_x
    _atom_site_fract_y
    _atom_site_fract_z
    _atom_type_partial_charge
    O   O1   0.500027  0.423137  0.623597  -0.675934
    O   O2   0.499974  0.576863  0.376403  -0.675963
    O   O3   0.499958  0.577343  0.623334  -0.671753
    O   O4   0.500042  0.422657  0.376666  -0.671751
    C   C1   0.499991  0.500323  0.661926  0.906353
    C   C2   0.500010  0.499677  0.338074  0.906469
    O   O5   0.641744  0.412127  0.500104  -0.667230
    O   O6   0.358257  0.587873  0.499896  -0.667222
    O   O7   0.641629  0.566330  0.499834  -0.664803
    O   O8   0.358371  0.433670  0.500166  -0.664811
    C   C3   0.685825  0.485851  0.499959  0.858045
    C   C4   0.314175  0.514149  0.500041  0.857983
    Zn  Zn1  0.500089  0.398369  0.500169  1.070644
    Zn  Zn2  0.499911  0.601631  0.499831  1.070592
    C   C5   0.212140  0.521965  0.500059  -0.291300
    C   C6   0.787861  0.478036  0.499941  -0.291393
    C   C7   0.024085  0.536529  0.500090  0.106343
    C   C8   0.975915  0.463471  0.499910  0.106427
    C   C9   0.873561  0.471484  0.499927  0.016945
    C   C10  0.126440  0.528517  0.500073  0.016887
    H   H1   0.500100  0.359298  0.921684  0.166822
    H   H2   0.499901  0.640702  0.078316  0.166811
    C   C11  0.500062  0.419574  0.042092  0.260058
    C   C12  0.499939  0.580426  0.957908  0.259912
    C   C13  0.500006  0.499051  0.085497  0.001068
    C   C14  0.499995  0.500949  0.914503  0.001245
    C   C15  0.499944  0.579121  0.043478  -0.307891
    C   C16  0.500056  0.420879  0.956522  -0.307987
    C   C17  0.500009  0.499237  0.174485  0.094813
    C   C18  0.499991  0.500763  0.825515  0.094646
    C   C19  0.499990  0.500526  0.750839  -0.360906
    C   C20  0.500011  0.499474  0.249161  -0.361067
    H   H3   0.606393  0.907669  0.592231  0.195264
    H   H4   0.393608  0.092331  0.407769  0.195258
    C   C21  0.560671  0.040722  0.552716  0.187918
    C   C22  0.439330  0.959278  0.447284  0.187910
    C   C23  0.500576  0.091977  0.500627  0.093181
    C   C24  0.499425  0.908024  0.499373  0.093252
    C   C25  0.440171  0.051318  0.448137  -0.288805
    C   C26  0.559830  0.948682  0.551863  -0.288823
    C   C27  0.500350  0.187774  0.500515  0.152664
    C   C28  0.499651  0.812226  0.499485  0.152572
    N   N1   0.499833  0.735038  0.499606  -0.148108
    N   N2   0.500167  0.264962  0.500394  -0.148184
    C   C29  0.027085  0.372342  0.499691  -0.270533
    H   H5   0.974202  0.321552  0.499566  0.088434
    H   H6   0.071897  0.363224  0.443338  0.087512
    H   H7   0.071880  0.362927  0.556003  0.087000
    C   C30  0.972915  0.627658  0.500309  -0.270265
    H   H8   0.025799  0.678449  0.500434  0.088383
    H   H9   0.928121  0.637073  0.443997  0.086923
    H   H10  0.928103  0.636776  0.556662  0.087420
    C   C31  0.500128  0.332782  0.087238  -0.338610
    H   H11  0.500167  0.276591  0.042590  0.088616
    H   H12  0.564652  0.322825  0.126499  0.098840
    H   H13  0.435616  0.332697  0.126539  0.098620
    C   C32  0.499872  0.667218  0.912762  -0.338555
    H   H14  0.499833  0.723409  0.957410  0.088597
    H   H15  0.564385  0.667303  0.873461  0.098629
    H   H16  0.435349  0.677176  0.873501  0.098849
    C   C33  0.626135  0.084401  0.609591  -0.297036
    H   H17  0.668654  0.033148  0.646433  0.103309
    H   H18  0.675394  0.122938  0.573031  0.111151
    H   H19  0.584320  0.129865  0.652713  0.109570
    C   C34  0.373865  0.915599  0.390409  -0.297033
    H   H20  0.331347  0.966852  0.353567  0.103308
    H   H21  0.415681  0.870136  0.347287  0.109571
    H   H22  0.324607  0.877062  0.426969  0.111146
