data_DB0-m3_o12_o28_f0_pcu.sym.11_repeat
_audit_creation_date              2024-02-23
_audit_creation_method            'Materials Studio'
_symmetry_space_group_name_H-M    'P1'
_symmetry_Int_Tables_number       1
_symmetry_cell_setting            triclinic
loop_
_symmetry_equiv_pos_as_xyz
  x,y,z
_cell_length_a                    10.1471
_cell_length_b                    11.2642
_cell_length_c                    23.4822
_cell_angle_alpha                 90.0103
_cell_angle_beta                  80.6349
_cell_angle_gamma                 92.4778
loop_
_atom_site_label
_atom_site_type_symbol
_atom_site_fract_x
_atom_site_fract_y
_atom_site_fract_z
_atom_site_U_iso_or_equiv
_atom_site_adp_type
_atom_site_occupancy
O1     O     0.42656   0.69073   0.50395   0.00000  Uiso   1.00
O2     O     0.57344   0.30927   0.49605   0.00000  Uiso   1.00
O3     O     0.65249   0.65908   0.49061   0.00000  Uiso   1.00
O4     O     0.34752   0.34092   0.50939   0.00000  Uiso   1.00
C1     C     0.55187   0.72976   0.49644   0.00000  Uiso   1.00
C2     C     0.44813   0.27024   0.50356   0.00000  Uiso   1.00
O5     O     0.38293   0.51649   0.59188   0.00000  Uiso   1.00
O6     O     0.61707   0.48351   0.40812   0.00000  Uiso   1.00
O7     O     0.60846   0.48454   0.57837   0.00000  Uiso   1.00
O8     O     0.39154   0.51546   0.42163   0.00000  Uiso   1.00
C3     C     0.49420   0.50079   0.61211   0.00000  Uiso   1.00
C4     C     0.50580   0.49921   0.38790   0.00000  Uiso   1.00
Zn1    Zn    0.35111   0.52089   0.50896   0.00000  Uiso   1.00
Zn2    Zn    0.64889   0.47911   0.49104   0.00000  Uiso   1.00
C5     C     0.42296   0.42037   0.12353   0.00000  Uiso   1.00
C6     C     0.57704   0.57963   0.87647   0.00000  Uiso   1.00
N1     N     0.50280   0.50016   0.14611   0.00000  Uiso   1.00
N2     N     0.49720   0.49984   0.85389   0.00000  Uiso   1.00
C7     C     0.58147   0.57993   0.11184   0.00000  Uiso   1.00
C8     C     0.41853   0.42006   0.88817   0.00000  Uiso   1.00
C9     C     0.58159   0.58088   0.05291   0.00000  Uiso   1.00
C10    C     0.41842   0.41912   0.94709   0.00000  Uiso   1.00
C11    C     0.50053   0.50006   0.02935   0.00000  Uiso   1.00
C12    C     0.49947   0.49994   0.97065   0.00000  Uiso   1.00
C13    C     0.42056   0.41933   0.06479   0.00000  Uiso   1.00
C14    C     0.57944   0.58067   0.93521   0.00000  Uiso   1.00
C15    C     0.66171   0.66229   0.01742   0.00000  Uiso   1.00
C16    C     0.33829   0.33771   0.98258   0.00000  Uiso   1.00
C17    C     0.66064   0.66219   0.95880   0.00000  Uiso   1.00
C18    C     0.33937   0.33781   0.04120   0.00000  Uiso   1.00
O9     O     0.34777   0.33986   0.15821   0.00000  Uiso   1.00
O10    O     0.65223   0.66014   0.84179   0.00000  Uiso   1.00
O11    O     0.65792   0.66041   0.13533   0.00000  Uiso   1.00
O12    O     0.34208   0.33959   0.86467   0.00000  Uiso   1.00
H1     H     0.72623   0.72683   0.03472   0.00000  Uiso   1.00
H2     H     0.27377   0.27317   0.96528   0.00000  Uiso   1.00
H3     H     0.72433   0.72667   0.93204   0.00000  Uiso   1.00
H4     H     0.27567   0.27333   0.06796   0.00000  Uiso   1.00
C19    C     0.61057   0.48065   0.75487   0.00000  Uiso   1.00
C20    C     0.38943   0.51935   0.24513   0.00000  Uiso   1.00
H5     H     0.70242   0.46370   0.77060   0.00000  Uiso   1.00
H6     H     0.29758   0.53630   0.22940   0.00000  Uiso   1.00
C21    C     0.60897   0.48099   0.69629   0.00000  Uiso   1.00
C22    C     0.39104   0.51900   0.30372   0.00000  Uiso   1.00
H7     H     0.70080   0.46487   0.66753   0.00000  Uiso   1.00
H8     H     0.29920   0.53513   0.33247   0.00000  Uiso   1.00
C23    C     0.49219   0.50111   0.67504   0.00000  Uiso   1.00
C24    C     0.50781   0.49889   0.32496   0.00000  Uiso   1.00
C25    C     0.37644   0.52104   0.71386   0.00000  Uiso   1.00
C26    C     0.62357   0.47896   0.28614   0.00000  Uiso   1.00
C27    C     0.37886   0.52018   0.77243   0.00000  Uiso   1.00
C28    C     0.62114   0.47982   0.22757   0.00000  Uiso   1.00
H9     H     0.28849   0.53688   0.80212   0.00000  Uiso   1.00
H10    H     0.71151   0.46312   0.19789   0.00000  Uiso   1.00
C29    C     0.49555   0.50013   0.79321   0.00000  Uiso   1.00
C30    C     0.50445   0.49987   0.20679   0.00000  Uiso   1.00
H11    H     0.61872   0.09723   0.49274   0.00000  Uiso   1.00
H12    H     0.38128   0.90277   0.50726   0.00000  Uiso   1.00
C31    C     0.58238   0.85833   0.49450   0.00000  Uiso   1.00
C32    C     0.41762   0.14167   0.50550   0.00000  Uiso   1.00
C33    C     0.48458   0.93543   0.50079   0.00000  Uiso   1.00
C34    C     0.51542   0.06457   0.49921   0.00000  Uiso   1.00
H13    H     0.11252   0.42439   0.46311   0.00000  Uiso   1.00
H14    H     0.88748   0.57561   0.53689   0.00000  Uiso   1.00
N3     N     0.84483   0.45145   0.47912   0.00000  Uiso   1.00
N4     N     0.15517   0.54855   0.52088   0.00000  Uiso   1.00
C35    C     0.92742   0.51014   0.50569   0.00000  Uiso   1.00
C36    C     0.07258   0.48986   0.49431   0.00000  Uiso   1.00
O13    O     0.10180   0.62591   0.56040   0.00000  Uiso   1.00
H15    H     0.11902   0.70437   0.54097   0.00000  Uiso   1.00
O14    O     0.89820   0.37409   0.43960   0.00000  Uiso   1.00
H16    H     0.88098   0.29563   0.45903   0.00000  Uiso   1.00
O15    O     0.25874   0.54245   0.69535   0.00000  Uiso   1.00
H17    H     0.25417   0.63009   0.69593   0.00000  Uiso   1.00
O16    O     0.74126   0.45755   0.30465   0.00000  Uiso   1.00
H18    H     0.74583   0.36991   0.30408   0.00000  Uiso   1.00
O17    O     0.28656   0.10142   0.51367   0.00000  Uiso   1.00
H19    H     0.25899   0.09963   0.55610   0.00000  Uiso   1.00
O18    O     0.71344   0.89858   0.48633   0.00000  Uiso   1.00
H20    H     0.74101   0.90037   0.44390   0.00000  Uiso   1.00
