# Generated by REPEAT Assigner based on pymatgen
data_DB0-m3_o45_o6_f0_fsc.sym.14_sqe
_audit_creation_date              2022-05-24
_audit_creation_method            REPEAT_Assigner
_cell_length_a                    12.743574
_cell_length_b                    14.416328
_cell_length_c                    8.560055
_cell_angle_alpha                 90.000000
_cell_angle_beta                  93.287293
_cell_angle_gamma                 90.000000
_cell_volume                      1570.027567
_symmetry_space_group_name_H-M    P1
_symmetry_Int_Tables_number       1
loop_
    _symmetry_equiv_pos_site_id
    _symmetry_equiv_pos_as_xyz
    1  x,y,z
loop_
    _atom_site_type_symbol
    _atom_site_label
    _atom_site_fract_x
    _atom_site_fract_y
    _atom_site_fract_z
    _atom_type_partial_charge
    C   C1   0.701913  0.981370  0.153855  0.149423
    C   C2   0.298087  0.018630  0.846145  0.149364
    C   C3   0.808338  0.996747  0.169308  -0.317653
    C   C4   0.191662  0.003253  0.830693  -0.317556
    C   C5   0.866724  0.998495  0.038602  0.685437
    C   C6   0.133276  0.001505  0.961398  0.685335
    C   C7   0.815772  0.994650  0.889943  -0.515180
    C   C8   0.184228  0.005350  0.110058  -0.515063
    H   H1   0.857591  0.003166  0.784512  0.205436
    H   H2   0.142409  0.996834  0.215488  0.205411
    C   C9   0.708135  0.980412  0.875996  0.135090
    C   C10  0.291865  0.019588  0.124005  0.135012
    C   C11  0.653561  0.968358  0.008188  -0.362365
    C   C12  0.346439  0.031642  0.991812  -0.362384
    N   N1   0.977124  0.006364  0.061231  -0.274698
    N   N2   0.022876  0.993636  0.938769  -0.274628
    C   C13  0.478781  0.694325  0.498093  -0.177487
    C   C14  0.521219  0.305675  0.501907  -0.177574
    N   N3   0.526296  0.225541  0.502272  0.018217
    N   N4   0.473704  0.774459  0.497728  0.018192
    H   H3   0.570200  0.955944  0.996817  0.193698
    H   H4   0.429800  0.044056  0.003184  0.193691
    C   C15  0.401233  0.539438  0.499379  -0.206093
    C   C16  0.598766  0.460562  0.500622  -0.206263
    C   C17  0.587748  0.555730  0.499473  -0.196979
    C   C18  0.412251  0.444270  0.500527  -0.197205
    O   O1   0.593295  0.911036  0.336300  -0.731580
    O   O2   0.406704  0.088964  0.663700  -0.731553
    O   O3   0.383858  0.928926  0.659657  -0.712143
    O   O4   0.616142  0.071074  0.340343  -0.712123
    Zn  Zn1  0.513471  0.104266  0.501359  1.123473
    Zn  Zn2  0.486529  0.895734  0.498642  1.123466
    C   C19  0.636987  0.987649  0.287665  0.845032
    C   C20  0.363013  0.012351  0.712335  0.845104
    O   O5   0.400455  0.088137  0.327956  -0.731654
    O   O6   0.599545  0.911863  0.672045  -0.731575
    O   O7   0.622100  0.069599  0.672821  -0.704187
    O   O8   0.377899  0.930401  0.327179  -0.704195
    C   C21  0.353789  0.013133  0.273208  0.815542
    C   C22  0.646211  0.986867  0.726792  0.815395
    C   C23  0.489055  0.595183  0.498845  0.582899
    C   C24  0.510945  0.404817  0.501155  0.583088
    Br  Br1  0.875946  0.012485  0.372005  -0.027143
    Br  Br2  0.124054  0.987515  0.627996  -0.027186
    Br  Br3  0.290893  0.367028  0.501220  0.106979
    Br  Br4  0.709106  0.632972  0.498780  0.106874
    Br  Br5  0.735170  0.406268  0.501468  0.096155
    Br  Br6  0.264830  0.593732  0.498532  0.096153
