# generated using pymatgen
data_Cu6H35C66ClO24
_symmetry_space_group_name_H-M   'P 1'
_cell_length_a   18.60114300
_cell_length_b   18.64647900
_cell_length_c   18.66178400
_cell_angle_alpha   109.49833500
_cell_angle_beta   109.40983500
_cell_angle_gamma   109.42253900
_symmetry_Int_Tables_number   1
_chemical_formula_structural   Cu6H35C66ClO24
_chemical_formula_sum   'Cu6 H35 C66 Cl1 O24'
_cell_volume   4987.82631322
_cell_formula_units_Z   1
loop_
 _symmetry_equiv_pos_site_id
 _symmetry_equiv_pos_as_xyz
  1  'x, y, z'
loop_
 _atom_site_type_symbol
 _atom_site_label
 _atom_site_symmetry_multiplicity
 _atom_site_fract_x
 _atom_site_fract_y
 _atom_site_fract_z
 _atom_site_occupancy
  Cu  Cu1  1  0.50247700  0.43856800  0.44216600  1
  Cu  Cu2  1  0.49960900  0.55820300  0.56154700  1
  Cu  Cu3  1  0.93796200  0.43779800  0.00231500  1
  Cu  Cu4  1  0.05847700  0.55919100  0.00222800  1
  Cu  Cu5  1  0.05917100  0.99888000  0.56106000  1
  Cu  Cu6  1  0.93867500  0.00076100  0.44175400  1
  H  H1  1  0.22563900  0.16143000  0.08283500  1
  H  H2  1  0.23722800  0.30258200  0.10868600  1
  H  H3  1  0.20901400  0.33807400  0.33337500  1
  H  H4  1  0.20096200  0.19875500  0.31084300  1
  H  H5  1  0.12137400  0.36187000  0.12283800  1
  H  H6  1  0.37427400  0.63468200  0.38365500  1
  H  H7  1  0.38853000  0.70706200  0.27875100  1
  H  H8  1  0.41370700  0.85537600  0.31348800  1
  H  H9  1  0.30996100  0.89909900  0.34007900  1
  H  H10  1  0.18190000  0.79490400  0.33333333  1
  H  H11  1  0.15564200  0.64578000  0.29756100  1
  H  H12  1  0.76238300  0.76445700  0.64237100  1
  H  H13  1  0.87548000  0.87752000  0.64230200  1
  H  H14  1  0.73501400  0.73757100  0.36205500  1
  H  H15  1  0.62370800  0.62283000  0.36213600  1
  H  H16  1  0.62234200  0.49896800  0.76521300  1
  H  H17  1  0.73326200  0.49556900  0.87692800  1
  H  H18  1  0.87695900  0.49866400  0.73954100  1
  H  H19  1  0.76461000  0.49889200  0.62637800  1
  H  H20  1  0.23933500  0.37610000  0.50420000  1
  H  H21  1  0.12465800  0.26280500  0.50197400  1
  H  H22  1  0.26205200  0.11913700  0.49816900  1
  H  H23  1  0.37541100  0.23109900  0.49709000  1
  H  H24  1  0.99328400  0.76027300  0.12220000  1
  H  H25  1  0.99211300  0.87288700  0.23455500  1
  H  H26  1  0.99503000  0.73423200  0.37638400  1
  H  H27  1  0.99224500  0.61980500  0.26218700  1
  H  H28  1  0.14176600  0.37699200  0.87981000  1
  H  H29  1  0.14193200  0.26361000  0.76701000  1
  H  H30  1  0.86092300  0.12409900  0.62681200  1
  H  H31  1  0.86076700  0.23545600  0.74103200  1
  H  H32  1  0.31294700  0.11089700  0.14448700  1
  H  H33  1  0.22912300  0.88218600  0.16709900  1
  H  H34  1  0.13286900  0.91882700  0.21668900  1
  H  H35  1  0.12228100  0.04816900  0.22680100  1
  C  C1  1  0.61799000  0.61705300  0.50224600  1
  C  C2  1  0.38118500  0.49549900  0.38336300  1
  C  C3  1  0.38386600  0.37984100  0.50143700  1
  C  C4  1  0.61871300  0.49961500  0.62027800  1
  C  C5  1  0.22281200  0.19975300  0.13878100  1
  C  C6  1  0.22816300  0.27913100  0.15247200  1
  C  C7  1  0.22583200  0.33023700  0.22374700  1
  C  C8  1  0.21227700  0.29891400  0.27813300  1
  C  C9  1  0.20701200  0.21954600  0.26465900  1
  C  C10  1  0.21438400  0.17025100  0.19605000  1
  C  C11  1  0.17650000  0.42226600  0.18050500  1
  C  C12  1  0.18420300  0.50201300  0.19154500  1
  C  C13  1  0.25645700  0.57888700  0.26570800  1
  C  C14  1  0.31862100  0.57414900  0.32663100  1
  C  C15  1  0.31110800  0.49449100  0.31567800  1
  C  C16  1  0.23878900  0.41752500  0.24135000  1
  C  C17  1  0.34262000  0.72590800  0.29015600  1
  C  C18  1  0.35681200  0.80918900  0.30961300  1
  C  C19  1  0.29869400  0.83369700  0.32451300  1
  C  C20  1  0.22660200  0.77502600  0.32033000  1
  C  C21  1  0.21188700  0.69140800  0.30013600  1
  C  C22  1  0.26945100  0.66634600  0.28406000  1
  C  C23  1  0.75586600  0.75809100  0.58049900  1
  C  C24  1  0.82027700  0.82182500  0.58045900  1
  C  C25  1  0.81294400  0.81543100  0.50217100  1
  C  C26  1  0.74145700  0.74401900  0.42393000  1
  C  C27  1  0.67878400  0.67863800  0.42398500  1
  C  C28  1  0.68534500  0.68575800  0.50226300  1
  C  C29  1  0.67815000  0.49896100  0.75918900  1
  C  C30  1  0.74051200  0.49620300  0.82200200  1
  C  C31  1  0.81262400  0.49686700  0.81580600  1
  C  C32  1  0.82118900  0.49867300  0.74564800  1
  C  C33  1  0.75723300  0.49818200  0.68122500  1
  C  C34  1  0.68596600  0.49919500  0.68822900  1
  C  C35  1  0.24501500  0.31994000  0.50299200  1
  C  C36  1  0.17951100  0.25528900  0.50091200  1
  C  C37  1  0.18549400  0.18323300  0.50014600  1
  C  C38  1  0.25665900  0.17546500  0.49952100  1
  C  C39  1  0.32060500  0.23860400  0.49832900  1
  C  C40  1  0.31551400  0.31160700  0.50100200  1
  C  C41  1  0.99507100  0.61511900  0.11759500  1
  C  C42  1  0.11622100  0.50161900  0.12262600  1
  C  C43  1  0.00069600  0.38167100  0.88640900  1
  C  C44  1  0.88025800  0.49673600  0.88366900  1
  C  C45  1  0.99616600  0.88089900  0.38259300  1
  C  C46  1  0.88091100  0.88347000  0.50211700  1
  C  C47  1  0.00103900  0.11821400  0.62016800  1
  C  C48  1  0.11700900  0.11584600  0.50040500  1
  C  C49  1  0.99343100  0.75397500  0.17774600  1
  C  C50  1  0.99215700  0.81747900  0.24114800  1
  C  C51  1  0.99420700  0.81177500  0.31366300  1
  C  C52  1  0.99442300  0.74039600  0.32065500  1
  C  C53  1  0.99204800  0.67511400  0.25548100  1
  C  C54  1  0.99326300  0.68244200  0.18455400  1
  C  C55  1  0.07978600  0.32155800  0.82444400  1
  C  C56  1  0.07988500  0.25698000  0.76084900  1
  C  C57  1  0.00144000  0.18603300  0.68894300  1
  C  C58  1  0.92298000  0.17940300  0.68218100  1
  C  C59  1  0.92289100  0.24221400  0.74734700  1
  C  C60  1  0.00125400  0.31405200  0.81838400  1
  C  C61  1  0.21655500  0.08933600  0.18601100  1
  C  C62  1  0.27104500  0.06836100  0.15846100  1
  C  C63  1  0.27513700  0.99398100  0.15130500  1
  C  C64  1  0.22549200  0.94021600  0.17218300  1
  C  C65  1  0.17147100  0.96075100  0.19993900  1
  C  C66  1  0.16657200  0.03466100  0.20653200  1
  Cl  Cl1  1  0.34473700  0.96865600  0.11697400  1
  O  O1  1  0.57215000  0.53690200  0.43367900  1
  O  O2  1  0.60607200  0.63829000  0.57075300  1
  O  O3  1  0.39537400  0.42843200  0.36233300  1
  O  O4  1  0.42868700  0.56535100  0.46286300  1
  O  O5  1  0.43229500  0.35909000  0.46947100  1
  O  O6  1  0.39360200  0.45932800  0.53354000  1
  O  O7  1  0.60908500  0.46748300  0.54087500  1
  O  O8  1  0.57066700  0.53188100  0.64132700  1
  O  O9  1  0.96368200  0.53550300  0.10762500  1
  O  O10  1  0.02858500  0.63702500  0.07070800  1
  O  O11  1  0.03684500  0.43123900  0.07415500  1
  O  O12  1  0.13743100  0.56942400  0.10966100  1
  O  O13  1  0.93118200  0.35923400  0.89696000  1
  O  O14  1  0.06925200  0.46212200  0.93368300  1
  O  O15  1  0.85817500  0.46380200  0.93071600  1
  O  O16  1  0.96049500  0.52989600  0.89487700  1
  O  O17  1  0.02928300  0.89160200  0.46250200  1
  O  O18  1  0.96493700  0.92963800  0.36182700  1
  O  O19  1  0.96120200  0.93027400  0.57082600  1
  O  O20  1  0.85907900  0.89462000  0.43318200  1
  O  O21  1  0.06989500  0.10643300  0.64074000  1
  O  O22  1  0.93142200  0.07149800  0.54054000  1
  O  O23  1  0.13808000  0.06774700  0.53238500  1
  O  O24  1  0.03738600  0.10656200  0.46918900  1
