data_DB0-m2_o11_o29_f0_pcu.sym.64_repeat
_audit_creation_date              2024-02-23
_audit_creation_method            'Materials Studio'
_symmetry_space_group_name_H-M    'P1'
_symmetry_Int_Tables_number       1
_symmetry_cell_setting            triclinic
loop_
_symmetry_equiv_pos_as_xyz
  x,y,z
_cell_length_a                    27.5272
_cell_length_b                    11.0310
_cell_length_c                    9.5801
_cell_angle_alpha                 90.0204
_cell_angle_beta                  90.0155
_cell_angle_gamma                 89.9936
loop_
_atom_site_label
_atom_site_type_symbol
_atom_site_fract_x
_atom_site_fract_y
_atom_site_fract_z
_atom_site_U_iso_or_equiv
_atom_site_adp_type
_atom_site_occupancy
O1     O     0.49974   0.32050   0.62847   0.00000  Uiso   1.00
O2     O     0.50165   0.31788   0.38863   0.00000  Uiso   1.00
C1     C     0.50025   0.26243   0.50919   0.00000  Uiso   1.00
O3     O     0.43288   0.49745   0.63106   0.00000  Uiso   1.00
O4     O     0.43092   0.50255   0.39097   0.00000  Uiso   1.00
C2     C     0.40918   0.50414   0.51265   0.00000  Uiso   1.00
Cu1    Cu    0.50368   0.49677   0.64424   0.00000  Uiso   1.00
Cu2    Cu    0.50119   0.49368   0.36490   0.00000  Uiso   1.00
O5     O     0.50378   0.67246   0.62088   0.00000  Uiso   1.00
O6     O     0.50459   0.67019   0.38043   0.00000  Uiso   1.00
O7     O     0.57392   0.48700   0.61829   0.00000  Uiso   1.00
O8     O     0.57199   0.49411   0.37862   0.00000  Uiso   1.00
C3     C     0.50470   0.72791   0.50046   0.00000  Uiso   1.00
C4     C     0.59574   0.48924   0.49699   0.00000  Uiso   1.00
C5     C     0.17966   0.39972   0.51486   0.00000  Uiso   1.00
O9     O     0.20519   0.29702   0.49700   0.00000  Uiso   1.00
N1     N     0.20320   0.50622   0.52956   0.00000  Uiso   1.00
C6     C     0.17784   0.61026   0.54279   0.00000  Uiso   1.00
C7     C     0.27926   0.58378   0.43481   0.00000  Uiso   1.00
C8     C     0.32946   0.58640   0.43042   0.00000  Uiso   1.00
C9     C     0.33172   0.43815   0.61268   0.00000  Uiso   1.00
C10    C     0.28170   0.43769   0.61802   0.00000  Uiso   1.00
C11    C     0.25515   0.50910   0.52753   0.00000  Uiso   1.00
C12    C     0.10296   0.50147   0.52356   0.00000  Uiso   1.00
C13    C     0.12940   0.39598   0.51392   0.00000  Uiso   1.00
C14    C     0.10550   0.28723   0.49989   0.00000  Uiso   1.00
C15    C     0.12760   0.60927   0.53753   0.00000  Uiso   1.00
C16    C     0.35595   0.50985   0.51722   0.00000  Uiso   1.00
H1     H     0.35191   0.37985   0.68240   0.00000  Uiso   1.00
H2     H     0.26348   0.38092   0.69364   0.00000  Uiso   1.00
H3     H     0.12520   0.20304   0.48910   0.00000  Uiso   1.00
C17    C     0.64896   0.48694   0.49443   0.00000  Uiso   1.00
C18    C     0.97743   0.38695   0.51733   0.00000  Uiso   1.00
C19    C     0.97608   0.60500   0.50433   0.00000  Uiso   1.00
C20    C     0.95173   0.49490   0.50799   0.00000  Uiso   1.00
C21    C     0.95147   0.27934   0.53252   0.00000  Uiso   1.00
C22    C     0.90159   0.27885   0.53173   0.00000  Uiso   1.00
C23    C     0.87627   0.38519   0.51467   0.00000  Uiso   1.00
C24    C     0.90125   0.49276   0.50252   0.00000  Uiso   1.00
C25    C     0.87518   0.59819   0.48526   0.00000  Uiso   1.00
C26    C     0.82497   0.59468   0.47931   0.00000  Uiso   1.00
N2     N     0.80127   0.48869   0.49351   0.00000  Uiso   1.00
C27    C     0.82601   0.38464   0.51168   0.00000  Uiso   1.00
C28    C     0.72458   0.45414   0.61189   0.00000  Uiso   1.00
C29    C     0.67453   0.45533   0.61323   0.00000  Uiso   1.00
C30    C     0.67400   0.51794   0.37453   0.00000  Uiso   1.00
C31    C     0.72413   0.51930   0.37444   0.00000  Uiso   1.00
C32    C     0.74951   0.48702   0.49298   0.00000  Uiso   1.00
O10    O     0.80155   0.27982   0.52445   0.00000  Uiso   1.00
C33    C     0.02824   0.38904   0.51250   0.00000  Uiso   1.00
C34    C     0.05247   0.49923   0.51885   0.00000  Uiso   1.00
C35    C     0.02662   0.60725   0.52013   0.00000  Uiso   1.00
C36    C     0.05564   0.28344   0.49988   0.00000  Uiso   1.00
H4     H     0.65580   0.43023   0.70802   0.00000  Uiso   1.00
H5     H     0.74425   0.42955   0.70538   0.00000  Uiso   1.00
H6     H     0.88298   0.19334   0.54452   0.00000  Uiso   1.00
H7     H     0.96840   0.19297   0.55075   0.00000  Uiso   1.00
H8     H     0.03990   0.19531   0.48413   0.00000  Uiso   1.00
O11    O     0.20151   0.71532   0.56338   0.00000  Uiso   1.00
C37    C     0.10190   0.71574   0.54781   0.00000  Uiso   1.00
H9     H     0.25850   0.64022   0.36448   0.00000  Uiso   1.00
H10    H     0.12011   0.80162   0.56200   0.00000  Uiso   1.00
C38    C     0.94914   0.71036   0.48342   0.00000  Uiso   1.00
C39    C     0.89940   0.70664   0.47353   0.00000  Uiso   1.00
O12    O     0.79946   0.69762   0.46337   0.00000  Uiso   1.00
C40    C     0.05213   0.71512   0.53858   0.00000  Uiso   1.00
H11    H     0.96529   0.79817   0.46892   0.00000  Uiso   1.00
H12    H     0.65478   0.54364   0.28072   0.00000  Uiso   1.00
H13    H     0.88001   0.79058   0.45703   0.00000  Uiso   1.00
H14    H     0.74348   0.54470   0.28072   0.00000  Uiso   1.00
H15    H     0.03479   0.80174   0.55143   0.00000  Uiso   1.00
C41    C     0.50241   0.92948   0.39096   0.00000  Uiso   1.00
C42    C     0.50593   0.86056   0.50517   0.00000  Uiso   1.00
H16    H     0.49972   0.88635   0.28960   0.00000  Uiso   1.00
H17    H     0.50977   0.89990   0.60770   0.00000  Uiso   1.00
C43    C     0.50280   0.06374   0.39484   0.00000  Uiso   1.00
C44    C     0.49925   0.12955   0.51229   0.00000  Uiso   1.00
H18    H     0.50556   0.10979   0.29530   0.00000  Uiso   1.00
H19    H     0.49522   0.08815   0.61368   0.00000  Uiso   1.00
C45    C     0.47802   0.42553   0.92020   0.00000  Uiso   1.00
N3     N     0.50561   0.49913   0.85307   0.00000  Uiso   1.00
H20    H     0.45865   0.35649   0.86227   0.00000  Uiso   1.00
H21    H     0.51658   0.57580   0.90519   0.00000  Uiso   1.00
C46    C     0.46826   0.43637   0.07220   0.00000  Uiso   1.00
N4     N     0.49891   0.48864   0.15584   0.00000  Uiso   1.00
H22    H     0.53181   0.50934   0.11137   0.00000  Uiso   1.00
C47    C     0.42144   0.38155   0.12125   0.00000  Uiso   1.00
O13    O     0.42996   0.28647   0.21344   0.00000  Uiso   1.00
H23    H     0.40127   0.34518   0.03032   0.00000  Uiso   1.00
H24    H     0.39755   0.45026   0.16877   0.00000  Uiso   1.00
H25    H     0.42073   0.21287   0.16055   0.00000  Uiso   1.00
C48    C     0.35365   0.67856   0.33935   0.00000  Uiso   1.00
O14    O     0.38402   0.75182   0.41977   0.00000  Uiso   1.00
H26    H     0.32596   0.73674   0.28873   0.00000  Uiso   1.00
H27    H     0.37480   0.63504   0.25514   0.00000  Uiso   1.00
H28    H     0.36624   0.82950   0.42820   0.00000  Uiso   1.00
