# generated using pymatgen
data_Zn2H18C29S(NO4)2
_symmetry_space_group_name_H-M   'P 1'
_cell_length_a   9.76248000
_cell_length_b   10.94768000
_cell_length_c   13.66722000
_cell_angle_alpha   89.99619100
_cell_angle_beta   74.64655900
_cell_angle_gamma   90.00396100
_symmetry_Int_Tables_number   1
_chemical_formula_structural   Zn2H18C29S(NO4)2
_chemical_formula_sum   'Zn2 H18 C29 S1 N2 O8'
_cell_volume   1408.57345764
_cell_formula_units_Z   1
loop_
 _symmetry_equiv_pos_site_id
 _symmetry_equiv_pos_as_xyz
  1  'x, y, z'
loop_
 _atom_site_type_symbol
 _atom_site_label
 _atom_site_symmetry_multiplicity
 _atom_site_fract_x
 _atom_site_fract_y
 _atom_site_fract_z
 _atom_site_occupancy
  Zn  Zn1  1  0.36579300  0.47678800  0.49844900  1
  Zn  Zn2  1  0.67828200  0.47678800  0.49496600  1
  H  H1  1  0.83904600  0.56599400  0.17871600  1
  H  H2  1  0.89091900  0.61662800  0.00330700  1
  H  H3  1  0.43284800  0.43601400  0.17644600  1
  H  H4  1  0.21320100  0.37812500  0.80815200  1
  H  H5  1  0.30228100  0.37956900  0.09038300  1
  H  H6  1  0.14845700  0.33414300  0.98793600  1
  H  H7  1  0.64029200  0.61220000  0.75537300  1
  H  H8  1  0.74143200  0.86604900  0.49578100  1
  H  H9  1  0.74348000  0.08677900  0.49136000  1
  H  H10  1  0.30273600  0.08753300  0.49745600  1
  H  H11  1  0.30068800  0.86681300  0.50184300  1
  H  H12  1  0.93809200  0.33222200  0.39013000  1
  H  H13  1  0.18831100  0.33204000  0.39363100  1
  H  H14  1  0.10604200  0.62139600  0.60320300  1
  H  H15  1  0.85610500  0.62212400  0.59909300  1
  H  H16  1  0.85376100  0.90012900  0.85537400  1
  H  H17  1  0.70216200  0.82036000  0.93297300  1
  H  H18  1  0.71504900  0.84795100  0.79979300  1
  C  C1  1  0.52014500  0.71600700  0.50050400  1
  C  C2  1  0.45083100  0.47328300  0.69595700  1
  C  C3  1  0.52398500  0.23756400  0.49276200  1
  C  C4  1  0.59316700  0.48262600  0.29802400  1
  C  C5  1  0.78899300  0.57576100  0.03734600  1
  C  C6  1  0.63049900  0.49821400  0.18746200  1
  C  C7  1  0.28365400  0.40717900  0.85272300  1
  C  C8  1  0.24723900  0.38086900  0.95422400  1
  C  C9  1  0.33769400  0.40844500  0.01272900  1
  C  C10  1  0.46567300  0.46907900  0.97148100  1
  C  C11  1  0.49960000  0.50007900  0.86870900  1
  C  C12  1  0.56107700  0.49831400  0.02973100  1
  C  C13  1  0.68912000  0.55530100  0.98332000  1
  C  C14  1  0.71467900  0.59514500  0.88406800  1
  C  C15  1  0.61902900  0.57081400  0.82922400  1
  C  C16  1  0.53206700  0.47347100  0.13363000  1
  C  C17  1  0.76066300  0.54564700  0.13812900  1
  C  C18  1  0.41105400  0.46365400  0.80792700  1
  C  C19  1  0.64427500  0.91361500  0.49628900  1
  C  C20  1  0.64553800  0.03953700  0.49353800  1
  C  C21  1  0.52335900  0.10352700  0.49382900  1
  C  C22  1  0.39988900  0.03996200  0.49695300  1
  C  C23  1  0.39864100  0.91404200  0.49965400  1
  C  C24  1  0.52080700  0.85004700  0.49939800  1
  C  C25  1  0.97460100  0.39670100  0.43757600  1
  C  C26  1  0.11494300  0.39631400  0.43988400  1
  C  C27  1  0.06945600  0.55672600  0.55594100  1
  C  C28  1  0.92920800  0.55729100  0.55344100  1
  C  C29  1  0.77554300  0.82652100  0.85582900  1
  S  S1  1  0.86885300  0.68265200  0.82314100  1
  N  N1  1  0.16062200  0.47604100  0.49926300  1
  N  N2  1  0.88336200  0.47723000  0.49442000  1
  O  O1  1  0.40178500  0.65887200  0.50102500  1
  O  O2  1  0.63878600  0.65864800  0.49873200  1
  O  O3  1  0.34889500  0.47358000  0.64948200  1
  O  O4  1  0.58557000  0.47171000  0.64615400  1
  O  O5  1  0.40509500  0.29494100  0.49563900  1
  O  O6  1  0.64254400  0.29476300  0.49128400  1
  O  O7  1  0.45814200  0.48019400  0.34714700  1
  O  O8  1  0.69554600  0.48125300  0.34395000  1
