# generated using pymatgen
data_Fe2H21C50N3O16
_symmetry_space_group_name_H-M   'P 1'
_cell_length_a   15.95138800
_cell_length_b   14.27023700
_cell_length_c   11.43529400
_cell_angle_alpha   94.26428400
_cell_angle_beta   89.27831300
_cell_angle_gamma   105.01874600
_symmetry_Int_Tables_number   1
_chemical_formula_structural   Fe2H21C50N3O16
_chemical_formula_sum   'Fe2 H21 C50 N3 O16'
_cell_volume   2507.08074815
_cell_formula_units_Z   1
loop_
 _symmetry_equiv_pos_site_id
 _symmetry_equiv_pos_as_xyz
  1  'x, y, z'
loop_
 _atom_site_type_symbol
 _atom_site_label
 _atom_site_symmetry_multiplicity
 _atom_site_fract_x
 _atom_site_fract_y
 _atom_site_fract_z
 _atom_site_occupancy
  Fe  Fe1  1  0.49438500  0.98163900  0.24476800  1
  Fe  Fe2  1  0.47666000  0.98174900  0.75070200  1
  H  H1  1  0.16443600  0.99837000  0.82098300  1
  H  H2  1  0.21316600  0.96297800  0.23449400  1
  H  H3  1  0.05625300  0.04317500  0.78452800  1
  H  H4  1  0.91793900  0.04148600  0.72688800  1
  H  H5  1  0.06611500  0.94822600  0.27650500  1
  H  H6  1  0.92487700  0.95122600  0.22330800  1
  H  H7  1  0.80970800  0.97765600  0.17707100  1
  H  H8  1  0.49193800  0.62550200  0.26244500  1
  H  H9  1  0.48715800  0.67411400  0.69103500  1
  H  H10  1  0.48648400  0.50911200  0.70824500  1
  H  H11  1  0.48687900  0.34561300  0.72724000  1
  H  H12  1  0.48805900  0.28258100  0.30045100  1
  H  H13  1  0.34255100  0.41406100  0.24367400  1
  H  H14  1  0.46193600  0.40952200  0.91483400  1
  H  H15  1  0.61798300  0.47857800  0.21839000  1
  H  H16  1  0.72498100  0.04240500  0.69984700  1
  H  H17  1  0.75692200  0.98118600  0.49973500  1
  H  H18  1  0.75312100  0.83443200  0.37192100  1
  H  H19  1  0.75204700  0.68112700  0.45738600  1
  H  H20  1  0.75441300  0.67482500  0.67132800  1
  H  H21  1  0.75725500  0.81766600  0.79985100  1
  C  C1  1  0.27012500  0.98463900  0.06647600  1
  C  C2  1  0.25556800  0.99391300  0.94905100  1
  C  C3  1  0.17347600  0.99596200  0.91332000  1
  C  C4  1  0.20173000  0.97130500  0.14334600  1
  C  C5  1  0.12044600  0.97461700  0.10728000  1
  C  C6  1  0.10546600  0.99070800  0.99291400  1
  C  C7  1  0.02277300  0.99874700  0.96082900  1
  C  C8  1  0.00696600  0.02282400  0.84944500  1
  C  C9  1  0.92545000  0.02320000  0.81537400  1
  C  C10  1  0.05447200  0.96227100  0.18735800  1
  C  C11  1  0.97268200  0.96544200  0.15549200  1
  C  C12  1  0.95506500  0.98510400  0.04220200  1
  C  C13  1  0.87137800  0.98959400  0.00763500  1
  C  C14  1  0.85690100  0.00335000  0.89198900  1
  C  C15  1  0.77419100  0.99788600  0.85133700  1
  C  C16  1  0.80154900  0.98113600  0.08482200  1
  C  C17  1  0.71885000  0.98014000  0.04684500  1
  C  C18  1  0.70471200  0.98574200  0.92784200  1
  C  C19  1  0.64918200  0.97471700  0.13575800  1
  C  C20  1  0.49440500  0.80482700  0.32823400  1
  C  C21  1  0.35712400  0.99667100  0.11438300  1
  C  C22  1  0.47809300  0.12780900  0.40203400  1
  C  C23  1  0.49802000  0.83581800  0.59282700  1
  C  C24  1  0.61705700  0.96887900  0.87906000  1
  C  C25  1  0.48320000  0.16108300  0.66589900  1
  C  C26  1  0.32398300  0.99751000  0.85981600  1
  C  C27  1  0.49085300  0.63516200  0.35665200  1
  C  C28  1  0.49314600  0.72697800  0.40750100  1
  C  C29  1  0.49137700  0.74072800  0.52975800  1
  C  C30  1  0.48735100  0.66287300  0.59652000  1
  C  C31  1  0.48770500  0.57247800  0.54474300  1
  C  C32  1  0.48874500  0.55780000  0.42443300  1
  C  C33  1  0.48729300  0.49700700  0.61385600  1
  C  C34  1  0.48793600  0.40628100  0.56319900  1
  C  C35  1  0.48848600  0.39059100  0.44297500  1
  C  C36  1  0.48776400  0.46604400  0.37303500  1
  C  C37  1  0.48680700  0.33111800  0.63344400  1
  C  C38  1  0.48428800  0.23832500  0.58536900  1
  C  C39  1  0.48512700  0.22299800  0.46343500  1
  C  C40  1  0.48843500  0.29886700  0.39411300  1
  C  C41  1  0.40078300  0.42233200  0.19178000  1
  C  C42  1  0.46744600  0.41987500  0.00904900  1
  C  C43  1  0.55439500  0.45830000  0.17772700  1
  C  C44  1  0.48106200  0.44769400  0.24556000  1
  C  C45  1  0.75770000  0.91148100  0.65865200  1
  C  C46  1  0.75606000  0.91397600  0.53815300  1
  C  C47  1  0.75411600  0.83160800  0.46606400  1
  C  C48  1  0.75364100  0.74576600  0.51388200  1
  C  C49  1  0.75509600  0.74236500  0.63385200  1
  C  C50  1  0.75723900  0.82460600  0.70649900  1
  N  N1  1  0.39516700  0.40886900  0.07428600  1
  N  N2  1  0.54644800  0.44429000  0.06037500  1
  N  N3  1  0.76086600  0.99847700  0.72925000  1
  O  O1  1  0.57356800  0.98872000  0.10913700  1
  O  O2  1  0.49553500  0.78621600  0.21417200  1
  O  O3  1  0.66442900  0.96091900  0.24479900  1
  O  O4  1  0.49272200  0.89233900  0.36968800  1
  O  O5  1  0.37292100  0.93251000  0.18155800  1
  O  O6  1  0.41802300  0.07627200  0.09811900  1
  O  O7  1  0.53399200  0.11737900  0.31993800  1
  O  O8  1  0.40810600  0.05692200  0.41479000  1
  O  O9  1  0.44180000  0.84583100  0.67460700  1
  O  O10  1  0.56569500  0.90870300  0.57720000  1
  O  O11  1  0.59639900  0.03465300  0.81883900  1
  O  O12  1  0.56037500  0.88499400  0.88968200  1
  O  O13  1  0.31231200  0.02174800  0.75394700  1
  O  O14  1  0.47830100  0.07108600  0.62573100  1
  O  O15  1  0.39456700  0.97109400  0.88329700  1
  O  O16  1  0.48698400  0.18249400  0.77964900  1
