# Generated by REPEAT Assigner based on pymatgen
data_DB0-m3_o1_o21_f0_pcu.sym.58
_audit_creation_date              2022-05-24
_audit_creation_method            REPEAT_Assigner
_cell_length_a                    9.770877
_cell_length_b                    10.947580
_cell_length_c                    14.115586
_cell_angle_alpha                 89.994924
_cell_angle_beta                  85.329729
_cell_angle_gamma                 90.003965
_cell_volume                      1504.895055
_symmetry_space_group_name_H-M    P1
_symmetry_Int_Tables_number       1
loop_
    _symmetry_equiv_pos_site_id
    _symmetry_equiv_pos_as_xyz
    1  x,y,z
loop_
    _atom_site_type_symbol
    _atom_site_label
    _atom_site_fract_x
    _atom_site_fract_y
    _atom_site_fract_z
    _atom_type_partial_charge
    O   O1   0.384822  0.687653  0.494103  -0.656498
    O   O2   0.620823  0.323734  0.497062  -0.653142
    O   O3   0.621084  0.687677  0.493434  -0.676596
    O   O4   0.384563  0.323710  0.497727  -0.657770
    C   C1   0.502996  0.744874  0.493391  0.694498
    C   C2   0.502649  0.266514  0.497772  0.681560
    O   O5   0.368115  0.508061  0.637494  -0.707622
    O   O6   0.637527  0.503328  0.353672  -0.718134
    O   O7   0.604626  0.508117  0.636889  -0.698306
    O   O8   0.401022  0.503277  0.354272  -0.708729
    C   C3   0.481447  0.509003  0.681321  0.971857
    C   C4   0.524206  0.502395  0.309839  0.982939
    Zn  Zn1  0.346997  0.505663  0.495899  1.053457
    Zn  Zn2  0.658649  0.505724  0.495264  1.044423
    C   C5   0.939306  0.429500  0.437658  -0.005199
    C   C6   0.066340  0.581886  0.553504  -0.006460
    C   C7   0.080396  0.429391  0.438084  0.009070
    C   C8   0.925250  0.581995  0.553078  0.003599
    C   C9   0.535365  0.497555  0.207906  -0.407681
    C   C10  0.470351  0.513988  0.783246  -0.369480
    C   C11  0.554273  0.485355  0.020134  -0.076346
    C   C12  0.451837  0.526548  0.970992  0.057079
    H   H1   0.889859  0.368136  0.391104  0.135253
    H   H2   0.115786  0.643250  0.600058  0.140756
    C   C13  0.461812  0.519348  0.868795  0.066842
    C   C14  0.544106  0.492368  0.122345  0.127780
    H   H3   0.141178  0.368042  0.391759  0.140028
    H   H4   0.864468  0.643344  0.599403  0.149195
    C   C15  0.625036  0.942700  0.494456  -0.063283
    C   C16  0.380609  0.068688  0.496704  -0.077847
    H   H5   0.722101  0.895287  0.493700  0.087377
    H   H6   0.283544  0.116101  0.497459  0.095102
    C   C17  0.624907  0.068648  0.496000  -0.127804
    C   C18  0.380738  0.942740  0.495160  -0.121679
    H   H7   0.721892  0.116031  0.496196  0.109042
    H   H8   0.283753  0.895357  0.494964  0.105726
    C   C19  0.502690  0.132466  0.497158  -0.014526
    C   C20  0.502955  0.878922  0.494003  -0.027914
    N   N1   0.142266  0.505549  0.496020  -0.020995
    N   N2   0.863380  0.505837  0.495141  -0.023033
    C   C21  0.326223  0.578802  0.019104  -0.021861
    C   C22  0.280787  0.691161  0.990550  -0.056242
    C   C23  0.161347  0.740511  0.033007  -0.346522
    C   C24  0.084411  0.677519  0.103250  0.483704
    O   O9   0.968256  0.729722  0.142896  -0.383596
    C   C25  0.882992  0.676437  0.213230  0.115625
    C   C26  0.127988  0.562994  0.130278  -0.313246
    C   C27  0.247768  0.513924  0.087809  -0.000854
    H   H9   0.339775  0.742001  0.935700  0.105659
    H   H10  0.127568  0.829365  0.010977  0.143672
    H   H11  0.795817  0.738811  0.232795  0.062544
    H   H12  0.939584  0.660310  0.277098  0.014694
    H   H13  0.841693  0.589359  0.187227  0.037856
    H   H14  0.070411  0.509108  0.183797  0.113320
    H   H15  0.278021  0.423071  0.107614  0.102053
    C   C28  0.680382  0.433968  0.972024  0.108402
    C   C29  0.758342  0.499534  0.903546  0.014251
    C   C30  0.878734  0.451137  0.861731  -0.376067
    C   C31  0.923919  0.337821  0.888400  0.438525
    O   O10  0.042365  0.294140  0.845223  -0.339940
    C   C32  0.098294  0.183061  0.865576  0.131701
    C   C33  0.847338  0.273209  0.958737  -0.253495
    C   C34  0.727044  0.321988  0.000632  -0.187934
    H   H16  0.727397  0.590129  0.883597  0.086589
    H   H17  0.938888  0.502911  0.808034  0.152031
    H   H18  0.194992  0.170051  0.819877  0.050736
    H   H19  0.026209  0.108514  0.850622  0.011079
    H   H20  0.122287  0.180489  0.941032  0.006815
    H   H21  0.878698  0.184631  0.982738  0.133240
    H   H22  0.668253  0.270815  0.055380  0.130725
