# generated using pymatgen
data_CuH16C25(NO2)2
_symmetry_space_group_name_H-M   'P 1'
_cell_length_a   17.00563100
_cell_length_b   17.89385100
_cell_length_c   19.34398900
_cell_angle_alpha   89.98468100
_cell_angle_beta   89.62908800
_cell_angle_gamma   93.67489400
_symmetry_Int_Tables_number   1
_chemical_formula_structural   CuH16C25(NO2)2
_chemical_formula_sum   'Cu2 H32 C50 N4 O8'
_cell_volume   5874.07499321
_cell_formula_units_Z   2
loop_
 _symmetry_equiv_pos_site_id
 _symmetry_equiv_pos_as_xyz
  1  'x, y, z'
loop_
 _atom_site_type_symbol
 _atom_site_label
 _atom_site_symmetry_multiplicity
 _atom_site_fract_x
 _atom_site_fract_y
 _atom_site_fract_z
 _atom_site_occupancy
  Cu  Cu1  1  0.50014600  0.57462900  0.50017800  1
  Cu  Cu2  1  0.49968000  0.42520400  0.49981800  1
  H  H1  1  0.25170800  0.60524900  0.50092200  1
  H  H2  1  0.74800400  0.39448700  0.49775500  1
  H  H3  1  0.11070300  0.59843600  0.50136300  1
  H  H4  1  0.88945200  0.40198800  0.49843800  1
  H  H5  1  0.89295200  0.64103600  0.50024200  1
  H  H6  1  0.10906500  0.35812600  0.49871800  1
  H  H7  1  0.74923100  0.63423100  0.49991200  1
  H  H8  1  0.25077700  0.36614000  0.49785900  1
  H  H9  1  0.49617700  0.38028400  0.71732300  1
  H  H10  1  0.50608900  0.62012700  0.28208900  1
  H  H11  1  0.49665200  0.37985900  0.84279200  1
  H  H12  1  0.50577700  0.62010400  0.15681800  1
  H  H13  1  0.50318400  0.61911900  0.84299800  1
  H  H14  1  0.49890900  0.38053700  0.15741800  1
  H  H15  1  0.50514400  0.61974700  0.71804800  1
  H  H16  1  0.49755000  0.38032500  0.28154100  1
  H  H17  1  0.58493700  0.59279700  0.93560500  1
  H  H18  1  0.41626500  0.40666400  0.06376300  1
  H  H19  1  0.58566400  0.59400600  0.06064600  1
  H  H20  1  0.41524100  0.40597300  0.93871400  1
  H  H21  1  0.58675100  0.69878100  0.42173700  1
  H  H22  1  0.41233500  0.30139900  0.57701600  1
  H  H23  1  0.58952600  0.83437400  0.42043300  1
  H  H24  1  0.40893300  0.16519400  0.57688800  1
  H  H25  1  0.40854500  0.82338100  0.57544100  1
  H  H26  1  0.58951700  0.17583700  0.42148400  1
  H  H27  1  0.41072500  0.68732000  0.57529800  1
  H  H28  1  0.58826400  0.31238600  0.42287900  1
  H  H29  1  0.48525100  0.93070300  0.60947700  1
  H  H30  1  0.50930500  0.06940900  0.39027300  1
  H  H31  1  0.48405700  0.06569800  0.61025500  1
  H  H32  1  0.51031200  0.93462000  0.38921500  1
  C  C1  1  0.50040000  0.50025500  0.36708200  1
  C  C2  1  0.49926000  0.49973200  0.63291500  1
  C  C3  1  0.65148200  0.50861200  0.49971300  1
  C  C4  1  0.34839500  0.49124800  0.50022100  1
  C  C5  1  0.73792500  0.51374000  0.49952400  1
  C  C6  1  0.26195500  0.48643600  0.50010400  1
  C  C7  1  0.77879100  0.44930200  0.49873500  1
  C  C8  1  0.22083600  0.55063200  0.50083200  1
  C  C9  1  0.86007500  0.45366700  0.49925500  1
  C  C10  1  0.13950400  0.54624200  0.50121500  1
  C  C11  1  0.90130100  0.52301600  0.50050100  1
  C  C12  1  0.09836800  0.47669100  0.50112600  1
  C  C13  1  0.86051300  0.58703200  0.50039300  1
  C  C14  1  0.13976800  0.41282200  0.49980000  1
  C  C15  1  0.77932900  0.58285100  0.50008600  1
  C  C16  1  0.22078800  0.41745800  0.49919400  1
  C  C17  1  0.49686400  0.43297100  0.74461000  1
  C  C18  1  0.50352700  0.56708200  0.25516200  1
  C  C19  1  0.49652400  0.43274000  0.81587400  1
  C  C20  1  0.50406800  0.56716700  0.18383800  1
  C  C21  1  0.49902800  0.49946400  0.85202200  1
  C  C22  1  0.50097200  0.50049300  0.14762000  1
  C  C23  1  0.50214500  0.56628400  0.81593300  1
  C  C24  1  0.49849600  0.43370700  0.18389300  1
  C  C25  1  0.50232100  0.56656200  0.74472600  1
  C  C26  1  0.49826900  0.43356500  0.25511000  1
  C  C27  1  0.49922700  0.49973900  0.70870200  1
  C  C28  1  0.50032600  0.50035100  0.29130600  1
  C  C29  1  0.54654100  0.55248200  0.96329800  1
  C  C30  1  0.45427700  0.44733200  0.03623300  1
  C  C31  1  0.54698400  0.55301700  0.03457300  1
  C  C32  1  0.45374900  0.44690700  0.96498900  1
  C  C33  1  0.50079100  0.50044000  0.07164000  1
  C  C34  1  0.49974900  0.49953200  0.92796300  1
  C  C35  1  0.54869600  0.72665200  0.45665600  1
  C  C36  1  0.45156300  0.27320700  0.54318800  1
  C  C37  1  0.54935300  0.80374500  0.45541500  1
  C  C38  1  0.45068200  0.19625400  0.54384800  1
  C  C39  1  0.49990300  0.84018100  0.49909700  1
  C  C40  1  0.50019400  0.15995500  0.50022100  1
  C  C41  1  0.45019300  0.79741800  0.54250000  1
  C  C42  1  0.54963800  0.20232700  0.45626100  1
  C  C43  1  0.45096900  0.72046800  0.54224600  1
  C  C44  1  0.54905300  0.27933500  0.45701300  1
  C  C45  1  0.49137100  0.96053500  0.56091800  1
  C  C46  1  0.50733400  0.03965500  0.43892100  1
  C  C47  1  0.49107100  0.03757400  0.56137500  1
  C  C48  1  0.50777000  0.96272300  0.43843000  1
  C  C49  1  0.49978400  0.07776900  0.50034700  1
  C  C50  1  0.50004200  0.92244500  0.49944400  1
  N  N1  1  0.98460500  0.53047700  0.50115700  1
  N  N2  1  0.01511400  0.46915300  0.50129400  1
  N  N3  1  0.50082000  0.68635400  0.50041500  1
  N  N4  1  0.49925400  0.31336400  0.49957000  1
  O  O1  1  0.50344200  0.56441800  0.39966800  1
  O  O2  1  0.49665000  0.43538800  0.60029700  1
  O  O3  1  0.49744200  0.43579300  0.39936900  1
  O  O4  1  0.50235200  0.56419900  0.60057700  1
  O  O5  1  0.61451500  0.57059200  0.50268100  1
  O  O6  1  0.38524500  0.42903900  0.49776600  1
  O  O7  1  0.61431200  0.44237600  0.49709500  1
  O  O8  1  0.38551700  0.55753200  0.50274300  1
