# generated using pymatgen
data_Zn4H20C44O13
_symmetry_space_group_name_H-M   'P 1'
_cell_length_a   25.94255300
_cell_length_b   36.55456400
_cell_length_c   22.41297800
_cell_angle_alpha   90.00000000
_cell_angle_beta   125.36046000
_cell_angle_gamma   90.00000000
_symmetry_Int_Tables_number   1
_chemical_formula_structural   Zn4H20C44O13
_chemical_formula_sum   'Zn16 H80 C176 O52'
_cell_volume   17333.74584023
_cell_formula_units_Z   4
loop_
 _symmetry_equiv_pos_site_id
 _symmetry_equiv_pos_as_xyz
  1  'x, y, z'
loop_
 _atom_site_type_symbol
 _atom_site_label
 _atom_site_symmetry_multiplicity
 _atom_site_fract_x
 _atom_site_fract_y
 _atom_site_fract_z
 _atom_site_occupancy
  Zn  Zn1  1  0.98787100  0.28096000  0.06178500  1
  Zn  Zn2  1  0.01212900  0.71904000  0.93821500  1
  Zn  Zn3  1  0.01212900  0.28096000  0.93821500  1
  Zn  Zn4  1  0.98787100  0.71904000  0.06178500  1
  Zn  Zn5  1  0.48787100  0.78096000  0.06178500  1
  Zn  Zn6  1  0.51212900  0.21904000  0.93821500  1
  Zn  Zn7  1  0.51212900  0.78096000  0.93821500  1
  Zn  Zn8  1  0.48787100  0.21904000  0.06178500  1
  Zn  Zn9  1  0.07369500  0.21908000  0.06188800  1
  Zn  Zn10  1  0.92630500  0.78092000  0.93811100  1
  Zn  Zn11  1  0.92630500  0.21908000  0.93811100  1
  Zn  Zn12  1  0.07369500  0.78092000  0.06188800  1
  Zn  Zn13  1  0.57369500  0.71908000  0.06188800  1
  Zn  Zn14  1  0.42630500  0.28092000  0.93811100  1
  Zn  Zn15  1  0.42630500  0.71908000  0.93811100  1
  Zn  Zn16  1  0.57369500  0.28092000  0.06188800  1
  H  H1  1  0.01735000  0.46635100  0.91801500  1
  H  H2  1  0.98265000  0.53364900  0.08198500  1
  H  H3  1  0.98265000  0.46635100  0.08198500  1
  H  H4  1  0.01735000  0.53364900  0.91801500  1
  H  H5  1  0.51735000  0.96635100  0.91801500  1
  H  H6  1  0.48265000  0.03364900  0.08198500  1
  H  H7  1  0.48265000  0.96635100  0.08198500  1
  H  H8  1  0.51735000  0.03364900  0.91801500  1
  H  H9  1  0.83572600  0.08738900  0.94638900  1
  H  H10  1  0.16427400  0.91261100  0.05361100  1
  H  H11  1  0.16427400  0.08738900  0.05361100  1
  H  H12  1  0.83572600  0.91261100  0.94638900  1
  H  H13  1  0.33572600  0.58738900  0.94638900  1
  H  H14  1  0.66427400  0.41261100  0.05361100  1
  H  H15  1  0.66427400  0.58738900  0.05361100  1
  H  H16  1  0.33572600  0.41261100  0.94638900  1
  H  H17  1  0.90707300  0.12112100  0.06100100  1
  H  H18  1  0.09292600  0.87887900  0.93899900  1
  H  H19  1  0.09292600  0.12112100  0.93899900  1
  H  H20  1  0.90707300  0.87887900  0.06100100  1
  H  H21  1  0.40707300  0.62112100  0.06100100  1
  H  H22  1  0.59292600  0.37887900  0.93899900  1
  H  H23  1  0.59292600  0.62112100  0.93899900  1
  H  H24  1  0.40707300  0.37887900  0.06100100  1
  H  H25  1  0.87562300  0.18094200  0.07962800  1
  H  H26  1  0.12437700  0.81905800  0.92037200  1
  H  H27  1  0.12437700  0.18094200  0.92037200  1
  H  H28  1  0.87562300  0.81905800  0.07962800  1
  H  H29  1  0.37562300  0.68094200  0.07962800  1
  H  H30  1  0.62437700  0.31905800  0.92037200  1
  H  H31  1  0.62437700  0.68094200  0.92037200  1
  H  H32  1  0.37562300  0.31905800  0.07962800  1
  H  H33  1  0.70092600  0.17355200  0.86814900  1
  H  H34  1  0.29907400  0.82644800  0.13185100  1
  H  H35  1  0.29907400  0.17355200  0.13185100  1
  H  H36  1  0.70092600  0.82644800  0.86814900  1
  H  H37  1  0.20092600  0.67355200  0.86814900  1
  H  H38  1  0.79907400  0.32644800  0.13185100  1
  H  H39  1  0.79907400  0.67355200  0.13185100  1
  H  H40  1  0.20092600  0.32644800  0.86814900  1
  H  H41  1  0.73237700  0.11347300  0.85047100  1
  H  H42  1  0.26762300  0.88652700  0.14952900  1
  H  H43  1  0.26762300  0.11347300  0.14952900  1
  H  H44  1  0.73237700  0.88652700  0.85047100  1
  H  H45  1  0.23237700  0.61347300  0.85047100  1
  H  H46  1  0.76762300  0.38652700  0.14952900  1
  H  H47  1  0.76762300  0.61347300  0.14952900  1
  H  H48  1  0.23237700  0.38652700  0.85047100  1
  H  H49  1  0.18513400  0.69493700  0.96946400  1
  H  H50  1  0.81486600  0.30506300  0.03053600  1
  H  H51  1  0.81486600  0.69493700  0.03053600  1
  H  H52  1  0.18513400  0.30506300  0.96946400  1
  H  H53  1  0.68513400  0.19493700  0.96946400  1
  H  H54  1  0.31486600  0.80506300  0.03053600  1
  H  H55  1  0.31486600  0.19493700  0.03053600  1
  H  H56  1  0.68513400  0.80506300  0.96946400  1
  H  H57  1  0.84454500  0.28907800  0.56724900  1
  H  H58  1  0.15545500  0.71092200  0.43275100  1
  H  H59  1  0.15545500  0.28907800  0.43275100  1
  H  H60  1  0.84454500  0.71092200  0.56724900  1
  H  H61  1  0.34454500  0.78907800  0.56724900  1
  H  H62  1  0.65545500  0.21092200  0.43275100  1
  H  H63  1  0.65545500  0.78907800  0.43275100  1
  H  H64  1  0.34454500  0.21092200  0.56724900  1
  H  H65  1  0.77764300  0.28873200  0.43266300  1
  H  H66  1  0.22235700  0.71126800  0.56733700  1
  H  H67  1  0.22235700  0.28873200  0.56733700  1
  H  H68  1  0.77764300  0.71126800  0.43266300  1
  H  H69  1  0.27764300  0.78873200  0.43266300  1
  H  H70  1  0.72235700  0.21126800  0.56733700  1
  H  H71  1  0.72235700  0.78873200  0.56733700  1
  H  H72  1  0.27764300  0.21126800  0.43266300  1
  H  H73  1  0.10056800  0.03364400  0.06309700  1
  H  H74  1  0.89943200  0.96635600  0.93690300  1
  H  H75  1  0.89943200  0.03364400  0.93690300  1
  H  H76  1  0.10056800  0.96635600  0.06309700  1
  H  H77  1  0.60056800  0.53364400  0.06309700  1
  H  H78  1  0.39943200  0.46635600  0.93690300  1
  H  H79  1  0.39943200  0.53364400  0.93690300  1
  H  H80  1  0.60056800  0.46635600  0.06309700  1
  C  C1  1  0.13924100  0.24883700  0.99802900  1
  C  C2  1  0.86075900  0.75116300  0.00197100  1
  C  C3  1  0.86075900  0.24883700  0.00197100  1
  C  C4  1  0.13924100  0.75116300  0.99802900  1
  C  C5  1  0.63924100  0.74883700  0.99802900  1
  C  C6  1  0.36075900  0.25116300  0.00197100  1
  C  C7  1  0.36075900  0.74883700  0.00197100  1
  C  C8  1  0.63924100  0.25116300  0.99802900  1
  C  C9  1  0.10091100  0.25040600  0.20085500  1
  C  C10  1  0.89908900  0.74959400  0.79914500  1
  C  C11  1  0.89908900  0.25040600  0.79914500  1
  C  C12  1  0.10091100  0.74959400  0.20085500  1
  C  C13  1  0.60091100  0.75040600  0.20085500  1
  C  C14  1  0.39908900  0.24959400  0.79914500  1
  C  C15  1  0.39908900  0.75040600  0.79914500  1
  C  C16  1  0.60091100  0.24959400  0.20085500  1
  C  C17  1  0.00000000  0.14956800  0.00000000  1
  C  C18  1  0.00000000  0.85043200  0.00000000  1
  C  C19  1  0.50000000  0.64956800  0.00000000  1
  C  C20  1  0.50000000  0.35043200  0.00000000  1
  C  C21  1  0.00000000  0.35043500  0.00000000  1
  C  C22  1  0.00000000  0.64956500  0.00000000  1
  C  C23  1  0.50000000  0.85043500  0.00000000  1
  C  C24  1  0.50000000  0.14956500  0.00000000  1
  C  C25  1  0.00972100  0.51888400  0.95406300  1
  C  C26  1  0.99027800  0.48111600  0.04593700  1
  C  C27  1  0.99027800  0.51888400  0.04593700  1
  C  C28  1  0.00972100  0.48111600  0.95406300  1
  C  C29  1  0.50972100  0.01888400  0.95406300  1
  C  C30  1  0.49027800  0.98111600  0.04593700  1
  C  C31  1  0.49027800  0.01888400  0.04593700  1
  C  C32  1  0.50972100  0.98111600  0.95406300  1
  C  C33  1  0.00000000  0.53782100  0.00000000  1
  C  C34  1  0.00000000  0.46217900  0.00000000  1
  C  C35  1  0.50000000  0.03782100  0.00000000  1
  C  C36  1  0.50000000  0.96217900  0.00000000  1
  C  C37  1  0.00000000  0.57717700  0.00000000  1
  C  C38  1  0.00000000  0.42282300  0.00000000  1
  C  C39  1  0.50000000  0.07717700  0.00000000  1
  C  C40  1  0.50000000  0.92282300  0.00000000  1
  C  C41  1  0.00000000  0.38979700  0.00000000  1
  C  C42  1  0.00000000  0.61020300  0.00000000  1
  C  C43  1  0.50000000  0.88979700  0.00000000  1
  C  C44  1  0.50000000  0.11020300  0.00000000  1
  C  C45  1  0.86183600  0.13270300  0.01863400  1
  C  C46  1  0.13816400  0.86729700  0.98136600  1
  C  C47  1  0.13816400  0.13270300  0.98136600  1
  C  C48  1  0.86183600  0.86729700  0.01863400  1
  C  C49  1  0.36183600  0.63270300  0.01863400  1
  C  C50  1  0.63816400  0.36729700  0.98136600  1
  C  C51  1  0.63816400  0.63270300  0.98136600  1
  C  C52  1  0.36183600  0.36729700  0.01863400  1
  C  C53  1  0.84419900  0.16639800  0.02885800  1
  C  C54  1  0.15580100  0.83360200  0.97114200  1
  C  C55  1  0.15580100  0.16639800  0.97114200  1
  C  C56  1  0.84419900  0.83360200  0.02885800  1
  C  C57  1  0.34419900  0.66639800  0.02885700  1
  C  C58  1  0.65580100  0.33360200  0.97114200  1
  C  C59  1  0.65580100  0.66639800  0.97114200  1
  C  C60  1  0.34419900  0.33360200  0.02885700  1
  C  C61  1  0.78670400  0.18152100  0.97442000  1
  C  C62  1  0.21329500  0.81847900  0.02558000  1
  C  C63  1  0.21329500  0.18152100  0.02558000  1
  C  C64  1  0.78670400  0.81847900  0.97442000  1
  C  C65  1  0.28670400  0.68152100  0.97442000  1
  C  C66  1  0.71329500  0.31847900  0.02558000  1
  C  C67  1  0.71329500  0.68152100  0.02558000  1
  C  C68  1  0.28670400  0.31847900  0.97442000  1
  C  C69  1  0.74620300  0.16212100  0.91079400  1
  C  C70  1  0.25379700  0.83787900  0.08920600  1
  C  C71  1  0.25379700  0.16212100  0.08920600  1
  C  C72  1  0.74620300  0.83787900  0.91079400  1
  C  C73  1  0.24620300  0.66212100  0.91079400  1
  C  C74  1  0.75379700  0.33787900  0.08920600  1
  C  C75  1  0.75379700  0.66212100  0.08920600  1
  C  C76  1  0.24620300  0.33787900  0.91079400  1
  C  C77  1  0.76390400  0.12840700  0.90068600  1
  C  C78  1  0.23609600  0.87159300  0.09931400  1
  C  C79  1  0.23609600  0.12840700  0.09931400  1
  C  C80  1  0.76390400  0.87159300  0.90068600  1
  C  C81  1  0.26390400  0.62840700  0.90068600  1
  C  C82  1  0.73609600  0.37159300  0.09931400  1
  C  C83  1  0.73609600  0.62840700  0.09931400  1
  C  C84  1  0.26390400  0.37159300  0.90068600  1
  C  C85  1  0.82182400  0.11377500  0.95442600  1
  C  C86  1  0.17817600  0.88622500  0.04557400  1
  C  C87  1  0.17817600  0.11377500  0.04557400  1
  C  C88  1  0.82182400  0.88622500  0.95442600  1
  C  C89  1  0.32182400  0.61377500  0.95442600  1
  C  C90  1  0.67817600  0.38622500  0.04557400  1
  C  C91  1  0.67817600  0.61377500  0.04557400  1
  C  C92  1  0.32182400  0.38622500  0.95442600  1
  C  C93  1  0.21278200  0.71943900  0.98117900  1
  C  C94  1  0.78721800  0.28056100  0.01882100  1
  C  C95  1  0.78721800  0.71943900  0.01882100  1
  C  C96  1  0.21278200  0.28056100  0.98117900  1
  C  C97  1  0.71278200  0.21943900  0.98117900  1
  C  C98  1  0.28721800  0.78056100  0.01882100  1
  C  C99  1  0.28721800  0.21943900  0.01882100  1
  C  C100  1  0.71278200  0.78056100  0.98117900  1
  C  C101  1  0.19519600  0.75159600  0.99703700  1
  C  C102  1  0.80480300  0.24840400  0.00296300  1
  C  C103  1  0.80480300  0.75159600  0.00296300  1
  C  C104  1  0.19519600  0.24840400  0.99703700  1
  C  C105  1  0.69519600  0.25159600  0.99703700  1
  C  C106  1  0.30480300  0.74840400  0.00296300  1
  C  C107  1  0.30480300  0.25159600  0.00296300  1
  C  C108  1  0.69519600  0.74840400  0.99703700  1
  C  C109  1  0.23235500  0.78264200  0.01504700  1
  C  C110  1  0.76764500  0.21735800  0.98495300  1
  C  C111  1  0.76764500  0.78264200  0.98495300  1
  C  C112  1  0.23235500  0.21735800  0.01504700  1
  C  C113  1  0.73235500  0.28264200  0.01504700  1
  C  C114  1  0.26764500  0.71735800  0.98495300  1
  C  C115  1  0.26764500  0.28264200  0.98495300  1
  C  C116  1  0.73235500  0.71735800  0.01504700  1
  C  C117  1  0.76546200  0.27169700  0.46220900  1
  C  C118  1  0.23453700  0.72830300  0.53779100  1
  C  C119  1  0.23453700  0.27169700  0.53779100  1
  C  C120  1  0.76546200  0.72830300  0.46220900  1
  C  C121  1  0.26546200  0.77169700  0.46220900  1
  C  C122  1  0.73453700  0.22830300  0.53779100  1
  C  C123  1  0.73453700  0.77169700  0.53779100  1
  C  C124  1  0.26546200  0.22830300  0.46220900  1
  C  C125  1  0.71241200  0.24979300  0.42435300  1
  C  C126  1  0.28758800  0.75020700  0.57564700  1
  C  C127  1  0.28758800  0.24979300  0.57564700  1
  C  C128  1  0.71241200  0.75020700  0.42435300  1
  C  C129  1  0.21241200  0.74979300  0.42435300  1
  C  C130  1  0.78758800  0.25020700  0.57564700  1
  C  C131  1  0.78758800  0.74979300  0.57564700  1
  C  C132  1  0.21241200  0.25020700  0.42435300  1
  C  C133  1  0.69700000  0.22810000  0.46225700  1
  C  C134  1  0.30299900  0.77190000  0.53774200  1
  C  C135  1  0.30299900  0.22810000  0.53774200  1
  C  C136  1  0.69700000  0.77190000  0.46225700  1
  C  C137  1  0.19700000  0.72810000  0.46225700  1
  C  C138  1  0.80299900  0.27190000  0.53774200  1
  C  C139  1  0.80299900  0.72810000  0.53774200  1
  C  C140  1  0.19700000  0.27190000  0.46225700  1
  C  C141  1  0.67322500  0.24963800  0.34563700  1
  C  C142  1  0.32677500  0.75036200  0.65436300  1
  C  C143  1  0.32677500  0.24963800  0.65436300  1
  C  C144  1  0.67322500  0.75036200  0.34563700  1
  C  C145  1  0.17322500  0.74963800  0.34563700  1
  C  C146  1  0.82677500  0.25036200  0.65436300  1
  C  C147  1  0.82677500  0.74963800  0.65436300  1
  C  C148  1  0.17322500  0.25036200  0.34563700  1
  C  C149  1  0.85971800  0.25043100  0.72041500  1
  C  C150  1  0.14028200  0.74956900  0.27958500  1
  C  C151  1  0.14028200  0.25043100  0.27958500  1
  C  C152  1  0.85971800  0.74956900  0.72041500  1
  C  C153  1  0.35971800  0.75043100  0.72041500  1
  C  C154  1  0.64028200  0.24956900  0.27958500  1
  C  C155  1  0.64028200  0.75043100  0.27958500  1
  C  C156  1  0.35971800  0.24956900  0.72041500  1
  C  C157  1  0.05634800  0.98111400  0.03533400  1
  C  C158  1  0.94365200  0.01888600  0.96466600  1
  C  C159  1  0.94365200  0.98111400  0.96466600  1
  C  C160  1  0.05634800  0.01888600  0.03533400  1
  C  C161  1  0.55634800  0.48111400  0.03533400  1
  C  C162  1  0.44365200  0.51888600  0.96466600  1
  C  C163  1  0.44365200  0.48111400  0.96466600  1
  C  C164  1  0.55634800  0.51888600  0.03533400  1
  C  C165  1  0.00000000  0.96217000  0.00000000  1
  C  C166  1  0.00000000  0.03783000  0.00000000  1
  C  C167  1  0.50000000  0.46217000  0.00000000  1
  C  C168  1  0.50000000  0.53783000  0.00000000  1
  C  C169  1  0.00000000  0.92281100  0.00000000  1
  C  C170  1  0.00000000  0.07718900  0.00000000  1
  C  C171  1  0.50000000  0.42281100  0.00000000  1
  C  C172  1  0.50000000  0.57718900  0.00000000  1
  C  C173  1  0.00000000  0.11021200  0.00000000  1
  C  C174  1  0.00000000  0.88978800  0.00000000  1
  C  C175  1  0.50000000  0.61021200  0.00000000  1
  C  C176  1  0.50000000  0.38978800  0.00000000  1
  O  O1  1  0.00000000  0.25004400  0.00000000  1
  O  O2  1  0.00000000  0.74995600  0.00000000  1
  O  O3  1  0.50000000  0.75004400  0.00000000  1
  O  O4  1  0.50000000  0.24995600  0.00000000  1
  O  O5  1  0.09280600  0.27149300  0.95511000  1
  O  O6  1  0.90719400  0.72850700  0.04489000  1
  O  O7  1  0.90719400  0.27149300  0.04489000  1
  O  O8  1  0.09280600  0.72850700  0.95511000  1
  O  O9  1  0.59280600  0.77149300  0.95511000  1
  O  O10  1  0.40719400  0.22850700  0.04489000  1
  O  O11  1  0.40719400  0.77149300  0.04489000  1
  O  O12  1  0.59280600  0.22850700  0.95511000  1
  O  O13  1  0.11363800  0.22812500  0.16508100  1
  O  O14  1  0.88636200  0.77187500  0.83491900  1
  O  O15  1  0.88636200  0.22812500  0.83491900  1
  O  O16  1  0.11363800  0.77187500  0.16508100  1
  O  O17  1  0.61363800  0.72812500  0.16508100  1
  O  O18  1  0.38636200  0.27187500  0.83491900  1
  O  O19  1  0.38636200  0.72812500  0.83491900  1
  O  O20  1  0.61363800  0.27187500  0.16508100  1
  O  O21  1  0.05276500  0.16747800  0.04490400  1
  O  O22  1  0.94723500  0.83252200  0.95509500  1
  O  O23  1  0.94723500  0.16747800  0.95509500  1
  O  O24  1  0.05276500  0.83252200  0.04490400  1
  O  O25  1  0.55276500  0.66747800  0.04490400  1
  O  O26  1  0.44723500  0.33252200  0.95509500  1
  O  O27  1  0.44723500  0.66747800  0.95509500  1
  O  O28  1  0.55276500  0.33252200  0.04490400  1
  O  O29  1  0.00925500  0.33253600  0.95619800  1
  O  O30  1  0.99074500  0.66746400  0.04380200  1
  O  O31  1  0.99074500  0.33253600  0.04380200  1
  O  O32  1  0.00925500  0.66746400  0.95619800  1
  O  O33  1  0.50925500  0.83253600  0.95619800  1
  O  O34  1  0.49074500  0.16746400  0.04380200  1
  O  O35  1  0.49074500  0.83253600  0.04380200  1
  O  O36  1  0.50925500  0.16746400  0.95619800  1
  O  O37  1  0.05209900  0.27247100  0.16500800  1
  O  O38  1  0.94790100  0.72752900  0.83499200  1
  O  O39  1  0.94790100  0.27247100  0.83499200  1
  O  O40  1  0.05209900  0.72752900  0.16500800  1
  O  O41  1  0.55209900  0.77247100  0.16500800  1
  O  O42  1  0.44790100  0.22752900  0.83499200  1
  O  O43  1  0.44790100  0.77247100  0.83499200  1
  O  O44  1  0.55209900  0.22752900  0.16500800  1
  O  O45  1  0.13624800  0.22744300  0.04293500  1
  O  O46  1  0.86375200  0.77255700  0.95706500  1
  O  O47  1  0.86375200  0.22744300  0.95706500  1
  O  O48  1  0.13624800  0.77255700  0.04293500  1
  O  O49  1  0.63624800  0.72744300  0.04293500  1
  O  O50  1  0.36375200  0.27255700  0.95706500  1
  O  O51  1  0.36375200  0.72744300  0.95706500  1
  O  O52  1  0.63624800  0.27255700  0.04293500  1
