data_DB0-m3_o11_o25_f0_pcu.sym.34_repeat
_audit_creation_date              2024-02-23
_audit_creation_method            'Materials Studio'
_symmetry_space_group_name_H-M    'P1'
_symmetry_Int_Tables_number       1
_symmetry_cell_setting            triclinic
loop_
_symmetry_equiv_pos_as_xyz
  x,y,z
_cell_length_a                    16.0124
_cell_length_b                    11.1504
_cell_length_c                    9.9080
_cell_angle_alpha                 89.9974
_cell_angle_beta                  89.9946
_cell_angle_gamma                 90.0034
loop_
_atom_site_label
_atom_site_type_symbol
_atom_site_fract_x
_atom_site_fract_y
_atom_site_fract_z
_atom_site_U_iso_or_equiv
_atom_site_adp_type
_atom_site_occupancy
O1     O     0.49217   0.31928   0.61337   0.00000  Uiso   1.00
O2     O     0.49052   0.32198   0.38061   0.00000  Uiso   1.00
C1     C     0.48881   0.26489   0.49657   0.00000  Uiso   1.00
O3     O     0.37487   0.50750   0.62454   0.00000  Uiso   1.00
O4     O     0.37207   0.50962   0.39174   0.00000  Uiso   1.00
C2     C     0.33470   0.51094   0.50929   0.00000  Uiso   1.00
Zn1    Zn    0.49972   0.49654   0.65553   0.00000  Uiso   1.00
Zn2    Zn    0.49553   0.50142   0.34824   0.00000  Uiso   1.00
O5     O     0.50664   0.67565   0.62337   0.00000  Uiso   1.00
O6     O     0.50276   0.67909   0.38992   0.00000  Uiso   1.00
O7     O     0.62324   0.48759   0.61246   0.00000  Uiso   1.00
O8     O     0.62050   0.49247   0.37889   0.00000  Uiso   1.00
C3     C     0.50676   0.73314   0.50767   0.00000  Uiso   1.00
C4     C     0.66054   0.48726   0.49449   0.00000  Uiso   1.00
C5     C     0.97221   0.40521   0.56002   0.00000  Uiso   1.00
C6     C     0.02870   0.40403   0.43793   0.00000  Uiso   1.00
H1     H     0.05482   0.32323   0.38815   0.00000  Uiso   1.00
H2     H     0.94983   0.49854   0.26716   0.00000  Uiso   1.00
C7     C     0.24509   0.51128   0.51088   0.00000  Uiso   1.00
C8     C     0.75015   0.48778   0.49271   0.00000  Uiso   1.00
C9     C     0.02211   0.50270   0.62367   0.00000  Uiso   1.00
C10    C     0.07860   0.50433   0.50337   0.00000  Uiso   1.00
C11    C     0.96651   0.59750   0.56210   0.00000  Uiso   1.00
C12    C     0.91662   0.49722   0.49662   0.00000  Uiso   1.00
C13    C     0.02376   0.59888   0.43824   0.00000  Uiso   1.00
C14    C     0.97240   0.49890   0.37298   0.00000  Uiso   1.00
C15    C     0.16986   0.50909   0.50888   0.00000  Uiso   1.00
C16    C     0.82537   0.49095   0.49361   0.00000  Uiso   1.00
H3     H     0.04714   0.68003   0.38569   0.00000  Uiso   1.00
H4     H     0.94038   0.67676   0.61490   0.00000  Uiso   1.00
C17    C     0.49703   0.93158   0.40442   0.00000  Uiso   1.00
C18    C     0.51623   0.86383   0.51278   0.00000  Uiso   1.00
H5     H     0.47742   0.88712   0.31252   0.00000  Uiso   1.00
C19    C     0.50387   0.06388   0.39777   0.00000  Uiso   1.00
C20    C     0.48045   0.13422   0.49989   0.00000  Uiso   1.00
H6     H     0.52411   0.10430   0.30382   0.00000  Uiso   1.00
H7     H     0.45472   0.09589   0.59075   0.00000  Uiso   1.00
C21    C     0.54167   0.57236   0.92813   0.00000  Uiso   1.00
N1     N     0.50416   0.49231   0.85723   0.00000  Uiso   1.00
H8     H     0.57265   0.64638   0.87797   0.00000  Uiso   1.00
H9     H     0.48503   0.41619   0.90672   0.00000  Uiso   1.00
C22    C     0.54775   0.56256   0.07677   0.00000  Uiso   1.00
N2     N     0.49224   0.50694   0.14653   0.00000  Uiso   1.00
H10    H     0.59860   0.60766   0.12809   0.00000  Uiso   1.00
H11    H     0.43955   0.47906   0.09645   0.00000  Uiso   1.00
N3     N     0.94256   0.29939   0.63059   0.00000  Uiso   1.00
H12    H     0.99491   0.25176   0.66332   0.00000  Uiso   1.00
H13    H     0.91104   0.24606   0.56055   0.00000  Uiso   1.00
N4     N     0.05069   0.50160   0.76266   0.00000  Uiso   1.00
H14    H     0.99786   0.50116   0.82442   0.00000  Uiso   1.00
H15    H     0.08257   0.58186   0.77975   0.00000  Uiso   1.00
N5     N     0.55332   0.91279   0.63208   0.00000  Uiso   1.00
H16    H     0.50702   0.94341   0.69760   0.00000  Uiso   1.00
H17    H     0.59608   0.97986   0.60709   0.00000  Uiso   1.00
