# Generated by REPEAT Assigner based on pymatgen
data_DB0-m2_o9_o19_f0_nbo.sym.111
_audit_creation_date              2022-05-24
_audit_creation_method            REPEAT_Assigner
_cell_length_a                    19.249278
_cell_length_b                    18.960044
_cell_length_c                    19.447165
_cell_angle_alpha                 111.655302
_cell_angle_beta                  112.215790
_cell_angle_gamma                 103.848166
_cell_volume                      5483.020095
_symmetry_space_group_name_H-M    P1
_symmetry_Int_Tables_number       1
loop_
    _symmetry_equiv_pos_site_id
    _symmetry_equiv_pos_as_xyz
    1  x,y,z
loop_
    _atom_site_type_symbol
    _atom_site_label
    _atom_site_fract_x
    _atom_site_fract_y
    _atom_site_fract_z
    _atom_type_partial_charge
    C   C1    0.901493  0.391215  0.007810  0.762790
    C   C2    0.992747  0.819851  0.018112  -0.114891
    C   C3    0.643512  0.723341  0.931583  0.486945
    C   C4    0.629746  0.685577  0.059826  0.372744
    C   C5    0.031016  0.844183  0.919140  0.454062
    C   C6    0.728611  0.342307  0.755622  0.444451
    C   C7    0.544939  0.355961  0.721778  0.391400
    C   C8    0.403780  0.197522  0.590558  0.395565
    C   C9    0.754582  0.567165  0.748630  -0.034451
    C   C10   0.685024  0.492630  0.683411  -0.042298
    C   C11   0.675394  0.420004  0.688029  0.001842
    C   C12   0.738698  0.421358  0.754753  -0.075086
    C   C13   0.808938  0.497205  0.820925  -0.018624
    C   C14   0.814358  0.570806  0.818987  -0.023174
    C   C15   0.537093  0.309406  0.637230  -0.087556
    C   C16   0.468384  0.231525  0.573264  -0.162896
    C   C17   0.460946  0.187223  0.493523  0.022326
    C   C18   0.880055  0.498460  0.887593  0.721188
    C   C19   0.523230  0.219874  0.479640  -0.002579
    C   C20   0.591438  0.295986  0.543236  -0.169683
    C   C21   0.598947  0.341224  0.621594  0.216143
    C   C22   0.843663  0.329407  0.009887  -0.151753
    C   C23   0.794259  0.276613  0.009940  0.020544
    C   C24   0.735332  0.214428  0.008649  0.125766
    C   C25   0.683772  0.161607  0.006520  -0.285544
    C   C26   0.993889  0.466541  0.251349  -0.155799
    C   C27   0.067336  0.494872  0.252159  -0.062814
    C   C28   0.100215  0.439654  0.227192  0.064623
    C   C29   0.103367  0.608407  0.997227  0.744895
    C   C30   0.060137  0.356430  0.203228  -0.144369
    C   C31   0.986466  0.328036  0.201992  -0.106815
    C   C32   0.953375  0.383107  0.226140  -0.064407
    C   C33   0.247380  0.468829  0.294350  -0.096307
    C   C34   0.326336  0.500341  0.306783  -0.036976
    C   C35   0.338075  0.530100  0.254590  0.004697
    C   C36   0.271683  0.531690  0.194436  -0.119927
    C   C37   0.193487  0.502463  0.184251  -0.057722
    C   C38   0.181400  0.470594  0.234496  0.073608
    C   C39   0.460831  0.643146  0.289375  -0.195835
    C   C40   0.123713  0.501674  0.117453  0.817944
    C   C41   0.538716  0.675163  0.300117  -0.075829
    C   C42   0.574996  0.622374  0.280464  -0.078534
    C   C43   0.532460  0.537324  0.248088  -0.102010
    C   C44   0.453752  0.504198  0.235985  -0.144911
    C   C45   0.418821  0.558588  0.260008  0.256297
    C   C46   0.162741  0.669812  0.996109  -0.206570
    C   C47   0.213953  0.719979  0.995182  0.062563
    C   C48   0.275209  0.777832  0.994500  0.103863
    C   C49   0.328224  0.827117  0.994643  -0.245274
    C   C50   0.518432  0.384580  0.385292  0.721952
    C   C51   0.944504  0.769301  0.034236  -0.141215
    C   C52   0.619801  0.493777  0.613963  0.596776
    C   C53   0.498256  0.612083  0.607609  0.751365
    C   C54   0.394255  0.499538  0.374462  0.650804
    C   C55   0.502253  0.869866  0.879942  0.557698
    C   C56   0.620537  0.099628  0.002974  0.864506
    C   C57   0.508933  0.114403  0.118381  0.529791
    C   C58   0.391881  0.886188  0.995730  0.891275
    C   C59   0.783597  0.517717  0.485040  -0.156680
    C   C60   0.705778  0.458282  0.414467  -0.020988
    C   C61   0.674073  0.377425  0.399445  -0.015512
    C   C62   0.887633  0.687237  0.969927  -0.047412
    C   C63   0.723293  0.354823  0.451586  0.005019
    C   C64   0.801881  0.413838  0.522626  -0.051618
    C   C65   0.831337  0.497172  0.540973  -0.094848
    C   C66   0.587103  0.244876  0.260160  -0.179486
    C   C67   0.511036  0.183928  0.186937  0.004420
    C   C68   0.438449  0.189953  0.179668  0.042189
    C   C69   0.442760  0.255508  0.245560  -0.113497
    C   C70   0.518695  0.317720  0.317203  -0.054912
    C   C71   0.591755  0.313312  0.324087  0.043097
    C   C72   0.318452  0.147515  0.042911  -0.205924
    C   C73   0.881376  0.654120  0.890363  0.094460
    C   C74   0.243976  0.088210  0.967509  -0.073946
    C   C75   0.207169  0.008385  0.952960  -0.086464
    C   C76   0.243498  0.988439  0.014739  0.023634
    C   C77   0.317783  0.047988  0.091179  -0.124903
    C   C78   0.356358  0.127257  0.103916  0.130216
    C   C79   0.564583  0.835187  0.556101  0.026043
    C   C80   0.567782  0.816012  0.618858  -0.047206
    C   C81   0.495499  0.763993  0.607217  0.034377
    C   C82   0.419771  0.731817  0.533578  -0.061269
    C   C83   0.416108  0.752107  0.471409  0.024464
    C   C84   0.929122  0.705168  0.874110  -0.117038
    C   C85   0.488613  0.803747  0.482902  -0.254366
    C   C86   0.498155  0.811567  0.743184  -0.275433
    C   C87   0.500626  0.801961  0.810789  0.108328
    C   C88   0.501264  0.729134  0.811215  -0.011165
    C   C89   0.496841  0.666047  0.742427  -0.144163
    C   C90   0.496069  0.676789  0.675794  -0.094556
    C   C91   0.497922  0.750484  0.676995  0.170166
    C   C92   0.566876  0.708701  0.935917  -0.180565
    C   C93   0.560086  0.688536  0.995920  -0.018348
    C   C94   0.487295  0.673852  0.998301  -0.077958
    C   C95   0.984180  0.788243  0.937626  -0.049880
    C   C96   0.422148  0.679924  0.942764  -0.069211
    C   C97   0.428763  0.700470  0.884056  -0.133503
    C   C98   0.500446  0.714788  0.880028  0.192591
    C   C99   0.386151  0.108467  0.421165  0.319385
    C   C100  0.409908  0.411732  0.194602  0.455134
    C   C101  0.910806  0.566286  0.618443  0.414138
    C   C102  0.852777  0.384595  0.573216  0.365472
    C   C103  0.354093  0.026723  0.157823  0.400735
    C   C104  0.640837  0.889917  0.567085  0.375794
    C   C105  0.335703  0.721046  0.394350  0.403200
    Cu  Cu1   0.001943  0.560644  0.062558  0.925950
    Cu  Cu2   0.002265  0.439107  0.942073  1.000457
    Cu  Cu3   0.564438  0.556300  0.499906  0.898683
    Cu  Cu4   0.449927  0.439829  0.491064  0.890215
    Cu  Cu5   0.447677  0.997784  0.939464  0.990540
    Cu  Cu6   0.564891  0.987620  0.058868  0.956135
    H   H1    0.035736  0.884881  0.068055  0.112756
    H   H2    0.099736  0.560768  0.273864  0.107209
    H   H3    0.086422  0.313266  0.185289  0.098777
    H   H4    0.954895  0.262673  0.182578  0.102145
    H   H5    0.237350  0.445567  0.334476  0.091841
    H   H6    0.280607  0.554537  0.153621  0.083860
    H   H7    0.432773  0.684907  0.305063  0.101681
    H   H8    0.571425  0.741749  0.324336  0.114550
    H   H9    0.636222  0.647346  0.288960  0.107467
    H   H10   0.560696  0.496124  0.230599  0.095101
    H   H11   0.806583  0.581613  0.497479  0.121074
    H   H12   0.949421  0.794807  0.096500  0.117623
    H   H13   0.669834  0.475386  0.370930  0.092343
    H   H14   0.699334  0.289828  0.435831  0.113469
    H   H15   0.644068  0.241191  0.266032  0.136384
    H   H16   0.385852  0.258901  0.240296  0.095802
    H   H17   0.348526  0.209517  0.053312  0.132005
    H   H18   0.215143  0.103882  0.919240  0.115343
    H   H19   0.149408  0.961494  0.893083  0.089109
    H   H20   0.213336  0.925534  0.002207  0.104209
    H   H21   0.485855  0.820394  0.434759  0.128461
    H   H22   0.626353  0.841857  0.677747  0.104837
    H   H23   0.846190  0.649856  0.981340  0.115336
    H   H24   0.363568  0.692750  0.526564  0.072403
    H   H25   0.498193  0.868397  0.742690  0.155253
    H   H26   0.495894  0.608560  0.741774  0.118207
    H   H27   0.480689  0.658483  0.044436  0.116864
    H   H28   0.365547  0.668205  0.945110  0.105339
    H   H29   0.376686  0.703677  0.839609  0.084768
    H   H30   0.329007  0.088814  0.422001  0.061928
    H   H31   0.443787  0.374676  0.184304  -0.026471
    H   H32   0.938648  0.623625  0.619102  0.019519
    H   H33   0.919931  0.420585  0.614582  0.058354
    H   H34   0.921047  0.680185  0.810466  0.146945
    H   H35   0.413079  0.071460  0.217554  0.010842
    H   H36   0.637251  0.904737  0.517436  0.017240
    H   H37   0.333566  0.737026  0.345752  0.000027
    H   H38   0.677460  0.686844  0.942772  -0.037547
    H   H39   0.691553  0.707374  0.068860  0.024771
    H   H40   0.069352  0.910639  0.967567  -0.041810
    H   H41   0.696345  0.282388  0.695576  -0.005802
    H   H42   0.518842  0.322276  0.747250  0.034898
    H   H43   0.383189  0.238896  0.624624  0.014391
    H   H44   0.759477  0.624562  0.747246  0.084621
    H   H45   0.518781  0.187111  0.418259  0.105814
    H   H46   0.639953  0.320593  0.531942  0.084562
    H   H47   0.895759  0.360896  0.225440  0.080863
    H   H48   0.968279  0.509895  0.270884  0.102606
    O   O1    0.943434  0.469743  0.073721  -0.528750
    O   O2    0.481125  0.362647  0.423770  -0.602529
    O   O3    0.641911  0.529974  0.574226  -0.523421
    O   O4    0.542470  0.462186  0.596941  -0.491549
    O   O5    0.564106  0.632999  0.599723  -0.572935
    O   O6    0.436530  0.534959  0.560044  -0.611672
    O   O7    0.469268  0.564476  0.423905  -0.572430
    O   O8    0.375025  0.435110  0.386404  -0.521763
    O   O9    0.451593  0.903196  0.857418  -0.579531
    O   O10   0.556213  0.897228  0.960726  -0.495129
    O   O11   0.542324  0.081164  0.953677  -0.619297
    O   O12   0.908786  0.366421  0.939032  -0.540177
    O   O13   0.643567  0.065565  0.050112  -0.587409
    O   O14   0.454715  0.086387  0.037563  -0.498719
    O   O15   0.562405  0.083703  0.140797  -0.558471
    O   O16   0.368790  0.918197  0.946497  -0.621968
    O   O17   0.470267  0.905926  0.046447  -0.616770
    O   O18   0.386648  0.065274  0.357019  -0.399368
    O   O19   0.335425  0.375211  0.166366  -0.450262
    O   O20   0.941092  0.564571  0.684997  -0.434314
    O   O21   0.819981  0.316572  0.565782  -0.458997
    O   O22   0.316675  0.958541  0.147582  -0.446198
    O   O23   0.895541  0.534023  0.967608  -0.605736
    O   O24   0.708498  0.918829  0.631616  -0.435817
    O   O25   0.270860  0.677762  0.384692  -0.436221
    O   O26   0.670968  0.777893  0.917309  -0.447460
    O   O27   0.619157  0.660377  0.106041  -0.430011
    O   O28   0.025912  0.816944  0.849117  -0.449506
    O   O29   0.750164  0.342173  0.823067  -0.423514
    O   O30   0.578712  0.433013  0.763441  -0.432870
    O   O31   0.377012  0.124013  0.572357  -0.398449
    O   O32   0.924668  0.462521  0.864250  -0.596110
    O   O33   0.060588  0.632775  0.032790  -0.513579
    O   O34   0.095794  0.530542  0.963835  -0.568459
    O   O35   0.108402  0.568432  0.138887  -0.626739
    O   O36   0.079694  0.434554  0.038636  -0.651471
    O   O37   0.547381  0.461762  0.398862  -0.560929
