# generated using pymatgen
data_Fe2H24C47(NO8)2
_symmetry_space_group_name_H-M   'P 1'
_cell_length_a   14.88918200
_cell_length_b   9.29985300
_cell_length_c   24.70058000
_cell_angle_alpha   94.62915400
_cell_angle_beta   104.83338200
_cell_angle_gamma   106.84113200
_symmetry_Int_Tables_number   1
_chemical_formula_structural   Fe2H24C47(NO8)2
_chemical_formula_sum   'Fe2 H24 C47 N2 O16'
_cell_volume   3119.78980796
_cell_formula_units_Z   1
loop_
 _symmetry_equiv_pos_site_id
 _symmetry_equiv_pos_as_xyz
  1  'x, y, z'
loop_
 _atom_site_type_symbol
 _atom_site_label
 _atom_site_symmetry_multiplicity
 _atom_site_fract_x
 _atom_site_fract_y
 _atom_site_fract_z
 _atom_site_occupancy
  Fe  Fe1  1  0.48708500  0.98936300  0.87337500  1
  Fe  Fe2  1  0.51787300  0.01710300  0.12304800  1
  H  H1  1  0.82520800  0.09651500  0.13844400  1
  H  H2  1  0.97977500  0.09978600  0.12093300  1
  H  H3  1  0.83500300  0.98272100  0.94276100  1
  H  H4  1  0.18031300  0.90298000  0.85829000  1
  H  H5  1  0.17097600  0.02775600  0.05328300  1
  H  H6  1  0.48619200  0.44110900  0.85096100  1
  H  H7  1  0.49360800  0.70324800  0.71710500  1
  H  H8  1  0.46374900  0.23139700  0.68659700  1
  H  H9  1  0.43663900  0.26723900  0.43859300  1
  H  H10  1  0.44045800  0.28523300  0.34303000  1
  H  H11  1  0.60087500  0.76189700  0.39381400  1
  H  H12  1  0.58277200  0.74879000  0.48672900  1
  H  H13  1  0.52244700  0.76845600  0.30627800  1
  H  H14  1  0.51768800  0.56464100  0.14582800  1
  H  H15  1  0.52729600  0.30933900  0.28147100  1
  H  H16  1  0.63251100  0.68471300  0.57014400  1
  H  H17  1  0.61572800  0.67324800  0.66455800  1
  H  H18  1  0.35633900  0.28968800  0.59935500  1
  H  H19  1  0.36531300  0.30858800  0.50359100  1
  H  H20  1  0.93299600  0.87188900  0.87252400  1
  H  H21  1  0.99314700  0.77416400  0.83565900  1
  H  H22  1  0.07684900  0.10436800  0.83588200  1
  H  H23  1  0.87782800  0.88749600  0.76211200  1
  H  H24  1  0.95098100  0.07457100  0.74818700  1
  C  C1  1  0.82723800  0.07408300  0.09522500  1
  C  C2  1  0.91428300  0.07438200  0.08551000  1
  C  C3  1  0.91745600  0.03589100  0.03120100  1
  C  C4  1  0.83337800  0.00558600  0.98596900  1
  C  C5  1  0.74563400  0.00677800  0.99527100  1
  C  C6  1  0.74201700  0.03559400  0.05072900  1
  C  C7  1  0.09019500  0.92682100  0.91042500  1
  C  C8  1  0.17792700  0.92827500  0.90128800  1
  C  C9  1  0.26332300  0.97014400  0.94568400  1
  C  C10  1  0.26002000  0.00195900  0.00095800  1
  C  C11  1  0.17207200  0.00240100  0.01009600  1
  C  C12  1  0.08725900  0.96837000  0.96494300  1
  C  C13  1  0.47098900  0.18054200  0.79294500  1
  C  C14  1  0.35588700  0.99428000  0.93186200  1
  C  C15  1  0.66066300  0.98494600  0.94541800  1
  C  C16  1  0.48862400  0.71596800  0.82616100  1
  C  C17  1  0.52177500  0.29300200  0.17163100  1
  C  C18  1  0.34553400  0.02642500  0.05079600  1
  C  C19  1  0.64931200  0.01155400  0.06445200  1
  C  C20  1  0.52708600  0.82326300  0.20338300  1
  C  C21  1  0.48776900  0.58608900  0.78795500  1
  C  C22  1  0.48852800  0.59657400  0.73255500  1
  C  C23  1  0.47981000  0.46905000  0.69606400  1
  C  C24  1  0.46973200  0.33091200  0.71487700  1
  C  C25  1  0.47560600  0.32296200  0.77110100  1
  C  C26  1  0.48486600  0.45032100  0.80746800  1
  C  C27  1  0.47033800  0.37793200  0.42919500  1
  C  C28  1  0.47526600  0.38737300  0.37450800  1
  C  C29  1  0.52104800  0.52505500  0.36031000  1
  C  C30  1  0.56178500  0.65289400  0.40225700  1
  C  C31  1  0.55402800  0.64441800  0.45641400  1
  C  C32  1  0.50832400  0.50678700  0.47067900  1
  C  C33  1  0.52444900  0.67086100  0.28044700  1
  C  C34  1  0.52211700  0.67998000  0.22475800  1
  C  C35  1  0.51858900  0.55520400  0.18925100  1
  C  C36  1  0.52080400  0.42201000  0.20964900  1
  C  C37  1  0.52326400  0.41275500  0.26562100  1
  C  C38  1  0.52347700  0.53642200  0.30129800  1
  C  C39  1  0.56914900  0.60035400  0.57499800  1
  C  C40  1  0.56041800  0.59357600  0.62904000  1
  C  C41  1  0.48483200  0.48112700  0.63818300  1
  C  C42  1  0.41659800  0.37726100  0.59272100  1
  C  C43  1  0.42284400  0.38733600  0.53830300  1
  C  C44  1  0.50000200  0.49794000  0.52881500  1
  C  C45  1  0.00092800  0.88465400  0.86015800  1
  C  C46  1  0.01220500  0.00387300  0.82326800  1
  C  C47  1  0.94273600  0.98759000  0.77490600  1
  N  N1  1  0.00699300  0.02868200  0.02323800  1
  N  N2  1  0.99812000  0.97605500  0.97350600  1
  O  O1  1  0.52140000  0.18598300  0.84564400  1
  O  O2  1  0.42881200  0.12078100  0.95492500  1
  O  O3  1  0.41139000  0.05056000  0.76176400  1
  O  O4  1  0.36065600  0.90363800  0.88979200  1
  O  O5  1  0.58268900  0.01738500  0.95031600  1
  O  O6  1  0.66689000  0.94803900  0.89444200  1
  O  O7  1  0.48789300  0.84529300  0.80862200  1
  O  O8  1  0.48730200  0.70210400  0.87843200  1
  O  O9  1  0.51792400  0.16114600  0.18815200  1
  O  O10  1  0.52516400  0.30826500  0.11976300  1
  O  O11  1  0.42308100  0.99230200  0.04603100  1
  O  O12  1  0.33985500  0.06585500  0.10169800  1
  O  O13  1  0.58524200  0.95250500  0.23569200  1
  O  O14  1  0.64493600  0.10071100  0.10709700  1
  O  O15  1  0.48103300  0.81954700  0.14999100  1
  O  O16  1  0.57573500  0.88639500  0.04056500  1
