# generated using pymatgen
data_CuH18C26NO6
_symmetry_space_group_name_H-M   'P 1'
_cell_length_a   14.46497600
_cell_length_b   15.04538600
_cell_length_c   14.44253900
_cell_angle_alpha   75.53214400
_cell_angle_beta   104.82173800
_cell_angle_gamma   115.04620200
_symmetry_Int_Tables_number   1
_chemical_formula_structural   CuH18C26NO6
_chemical_formula_sum   'Cu2 H36 C52 N2 O12'
_cell_volume   2716.65105636
_cell_formula_units_Z   2
loop_
 _symmetry_equiv_pos_site_id
 _symmetry_equiv_pos_as_xyz
  1  'x, y, z'
loop_
 _atom_site_type_symbol
 _atom_site_label
 _atom_site_symmetry_multiplicity
 _atom_site_fract_x
 _atom_site_fract_y
 _atom_site_fract_z
 _atom_site_occupancy
  Cu  Cu1  1  0.08283000  0.47553200  0.52635500  1
  Cu  Cu2  1  0.91722500  0.52472400  0.47384000  1
  H  H1  1  0.32304900  0.76236200  0.51874600  1
  H  H2  1  0.67752500  0.23788700  0.48143100  1
  H  H3  1  0.06291600  0.84108100  0.41654500  1
  H  H4  1  0.93729600  0.15887800  0.58326500  1
  H  H5  1  0.47323400  0.80932500  0.49661600  1
  H  H6  1  0.52703200  0.19149400  0.50191300  1
  H  H7  1  0.54585900  0.70702100  0.30902500  1
  H  H8  1  0.45524800  0.29486500  0.69199000  1
  H  H9  1  0.27682700  0.54679000  0.45635900  1
  H  H10  1  0.72276600  0.45265700  0.54231900  1
  H  H11  1  0.14363400  0.32278300  0.67453500  1
  H  H12  1  0.85611000  0.67710300  0.32472500  1
  H  H13  1  0.70743900  0.72561400  0.28158300  1
  H  H14  1  0.29146400  0.27295500  0.71624700  1
  H  H15  1  0.40480300  0.62801600  0.39210200  1
  H  H16  1  0.59562300  0.37244500  0.60795200  1
  H  H17  1  0.54728000  0.72143900  0.62660800  1
  H  H18  1  0.64036800  0.81338100  0.70012800  1
  H  H19  1  0.77731600  0.75602200  0.68477500  1
  H  H20  1  0.67474500  0.66094000  0.74626100  1
  H  H21  1  0.67551100  0.66038100  0.62138900  1
  H  H22  1  0.35825700  0.18560300  0.29953500  1
  H  H23  1  0.45237700  0.27796300  0.37205400  1
  H  H24  1  0.32388800  0.33829200  0.37942900  1
  H  H25  1  0.32608900  0.33995800  0.25437000  1
  H  H26  1  0.22255400  0.24388700  0.31412700  1
  H  H27  1  0.82213400  0.89834500  0.75626000  1
  H  H28  1  0.84616600  0.02775400  0.73679900  1
  H  H29  1  0.02515700  0.06852800  0.71007800  1
  H  H30  1  0.00126600  0.99268500  0.82683200  1
  H  H31  1  0.99781300  0.93704300  0.72779200  1
  H  H32  1  0.15235000  0.97004800  0.26323400  1
  H  H33  1  0.17794400  0.09996100  0.24254700  1
  H  H34  1  0.00292100  0.06319700  0.27238500  1
  H  H35  1  0.99815800  0.00736100  0.17296100  1
  H  H36  1  0.97431700  0.93140900  0.28979700  1
  C  C1  1  0.88079300  0.31479600  0.51937100  1
  C  C2  1  0.11953900  0.68570300  0.48112100  1
  C  C3  1  0.00307000  0.50075400  0.67842000  1
  C  C4  1  0.99695800  0.49941700  0.32179600  1
  C  C5  1  0.00401300  0.50052600  0.77815700  1
  C  C6  1  0.99613400  0.49976900  0.22220700  1
  C  C7  1  0.00324300  0.50033400  0.86147500  1
  C  C8  1  0.99708800  0.49991700  0.13899500  1
  C  C9  1  0.00121800  0.50003000  0.95886200  1
  C  C10  1  0.99914700  0.49992700  0.04178900  1
  C  C11  1  0.81262100  0.20880000  0.53209300  1
  C  C12  1  0.18773100  0.79152700  0.46855600  1
  C  C13  1  0.79118100  0.03824200  0.57908900  1
  C  C14  1  0.20901700  0.96188300  0.42083700  1
  C  C15  1  0.85440500  0.13769400  0.56582100  1
  C  C16  1  0.14583400  0.86247600  0.43441200  1
  C  C17  1  0.70631400  0.17988100  0.51186200  1
  C  C18  1  0.29402900  0.82032700  0.48849200  1
  C  C19  1  0.64018200  0.07960600  0.52294400  1
  C  C20  1  0.36005300  0.92060000  0.47713100  1
  C  C21  1  0.68388300  0.00838000  0.55153700  1
  C  C22  1  0.31627700  0.99174600  0.44857700  1
  C  C23  1  0.53166700  0.04974400  0.50197500  1
  C  C24  1  0.46858000  0.95061300  0.49794300  1
  C  C25  1  0.51556900  0.88346600  0.51305300  1
  C  C26  1  0.48467400  0.11700400  0.48641600  1
  C  C27  1  0.62022500  0.90939700  0.54596900  1
  C  C28  1  0.37989800  0.09075400  0.45401300  1
  C  C29  1  0.70788400  0.66396600  0.33902000  1
  C  C30  1  0.29138400  0.33515800  0.65936900  1
  C  C31  1  0.79151500  0.63697000  0.36324300  1
  C  C32  1  0.20806500  0.36270800  0.63576600  1
  C  C33  1  0.71383300  0.51057300  0.48464800  1
  C  C34  1  0.28580300  0.48907600  0.51427000  1
  C  C35  1  0.62652200  0.53474500  0.46225500  1
  C  C36  1  0.37308800  0.46484000  0.53653700  1
  C  C37  1  0.62596900  0.61351400  0.38874900  1
  C  C38  1  0.37371800  0.38619800  0.61017200  1
  C  C39  1  0.54140100  0.48425200  0.51175500  1
  C  C40  1  0.45839800  0.51548500  0.48726200  1
  C  C41  1  0.46296500  0.59689800  0.41412800  1
  C  C42  1  0.53734400  0.40343700  0.58548000  1
  C  C43  1  0.54497300  0.64404200  0.36531800  1
  C  C44  1  0.45541300  0.35661900  0.63444400  1
  C  C45  1  0.62963000  0.77193700  0.64207300  1
  C  C46  1  0.69366300  0.70832900  0.67595100  1
  C  C47  1  0.36987700  0.22757900  0.35742000  1
  C  C48  1  0.30622300  0.29146800  0.32398000  1
  C  C49  1  0.86505000  0.97184700  0.71643700  1
  C  C50  1  0.97993600  0.99414800  0.74720400  1
  C  C51  1  0.13458800  0.02704100  0.28297400  1
  C  C52  1  0.01987000  0.00566600  0.25262100  1
  N  N1  1  0.79277700  0.56058300  0.43463100  1
  N  N2  1  0.20769500  0.44029700  0.56515200  1
  O  O1  1  0.98123900  0.33945000  0.53352400  1
  O  O2  1  0.01904500  0.66110500  0.46640500  1
  O  O3  1  0.83875000  0.38100500  0.49532200  1
  O  O4  1  0.16156600  0.61953800  0.50503800  1
  O  O5  1  0.07599800  0.48334300  0.65716700  1
  O  O6  1  0.92413700  0.51696400  0.34297100  1
  O  O7  1  0.92887700  0.51830800  0.61292700  1
  O  O8  1  0.07147400  0.48247900  0.38714500  1
  O  O9  1  0.66064800  0.83863500  0.55830500  1
  O  O10  1  0.33942400  0.16143900  0.44160800  1
  O  O11  1  0.83683000  0.97049200  0.61625200  1
  O  O12  1  0.16343600  0.02960100  0.38295200  1
