# Generated by REPEAT Assigner based on pymatgen
data_DB0-m3_o12_o21_f0_pcu.sym.65_sqe
_audit_creation_date              2022-05-24
_audit_creation_method            REPEAT_Assigner
_cell_length_a                    9.975181
_cell_length_b                    11.199808
_cell_length_c                    14.031804
_cell_angle_alpha                 90.945914
_cell_angle_beta                  76.197094
_cell_angle_gamma                 92.449768
_cell_volume                      1520.941411
_symmetry_space_group_name_H-M    P1
_symmetry_Int_Tables_number       1
loop_
    _symmetry_equiv_pos_site_id
    _symmetry_equiv_pos_as_xyz
    1  x,y,z
loop_
    _atom_site_type_symbol
    _atom_site_label
    _atom_site_fract_x
    _atom_site_fract_y
    _atom_site_fract_z
    _atom_type_partial_charge
    O   O1   0.422493  0.689954  0.491610  -0.650631
    O   O2   0.569066  0.307814  0.503979  -0.648996
    O   O3   0.655011  0.656514  0.462473  -0.659478
    O   O4   0.336554  0.341253  0.533112  -0.659238
    C   C1   0.552446  0.728336  0.469238  0.711682
    C   C2   0.439114  0.269427  0.526348  0.709323
    O   O5   0.370038  0.537023  0.655103  -0.699325
    O   O6   0.621524  0.460743  0.340484  -0.697538
    O   O7   0.603022  0.503368  0.625790  -0.710229
    O   O8   0.388540  0.494401  0.369797  -0.710235
    C   C3   0.483921  0.526439  0.684938  0.972406
    C   C4   0.507641  0.471329  0.310649  0.970174
    Zn  Zn1  0.342296  0.520982  0.516966  1.068401
    Zn  Zn2  0.649266  0.476785  0.478622  1.065917
    N   N1   0.851135  0.447620  0.453841  -0.267765
    N   N2   0.140426  0.550144  0.541747  -0.270606
    H   H1   0.087268  0.611736  0.589888  0.253688
    H   H2   0.904294  0.386030  0.405699  0.252488
    C   C5   0.514350  0.462828  0.207469  -0.354859
    C   C6   0.477209  0.534942  0.788119  -0.355503
    C   C7   0.522058  0.454851  0.017880  -0.095281
    C   C8   0.469486  0.542918  0.977710  -0.097923
    C   C9   0.921780  0.508517  0.504254  0.090592
    C   C10  0.069779  0.489243  0.491338  0.093870
    C   C11  0.473174  0.539428  0.874619  0.065040
    C   C12  0.518377  0.458342  0.120970  0.064123
    H   H3   0.423916  0.617239  0.022628  0.162944
    H   H4   0.567629  0.380531  0.972962  0.162113
    H   H5   0.592206  0.104381  0.442244  0.087086
    H   H6   0.399514  0.893376  0.553486  0.089328
    C   C13  0.582049  0.857901  0.452211  -0.223554
    C   C14  0.409509  0.139854  0.543362  -0.223270
    C   C15  0.488413  0.932812  0.502578  -0.068172
    C   C16  0.503228  0.064952  0.493079  -0.064045
    H   H7   0.119922  0.423304  0.438938  0.146656
    H   H8   0.871636  0.574455  0.556656  0.146940
    C   C17  0.283002  0.090616  0.616628  0.123735
    C   C18  0.193642  0.183932  0.678264  0.112205
    C   C19  0.089063  0.122937  0.761361  -0.337058
    H   H9   0.026809  0.054340  0.731132  0.060386
    H   H10  0.142844  0.080196  0.811714  0.069111
    H   H11  0.019567  0.190474  0.802897  0.073716
    H   H12  0.258260  0.248274  0.710643  0.030474
    H   H13  0.135617  0.230645  0.632810  -0.001515
    H   H14  0.218065  0.035583  0.577217  0.018672
    H   H15  0.318118  0.033331  0.668877  0.021699
    C   C20  0.708435  0.907101  0.378814  0.124622
    C   C21  0.797541  0.813735  0.317034  0.108610
    C   C22  0.901920  0.874681  0.233797  -0.337158
    H   H16  0.847952  0.917460  0.183577  0.069150
    H   H17  0.964368  0.943240  0.263894  0.060558
    H   H18  0.971257  0.807106  0.192156  0.074069
    H   H19  0.855732  0.766965  0.362341  -0.000246
    H   H20  0.732710  0.749444  0.284793  0.031383
    H   H21  0.673199  0.964463  0.326672  0.022410
    H   H22  0.773577  0.962046  0.418127  0.019053
