# generated using pymatgen
data_ZnC18(OF2)4
_symmetry_space_group_name_H-M   'P 1'
_cell_length_a   30.16218900
_cell_length_b   30.16218900
_cell_length_c   30.16219000
_cell_angle_alpha   90.00000000
_cell_angle_beta   90.00000000
_cell_angle_gamma   90.00000000
_symmetry_Int_Tables_number   1
_chemical_formula_structural   ZnC18(OF2)4
_chemical_formula_sum   'Zn12 C216 O48 F96'
_cell_volume   27440.28295064
_cell_formula_units_Z   12
loop_
 _symmetry_equiv_pos_site_id
 _symmetry_equiv_pos_as_xyz
  1  'x, y, z'
loop_
 _atom_site_type_symbol
 _atom_site_label
 _atom_site_symmetry_multiplicity
 _atom_site_fract_x
 _atom_site_fract_y
 _atom_site_fract_z
 _atom_site_occupancy
  Zn  Zn1  1  0.94974200  0.49992500  0.50014100  1
  Zn  Zn2  1  0.05015900  0.50016500  0.49994400  1
  Zn  Zn3  1  0.50016400  0.49994700  0.05015800  1
  Zn  Zn4  1  0.49992500  0.50014200  0.94974100  1
  Zn  Zn5  1  0.50014200  0.94973900  0.49992300  1
  Zn  Zn6  1  0.49994600  0.05015700  0.50016700  1
  Zn  Zn7  1  0.44972800  0.99992400  0.00014200  1
  Zn  Zn8  1  0.55014700  0.00016400  0.99994500  1
  Zn  Zn9  1  0.00016100  0.99994500  0.55014700  1
  Zn  Zn10  1  0.99992300  0.00014300  0.44973000  1
  Zn  Zn11  1  0.00014300  0.44972900  0.99992300  1
  Zn  Zn12  1  0.99994300  0.55014800  0.00016100  1
  C  C1  1  0.00102600  0.41327200  0.50024200  1
  C  C2  1  0.99891800  0.49974400  0.41326900  1
  C  C3  1  0.99887900  0.58684800  0.49981600  1
  C  C4  1  0.00098000  0.50031800  0.58684600  1
  C  C5  1  0.41327100  0.50024300  0.00102400  1
  C  C6  1  0.50031700  0.58684800  0.00098000  1
  C  C7  1  0.58684800  0.49981800  0.99887900  1
  C  C8  1  0.49974400  0.41327000  0.99891600  1
  C  C9  1  0.49981600  0.99887800  0.58684800  1
  C  C10  1  0.58684700  0.00097700  0.50031800  1
  C  C11  1  0.50024300  0.00102100  0.41327200  1
  C  C12  1  0.41327000  0.99891500  0.49974400  1
  C  C13  1  0.50100500  0.91327000  0.00024300  1
  C  C14  1  0.49890900  0.99974500  0.91327000  1
  C  C15  1  0.49887300  0.08684700  0.99981900  1
  C  C16  1  0.50096200  0.00031500  0.08684700  1
  C  C17  1  0.91326900  0.00024300  0.50101000  1
  C  C18  1  0.00031400  0.08684800  0.50096300  1
  C  C19  1  0.08684500  0.99981800  0.49887100  1
  C  C20  1  0.99974400  0.91327100  0.49891100  1
  C  C21  1  0.99981700  0.49887300  0.08684500  1
  C  C22  1  0.08684700  0.50096100  0.00031300  1
  C  C23  1  0.00024200  0.50100800  0.91326900  1
  C  C24  1  0.91327000  0.49891300  0.99974300  1
  C  C25  1  0.02583000  0.46939000  0.15830200  1
  C  C26  1  0.02714000  0.84181200  0.47073600  1
  C  C27  1  0.02801700  0.52921200  0.84196500  1
  C  C28  1  0.02672600  0.15816300  0.53042500  1
  C  C29  1  0.97333600  0.52862600  0.15800500  1
  C  C30  1  0.97423300  0.15814800  0.47118800  1
  C  C31  1  0.97274300  0.47255900  0.84195900  1
  C  C32  1  0.97186400  0.84211700  0.52738600  1
  C  C33  1  0.47255900  0.84196000  0.97274300  1
  C  C34  1  0.84211700  0.52738600  0.97186200  1
  C  C35  1  0.52862500  0.15800500  0.97333700  1
  C  C36  1  0.15814800  0.47118600  0.97423300  1
  C  C37  1  0.52921100  0.84196700  0.02801800  1
  C  C38  1  0.15816300  0.53042600  0.02672300  1
  C  C39  1  0.46938800  0.15830300  0.02583000  1
  C  C40  1  0.84181100  0.47073700  0.02714000  1
  C  C41  1  0.84196500  0.02801500  0.52921500  1
  C  C42  1  0.53042300  0.02672600  0.15816400  1
  C  C43  1  0.15830300  0.02583300  0.46939300  1
  C  C44  1  0.47073400  0.02713700  0.84181100  1
  C  C45  1  0.84196000  0.97274700  0.47255600  1
  C  C46  1  0.52739000  0.97186600  0.84211800  1
  C  C47  1  0.15800400  0.97333400  0.52862300  1
  C  C48  1  0.47118800  0.97423000  0.15814700  1
  C  C49  1  0.52582400  0.96939500  0.65830500  1
  C  C50  1  0.52713100  0.34180800  0.97074200  1
  C  C51  1  0.52801200  0.02922500  0.34196400  1
  C  C52  1  0.52672900  0.65816600  0.03043500  1
  C  C53  1  0.47333000  0.02863200  0.65800600  1
  C  C54  1  0.47423500  0.65814400  0.97119700  1
  C  C55  1  0.47274400  0.97256600  0.34196400  1
  C  C56  1  0.47186400  0.34211800  0.02740100  1
  C  C57  1  0.97257000  0.34196400  0.47274300  1
  C  C58  1  0.34211700  0.02740300  0.47186800  1
  C  C59  1  0.02863700  0.65800600  0.47333300  1
  C  C60  1  0.65814400  0.97119900  0.47423000  1
  C  C61  1  0.02922600  0.34196500  0.52801500  1
  C  C62  1  0.65816600  0.03042900  0.52673200  1
  C  C63  1  0.96939600  0.65830600  0.52582100  1
  C  C64  1  0.34180900  0.97073600  0.52712800  1
  C  C65  1  0.34196400  0.52801700  0.02922300  1
  C  C66  1  0.03043400  0.52673000  0.65816600  1
  C  C67  1  0.65830600  0.52582200  0.96939500  1
  C  C68  1  0.97074100  0.52712900  0.34180800  1
  C  C69  1  0.34196400  0.47274300  0.97257000  1
  C  C70  1  0.02740200  0.47186400  0.34211600  1
  C  C71  1  0.65800600  0.47333500  0.02863800  1
  C  C72  1  0.97119900  0.47423400  0.65814300  1
  C  C73  1  0.99965900  0.49896100  0.13533800  1
  C  C74  1  0.99957400  0.86477900  0.49900900  1
  C  C75  1  0.00033300  0.50092800  0.86477700  1
  C  C76  1  0.00042900  0.13534100  0.50085700  1
  C  C77  1  0.50092700  0.86477800  0.00033400  1
  C  C78  1  0.86477800  0.49900900  0.99957300  1
  C  C79  1  0.49896000  0.13533900  0.99966000  1
  C  C80  1  0.13534000  0.50085700  0.00042800  1
  C  C81  1  0.86477700  0.00033300  0.50092900  1
  C  C82  1  0.50085600  0.00042900  0.13534000  1
  C  C83  1  0.13533900  0.99965900  0.49896000  1
  C  C84  1  0.49900900  0.99957400  0.86477800  1
  C  C85  1  0.49965200  0.99896500  0.63534100  1
  C  C86  1  0.49957000  0.36477800  0.99901800  1
  C  C87  1  0.50032900  0.00094200  0.36477900  1
  C  C88  1  0.50043100  0.63534000  0.00087000  1
  C  C89  1  0.00094400  0.36477900  0.50033100  1
  C  C90  1  0.36477800  0.99901600  0.49957000  1
  C  C91  1  0.99896900  0.63534100  0.49965300  1
  C  C92  1  0.63534000  0.00086800  0.50043100  1
  C  C93  1  0.36477900  0.50033200  0.00094200  1
  C  C94  1  0.00087100  0.50043100  0.63533900  1
  C  C95  1  0.63534100  0.49965500  0.99896900  1
  C  C96  1  0.99901800  0.49956900  0.36477700  1
  C  C97  1  0.97253800  0.52832400  0.20393600  1
  C  C98  1  0.97109700  0.79618400  0.52706500  1
  C  C99  1  0.97221300  0.47290100  0.79602300  1
  C  C100  1  0.97368100  0.20408400  0.47149000  1
  C  C101  1  0.02635000  0.46991000  0.20423800  1
  C  C102  1  0.02749100  0.20409500  0.52990600  1
  C  C103  1  0.02875200  0.52868100  0.79603400  1
  C  C104  1  0.02763900  0.79587800  0.47129000  1
  C  C105  1  0.52868000  0.79603500  0.02875400  1
  C  C106  1  0.79587700  0.47129100  0.02763900  1
  C  C107  1  0.46990800  0.20423900  0.02634900  1
  C  C108  1  0.20409500  0.52990800  0.02748800  1
  C  C109  1  0.47290200  0.79602400  0.97221300  1
  C  C110  1  0.20408300  0.47148900  0.97368200  1
  C  C111  1  0.52832300  0.20393600  0.97253900  1
  C  C112  1  0.79618400  0.52706500  0.97109500  1
  C  C113  1  0.79602400  0.97221700  0.47289700  1
  C  C114  1  0.47149000  0.97367800  0.20408300  1
  C  C115  1  0.20393600  0.97253500  0.52832100  1
  C  C116  1  0.52706900  0.97109800  0.79618400  1
  C  C117  1  0.79603400  0.02875000  0.52868300  1
  C  C118  1  0.47128800  0.02763500  0.79587700  1
  C  C119  1  0.20424000  0.02635200  0.46991400  1
  C  C120  1  0.52990400  0.02749000  0.20409600  1
  C  C121  1  0.47253200  0.02833100  0.70393800  1
  C  C122  1  0.47109300  0.29618300  0.02707900  1
  C  C123  1  0.47221300  0.97290300  0.29602800  1
  C  C124  1  0.47368300  0.70407900  0.97149500  1
  C  C125  1  0.52634200  0.96991500  0.70424100  1
  C  C126  1  0.52749100  0.70409800  0.02991200  1
  C  C127  1  0.52874800  0.02868700  0.29603300  1
  C  C128  1  0.52762700  0.29587500  0.97129600  1
  C  C129  1  0.02868800  0.29603300  0.52875100  1
  C  C130  1  0.29587500  0.97129000  0.52762500  1
  C  C131  1  0.96991500  0.70424200  0.52633800  1
  C  C132  1  0.70409700  0.02990700  0.52749400  1
  C  C133  1  0.97290700  0.29602900  0.47221300  1
  C  C134  1  0.70408000  0.97149700  0.47367700  1
  C  C135  1  0.02833600  0.70393800  0.47253300  1
  C  C136  1  0.29618300  0.02708100  0.47109800  1
  C  C137  1  0.29602800  0.47221200  0.97290800  1
  C  C138  1  0.97149600  0.47368100  0.70407800  1
  C  C139  1  0.70393800  0.47253600  0.02833700  1
  C  C140  1  0.02708000  0.47109400  0.29618200  1
  C  C141  1  0.29603200  0.52875300  0.02868600  1
  C  C142  1  0.97129500  0.52762700  0.29587500  1
  C  C143  1  0.70424100  0.52633800  0.96991400  1
  C  C144  1  0.02991100  0.52749200  0.70409700  1
  C  C145  1  0.99937900  0.49917600  0.22707200  1
  C  C146  1  0.99930500  0.77304600  0.49924000  1
  C  C147  1  0.00053700  0.50074100  0.77304400  1
  C  C148  1  0.00064000  0.22707500  0.50064300  1
  C  C149  1  0.50074100  0.77304400  0.00053800  1
  C  C150  1  0.77304500  0.49924000  0.99930400  1
  C  C151  1  0.49917400  0.22707300  0.99937900  1
  C  C152  1  0.22707400  0.50064300  0.00064000  1
  C  C153  1  0.77304400  0.00053700  0.50074000  1
  C  C154  1  0.50064200  0.00063800  0.22707500  1
  C  C155  1  0.22707300  0.99937700  0.49917600  1
  C  C156  1  0.49924100  0.99930400  0.77304500  1
  C  C157  1  0.49937000  0.99918100  0.72707500  1
  C  C158  1  0.49929600  0.27304400  0.99925000  1
  C  C159  1  0.50053400  0.00074300  0.27304500  1
  C  C160  1  0.50063900  0.72707400  0.00064700  1
  C  C161  1  0.00074600  0.27304600  0.50053500  1
  C  C162  1  0.27304400  0.99924800  0.49929800  1
  C  C163  1  0.99918400  0.72707500  0.49936900  1
  C  C164  1  0.72707400  0.00064600  0.50063800  1
  C  C165  1  0.27304500  0.50053600  0.00074500  1
  C  C166  1  0.00064700  0.50063900  0.72707300  1
  C  C167  1  0.72707500  0.49937000  0.99918400  1
  C  C168  1  0.99925000  0.49929700  0.27304300  1
  C  C169  1  0.94503600  0.55690600  0.22698400  1
  C  C170  1  0.94227300  0.77313500  0.55431400  1
  C  C171  1  0.94351000  0.44566100  0.77281400  1
  C  C172  1  0.94630500  0.22728000  0.44290600  1
  C  C173  1  0.05371200  0.44144000  0.22759200  1
  C  C174  1  0.05497400  0.22730000  0.55838100  1
  C  C175  1  0.05756100  0.55582400  0.77284200  1
  C  C176  1  0.05633200  0.77252500  0.44416100  1
  C  C177  1  0.55582200  0.77284200  0.05756400  1
  C  C178  1  0.77252500  0.44416300  0.05633300  1
  C  C179  1  0.44143700  0.22759300  0.05371100  1
  C  C180  1  0.22729900  0.55838400  0.05497100  1
  C  C181  1  0.44566200  0.77281500  0.94350900  1
  C  C182  1  0.22728000  0.44290400  0.94630700  1
  C  C183  1  0.55690600  0.22698300  0.94503700  1
  C  C184  1  0.77313500  0.55431300  0.94227000  1
  C  C185  1  0.77281600  0.94351600  0.44565300  1
  C  C186  1  0.44290800  0.94629900  0.22727900  1
  C  C187  1  0.22698300  0.94502900  0.55690200  1
  C  C188  1  0.55432100  0.94227600  0.77313600  1
  C  C189  1  0.77284100  0.05755600  0.55582900  1
  C  C190  1  0.44415700  0.05632400  0.77252400  1
  C  C191  1  0.22759400  0.05371700  0.44144600  1
  C  C192  1  0.55837600  0.05497500  0.22730100  1
  C  C193  1  0.44503100  0.05691600  0.72698500  1
  C  C194  1  0.44227200  0.27313400  0.05433200  1
  C  C195  1  0.44351200  0.94565700  0.27282200  1
  C  C196  1  0.44630700  0.72727200  0.94290800  1
  C  C197  1  0.55370200  0.94144400  0.72759500  1
  C  C198  1  0.55497400  0.72730500  0.05838500  1
  C  C199  1  0.55755700  0.05582700  0.27283700  1
  C  C200  1  0.55631600  0.27252200  0.94416300  1
  C  C201  1  0.05582700  0.27283700  0.55756100  1
  C  C202  1  0.27252200  0.94415400  0.55631100  1
  C  C203  1  0.94144100  0.72759500  0.55369500  1
  C  C204  1  0.72730400  0.05837600  0.55498100  1
  C  C205  1  0.94566300  0.27282300  0.44351100  1
  C  C206  1  0.72727300  0.94291500  0.44629700  1
  C  C207  1  0.05692400  0.72698600  0.44503600  1
  C  C208  1  0.27313500  0.05433800  0.44228100  1
  C  C209  1  0.27282300  0.44350800  0.94566600  1
  C  C210  1  0.94290900  0.44630500  0.72727100  1
  C  C211  1  0.72698500  0.44503800  0.05692500  1
  C  C212  1  0.05433300  0.44227400  0.27313300  1
  C  C213  1  0.27283600  0.55756400  0.05582300  1
  C  C214  1  0.94416200  0.55631500  0.27252300  1
  C  C215  1  0.72759500  0.55369400  0.94143900  1
  C  C216  1  0.05838200  0.55497600  0.72730500  1
  O  O1  1  0.96281600  0.43402200  0.49860800  1
  O  O2  1  0.96065500  0.50146100  0.43386600  1
  O  O3  1  0.96059200  0.56622700  0.49960000  1
  O  O4  1  0.96275200  0.50050400  0.56607100  1
  O  O5  1  0.03711700  0.56609100  0.50013800  1
  O  O6  1  0.03711900  0.49824500  0.43404500  1
  O  O7  1  0.03927900  0.43389400  0.50185500  1
  O  O8  1  0.03927700  0.49999900  0.56624300  1
  O  O9  1  0.43389300  0.50185800  0.03927700  1
  O  O10  1  0.49999600  0.56624600  0.03927700  1
  O  O11  1  0.56609000  0.50014200  0.03711600  1
  O  O12  1  0.49824500  0.43404800  0.03711700  1
  O  O13  1  0.56622700  0.49960000  0.96059200  1
  O  O14  1  0.50050400  0.56607100  0.96275200  1
  O  O15  1  0.43402200  0.49860700  0.96281500  1
  O  O16  1  0.50146100  0.43386500  0.96065300  1
  O  O17  1  0.49960000  0.96059200  0.56622400  1
  O  O18  1  0.56607100  0.96274900  0.50050000  1
  O  O19  1  0.49860900  0.96281100  0.43402000  1
  O  O20  1  0.43386600  0.96065200  0.50145600  1
  O  O21  1  0.50185800  0.03927400  0.43389600  1
  O  O22  1  0.56624400  0.03927400  0.50000400  1
  O  O23  1  0.50013800  0.03711700  0.56609300  1
  O  O24  1  0.43404600  0.03711600  0.49824900  1
  O  O25  1  0.46279600  0.93402000  0.99861000  1
  O  O26  1  0.46064700  0.00145800  0.93386700  1
  O  O27  1  0.46058600  0.06622400  0.99960500  1
  O  O28  1  0.46273300  0.00049800  0.06607300  1
  O  O29  1  0.53711100  0.06609000  0.00013600  1
  O  O30  1  0.53711100  0.99824800  0.93404500  1
  O  O31  1  0.53925800  0.93389300  0.00185400  1
  O  O32  1  0.53925800  0.00000000  0.06624300  1
  O  O33  1  0.93389000  0.00185300  0.53926400  1
  O  O34  1  0.99999500  0.06624200  0.53925900  1
  O  O35  1  0.06608700  0.00013600  0.53710800  1
  O  O36  1  0.99824300  0.93404400  0.53711300  1
  O  O37  1  0.06622400  0.99960600  0.46058300  1
  O  O38  1  0.00050000  0.06607400  0.46273300  1
  O  O39  1  0.93402000  0.99861100  0.46280100  1
  O  O40  1  0.00145900  0.93386800  0.46064800  1
  O  O41  1  0.99960800  0.46058500  0.06622400  1
  O  O42  1  0.06607400  0.46273100  0.00049900  1
  O  O43  1  0.99861300  0.46279800  0.93401900  1
  O  O44  1  0.93386900  0.46065100  0.00145800  1
  O  O45  1  0.00185000  0.53926100  0.93389000  1
  O  O46  1  0.06624000  0.53925600  0.99999600  1
  O  O47  1  0.00013100  0.53711000  0.06608700  1
  O  O48  1  0.93404200  0.53711500  0.99824300  1
  F  F1  1  0.91814800  0.58584000  0.20557800  1
  F  F2  1  0.91403600  0.79454200  0.58193200  1
  F  F3  1  0.91516900  0.41802800  0.79406300  1
  F  F4  1  0.91931200  0.20602000  0.41396300  1
  F  F5  1  0.08071300  0.41239000  0.20648800  1
  F  F6  1  0.08186800  0.20605100  0.58742400  1
  F  F7  1  0.08579800  0.58355500  0.79410200  1
  F  F8  1  0.08467800  0.79362700  0.41642000  1
  F  F9  1  0.58355100  0.79410200  0.08580200  1
  F  F10  1  0.79362600  0.41642400  0.08468000  1
  F  F11  1  0.41238700  0.20649000  0.08071200  1
  F  F12  1  0.20605000  0.58742900  0.08186200  1
  F  F13  1  0.41803000  0.79406300  0.91516700  1
  F  F14  1  0.20602100  0.41395900  0.91931600  1
  F  F15  1  0.58584000  0.20557700  0.91815100  1
  F  F16  1  0.79454200  0.58193000  0.91403400  1
  F  F17  1  0.79406500  0.91517800  0.41801800  1
  F  F18  1  0.41396600  0.91930600  0.20601900  1
  F  F19  1  0.20557600  0.91814100  0.58583400  1
  F  F20  1  0.58194100  0.91404200  0.79454300  1
  F  F21  1  0.79410000  0.08579000  0.58356300  1
  F  F22  1  0.41641200  0.08466800  0.79362500  1
  F  F23  1  0.20649200  0.08072300  0.41240100  1
  F  F24  1  0.58741800  0.08187100  0.20605300  1
  F  F25  1  0.41814700  0.08585200  0.70557900  1
  F  F26  1  0.41404100  0.29454200  0.08195500  1
  F  F27  1  0.41517400  0.91802300  0.29407300  1
  F  F28  1  0.41931700  0.70600800  0.91396500  1
  F  F29  1  0.58070400  0.91239400  0.70649300  1
  F  F30  1  0.58186800  0.70606000  0.08743000  1
  F  F31  1  0.58579300  0.08356000  0.29409400  1
  F  F32  1  0.58465900  0.29362200  0.91641900  1
  F  F33  1  0.08356000  0.29409300  0.58579900  1
  F  F34  1  0.29362200  0.91640700  0.58465100  1
  F  F35  1  0.91238900  0.70649300  0.58069500  1
  F  F36  1  0.70605900  0.08741700  0.58188000  1
  F  F37  1  0.91803200  0.29407500  0.41517000  1
  F  F38  1  0.70601000  0.91397600  0.41930200  1
  F  F39  1  0.08586400  0.70557900  0.41815500  1
  F  F40  1  0.29454300  0.08196500  0.41405400  1
  F  F41  1  0.29407500  0.41516700  0.91803500  1
  F  F42  1  0.91396600  0.41931400  0.70600700  1
  F  F43  1  0.70557900  0.41815900  0.08586600  1
  F  F44  1  0.08195600  0.41404200  0.29454000  1
  F  F45  1  0.29409300  0.58580500  0.08355300  1
  F  F46  1  0.91641700  0.58465600  0.29362400  1
  F  F47  1  0.70649300  0.58069300  0.91238600  1
  F  F48  1  0.08742600  0.58187200  0.70606100  1
  F  F49  1  0.05227800  0.44129500  0.13526900  1
  F  F50  1  0.05491300  0.86484000  0.44394500  1
  F  F51  1  0.05566800  0.55599500  0.86514800  1
  F  F52  1  0.05304800  0.13498900  0.55852200  1
  F  F53  1  0.94702100  0.55660700  0.13468200  1
  F  F54  1  0.94779200  0.13496600  0.44320800  1
  F  F55  1  0.94499100  0.44587000  0.86513200  1
  F  F56  1  0.94423400  0.86544500  0.55406600  1
  F  F57  1  0.44587100  0.86513100  0.94498900  1
  F  F58  1  0.86544500  0.55406500  0.94423100  1
  F  F59  1  0.55660600  0.13468100  0.94702300  1
  F  F60  1  0.13496700  0.44320400  0.94779300  1
  F  F61  1  0.55599400  0.86515000  0.05567000  1
  F  F62  1  0.13498800  0.55852400  0.05304400  1
  F  F63  1  0.44129200  0.13527000  0.05227700  1
  F  F64  1  0.86483900  0.44394700  0.05491400  1
  F  F65  1  0.86514700  0.05566400  0.55600200  1
  F  F66  1  0.55851800  0.05305100  0.13499000  1
  F  F67  1  0.13527100  0.05228500  0.44130000  1
  F  F68  1  0.44394000  0.05490900  0.86483700  1
  F  F69  1  0.86513300  0.94499800  0.44586500  1
  F  F70  1  0.55407100  0.94423900  0.86544700  1
  F  F71  1  0.13467900  0.94701700  0.55660100  1
  F  F72  1  0.44320800  0.94778900  0.13496500  1
  F  F73  1  0.55227800  0.94130500  0.63527300  1
  F  F74  1  0.55490400  0.36483300  0.94394800  1
  F  F75  1  0.55566400  0.05601000  0.36514400  1
  F  F76  1  0.55305400  0.63499500  0.05853100  1
  F  F77  1  0.44702000  0.05661600  0.63468200  1
  F  F78  1  0.44779600  0.63495900  0.94321900  1
  F  F79  1  0.44499800  0.94587200  0.36513900  1
  F  F80  1  0.44424300  0.36544700  0.05408800  1
  F  F81  1  0.94587800  0.36513900  0.44499600  1
  F  F82  1  0.36544700  0.05409300  0.44425000  1
  F  F83  1  0.05662200  0.63468100  0.44702400  1
  F  F84  1  0.63495900  0.94322400  0.44778700  1
  F  F85  1  0.05601100  0.36514500  0.55566700  1
  F  F86  1  0.63499500  0.05852200  0.55306100  1
  F  F87  1  0.94130200  0.63527500  0.55227200  1
  F  F88  1  0.36483400  0.94393900  0.55489700  1
  F  F89  1  0.36514400  0.55566900  0.05600800  1
  F  F90  1  0.05852900  0.55305800  0.63499500  1
  F  F91  1  0.63527400  0.55227100  0.94129900  1
  F  F92  1  0.94394800  0.55490200  0.36483400  1
  F  F93  1  0.36513900  0.44499400  0.94588000  1
  F  F94  1  0.05409200  0.44424500  0.36544500  1
  F  F95  1  0.63468000  0.44702600  0.05662200  1
  F  F96  1  0.94322100  0.44779400  0.63495700  1
