# Generated by REPEAT Assigner based on pymatgen
data_DB0-m3_o1_o2_f0_nbo.sym.22
_audit_creation_date              2022-05-24
_audit_creation_method            REPEAT_Assigner
_cell_length_a                    21.873958
_cell_length_b                    21.874265
_cell_length_c                    30.514414
_cell_angle_alpha                 90.000000
_cell_angle_beta                  90.000000
_cell_angle_gamma                 90.000000
_cell_volume                      14600.438149
_symmetry_space_group_name_H-M    P1
_symmetry_Int_Tables_number       1
loop_
    _symmetry_equiv_pos_site_id
    _symmetry_equiv_pos_as_xyz
    1  x,y,z
loop_
    _atom_site_type_symbol
    _atom_site_label
    _atom_site_fract_x
    _atom_site_fract_y
    _atom_site_fract_z
    _atom_type_partial_charge
    O   O1    0.090960  0.448653  0.499630  -0.686288
    O   O2    0.448869  0.908847  0.501057  -0.680773
    O   O3    0.908898  0.551007  0.500894  -0.679941
    O   O4    0.551351  0.090858  0.499335  -0.686377
    O   O5    0.091120  0.553985  0.501335  -0.670898
    O   O6    0.446050  0.091064  0.500848  -0.670720
    O   O7    0.908742  0.445704  0.498648  -0.666393
    O   O8    0.554208  0.908635  0.498993  -0.666168
    O   O9    0.591235  0.946016  0.000630  -0.665322
    O   O10   0.945987  0.408930  0.998919  -0.671668
    O   O11   0.408836  0.054291  0.999397  -0.672352
    O   O12   0.054152  0.591356  0.001244  -0.666668
    O   O13   0.591051  0.051348  0.998409  -0.681961
    O   O14   0.948811  0.591150  0.999217  -0.681574
    O   O15   0.409014  0.948998  0.001069  -0.686581
    O   O16   0.051289  0.409139  0.000398  -0.687722
    C   C1    0.119684  0.501287  0.500564  0.866735
    C   C2    0.501492  0.880114  0.500021  0.857100
    C   C3    0.880161  0.498387  0.499682  0.857383
    C   C4    0.498740  0.119639  0.500094  0.867014
    C   C5    0.619769  0.998713  0.999385  0.860388
    C   C6    0.998682  0.380356  0.999589  0.869160
    C   C7    0.380246  0.001616  0.000374  0.870101
    C   C8    0.001436  0.619880  0.000303  0.859642
    O   O17   0.999385  0.445651  0.434758  -0.716021
    O   O18   0.449259  0.000993  0.434769  -0.736804
    O   O19   0.001523  0.550738  0.434894  -0.736386
    O   O20   0.554352  0.998838  0.434745  -0.717468
    O   O21   0.000859  0.554041  0.565498  -0.718293
    O   O22   0.445870  0.001249  0.565371  -0.720082
    O   O23   0.997958  0.448920  0.565356  -0.740148
    O   O24   0.550998  0.998319  0.565345  -0.742061
    O   O25   0.501011  0.949080  0.934660  -0.740043
    O   O26   0.945747  0.499100  0.934650  -0.718724
    O   O27   0.498116  0.054207  0.934488  -0.719415
    O   O28   0.050874  0.502042  0.934644  -0.741504
    O   O29   0.499449  0.051228  0.065090  -0.736114
    O   O30   0.949266  0.498638  0.065250  -0.736419
    O   O31   0.501569  0.946135  0.065267  -0.716058
    O   O32   0.054358  0.500806  0.065239  -0.716250
    C   C9    0.281635  0.539296  0.528932  0.281521
    C   C10   0.540624  0.717877  0.526561  0.279968
    C   C11   0.717845  0.457908  0.525191  0.283683
    C   C12   0.459408  0.281650  0.527570  0.282877
    C   C13   0.281650  0.462501  0.472894  0.278444
    C   C14   0.538884  0.281743  0.473492  0.275223
    C   C15   0.718451  0.539808  0.473018  0.278837
    C   C16   0.461274  0.718532  0.472394  0.273278
    C   C17   0.781683  0.038823  0.026076  0.278331
    C   C18   0.038850  0.218273  0.026196  0.276473
    C   C19   0.218489  0.961457  0.028025  0.266530
    C   C20   0.961237  0.781489  0.027918  0.265999
    C   C21   0.781680  0.959395  0.971968  0.279677
    C   C22   0.040582  0.782094  0.973747  0.281110
    C   C23   0.217881  0.040857  0.973893  0.277822
    C   C24   0.959369  0.218319  0.972123  0.277084
    C   C25   0.000656  0.498221  0.414064  0.739341
    C   C26   0.501812  0.999956  0.413996  0.739533
    C   C27   0.999210  0.501449  0.586153  0.750035
    C   C28   0.498431  0.999762  0.586083  0.753797
    C   C29   0.499444  0.001588  0.913849  0.749062
    C   C30   0.998292  0.500724  0.913922  0.750001
    C   C31   0.500615  0.998739  0.085939  0.740465
    C   C32   0.001835  0.499553  0.086006  0.738811
    Zn  Zn1   0.000095  0.430753  0.500267  1.279169
    Zn  Zn2   0.431027  0.999710  0.499859  1.279068
    Zn  Zn3   0.999757  0.568920  0.499987  1.277511
    Zn  Zn4   0.569212  0.999990  0.500258  1.280344
    Zn  Zn5   0.499861  0.931072  0.999783  1.278406
    Zn  Zn6   0.930969  0.500280  0.000174  1.278961
    Zn  Zn7   0.500210  0.069255  0.999968  1.279271
    Zn  Zn8   0.069152  0.500010  0.999716  1.279820
    C   C33   0.186700  0.501160  0.500707  -0.260922
    C   C34   0.501308  0.813123  0.499798  -0.248717
    C   C35   0.813118  0.498521  0.499406  -0.237278
    C   C36   0.498870  0.186705  0.500238  -0.259017
    C   C37   0.686762  0.998852  0.999228  -0.252991
    C   C38   0.998834  0.313289  0.999417  -0.261008
    C   C39   0.313179  0.001496  0.000660  -0.265175
    C   C40   0.001271  0.686872  0.000550  -0.252919
    C   C41   0.218233  0.539609  0.528716  0.156795
    C   C42   0.541079  0.781273  0.526640  0.154895
    C   C43   0.781242  0.457535  0.525312  0.145243
    C   C44   0.459165  0.218251  0.527359  0.154100
    C   C45   0.218257  0.462544  0.472833  0.160907
    C   C46   0.538769  0.218341  0.473320  0.161673
    C   C47   0.781847  0.539694  0.473272  0.151042
    C   C48   0.461336  0.781918  0.472716  0.162129
    C   C49   0.718295  0.038848  0.026091  0.162421
    C   C50   0.038733  0.281671  0.026345  0.161694
    C   C51   0.281891  0.961642  0.027822  0.168937
    C   C52   0.961298  0.718097  0.027620  0.169561
    C   C53   0.718282  0.959021  0.972230  0.156941
    C   C54   0.041035  0.718702  0.973691  0.154241
    C   C55   0.281282  0.041164  0.973724  0.158096
    C   C56   0.959121  0.281723  0.972314  0.157838
    C   C57   0.026065  0.547004  0.297306  -0.532521
    C   C58   0.550084  0.975079  0.297062  -0.528390
    C   C59   0.976855  0.449971  0.297021  -0.528910
    C   C60   0.453050  0.024291  0.297125  -0.532402
    C   C61   0.022812  0.452469  0.702957  -0.532254
    C   C62   0.547280  0.024675  0.702775  -0.535572
    C   C63   0.974316  0.549907  0.702946  -0.527764
    C   C64   0.449831  0.976201  0.702988  -0.529781
    C   C65   0.522986  0.049775  0.796861  -0.526540
    C   C66   0.047118  0.476823  0.797120  -0.531987
    C   C67   0.474497  0.952336  0.797240  -0.533307
    C   C68   0.949665  0.525289  0.797124  -0.525751
    C   C69   0.525786  0.950734  0.202895  -0.525137
    C   C70   0.050253  0.523464  0.203014  -0.529830
    C   C71   0.476588  0.047774  0.202785  -0.528528
    C   C72   0.953216  0.474257  0.202803  -0.532038
    H   H1    0.044390  0.585818  0.279836  0.172955
    H   H2    0.588784  0.956776  0.279450  0.171711
    H   H3    0.958727  0.411260  0.279330  0.171454
    H   H4    0.414225  0.042444  0.279576  0.172997
    H   H5    0.040727  0.413586  0.720574  0.172371
    H   H6    0.586152  0.042770  0.720311  0.173001
    H   H7    0.956246  0.588718  0.720564  0.171431
    H   H8    0.411000  0.958329  0.720688  0.171837
    H   H9    0.540896  0.088528  0.779095  0.171389
    H   H10   0.085997  0.458892  0.779505  0.172634
    H   H11   0.456427  0.913394  0.779772  0.172958
    H   H12   0.910837  0.543320  0.779503  0.171403
    H   H13   0.544095  0.912053  0.220525  0.171126
    H   H14   0.088978  0.541612  0.220678  0.171879
    H   H15   0.458452  0.086622  0.220316  0.171682
    H   H16   0.914415  0.455956  0.220300  0.172986
    C   C73   0.027071  0.546654  0.342609  0.421130
    C   C74   0.550005  0.973980  0.342364  0.416107
    C   C75   0.975322  0.450062  0.342313  0.417404
    C   C76   0.453412  0.025731  0.342418  0.418544
    C   C77   0.024141  0.452713  0.657667  0.422447
    C   C78   0.547079  0.025502  0.657480  0.424110
    C   C79   0.973424  0.549844  0.657644  0.415979
    C   C80   0.449936  0.974806  0.657692  0.417596
    C   C81   0.524315  0.049863  0.842155  0.412959
    C   C82   0.046915  0.475588  0.842410  0.418821
    C   C83   0.473603  0.952731  0.842539  0.418795
    C   C84   0.949767  0.526276  0.842428  0.412722
    C   C85   0.526823  0.950737  0.157592  0.417564
    C   C86   0.050108  0.524956  0.157717  0.418120
    C   C87   0.475085  0.047336  0.157495  0.421148
    C   C88   0.953513  0.473209  0.157505  0.420022
    C   C89   0.001030  0.498311  0.365627  -0.241152
    C   C90   0.501767  0.999920  0.365558  -0.237982
    C   C91   0.998903  0.501330  0.634538  -0.241713
    C   C92   0.498487  0.999996  0.634469  -0.243548
    C   C93   0.499105  0.001402  0.865464  -0.236349
    C   C94   0.998319  0.500877  0.865536  -0.237053
    C   C95   0.500843  0.998930  0.134377  -0.243301
    C   C96   0.001835  0.499219  0.134444  -0.240096
    C   C97   0.001557  0.498568  0.274203  0.296849
    C   C98   0.501486  0.999583  0.274133  0.298040
    C   C99   0.998488  0.501155  0.725886  0.296236
    C   C100  0.498579  0.000595  0.725816  0.298868
    C   C101  0.498666  0.000916  0.774117  0.297733
    C   C102  0.998414  0.501097  0.774188  0.296530
    C   C103  0.501299  0.999363  0.225800  0.291742
    C   C104  0.001688  0.498758  0.225869  0.296983
    O   O33   0.497838  0.408561  0.538698  -0.686964
    O   O34   0.408617  0.499421  0.538889  -0.690774
    O   O35   0.499529  0.591031  0.536906  -0.702576
    O   O36   0.591083  0.497688  0.536715  -0.698417
    O   O37   0.501220  0.591514  0.461292  -0.689125
    O   O38   0.408782  0.501548  0.463294  -0.706741
    O   O39   0.501186  0.409039  0.463140  -0.701366
    O   O40   0.591253  0.501471  0.461139  -0.684293
    O   O41   0.001100  0.908631  0.038846  -0.689338
    O   O42   0.908672  0.998649  0.036683  -0.704847
    O   O43   0.001073  0.091100  0.036726  -0.702011
    O   O44   0.091140  0.998727  0.038888  -0.687029
    O   O45   0.997769  0.091281  0.961162  -0.685729
    O   O46   0.908553  0.000364  0.961065  -0.687662
    O   O47   0.999458  0.908817  0.963227  -0.703698
    O   O48   0.091015  0.002104  0.963328  -0.701418
    C   C105  0.499434  0.380194  0.500837  0.803753
    C   C106  0.380107  0.500640  0.501071  0.817782
    C   C107  0.500496  0.619835  0.499181  0.810372
    C   C108  0.619740  0.499380  0.498945  0.794275
    C   C109  0.000402  0.880162  0.001009  0.812552
    C   C110  0.880051  0.999352  0.998886  0.812542
    C   C111  0.999344  0.119795  0.998972  0.801316
    C   C112  0.119683  0.000614  0.001098  0.800454
    C   C113  0.313138  0.500817  0.500975  -0.339528
    C   C114  0.500798  0.686753  0.499392  -0.334077
    C   C115  0.686680  0.499001  0.499030  -0.337256
    C   C116  0.499228  0.313208  0.500622  -0.341850
    C   C117  0.813132  0.999187  0.998963  -0.338246
    C   C118  0.999193  0.186784  0.999082  -0.338997
    C   C119  0.186672  0.001008  0.001029  -0.333006
    C   C120  0.000761  0.813243  0.000904  -0.331903
    Zn  Zn9   0.500128  0.499996  0.549645  1.282009
    Zn  Zn10  0.499755  0.500057  0.450374  1.282955
    Zn  Zn11  0.999637  0.000123  0.049630  1.283364
    Zn  Zn12  0.000073  0.999812  0.950351  1.281659
    N   N1    0.056769  0.595449  0.365246  -0.600133
    H   H17   0.095969  0.577545  0.379992  0.269199
    H   H18   0.070870  0.628302  0.342633  0.249041
    N   N2    0.598946  0.944243  0.364812  -0.606214
    H   H19   0.581168  0.904944  0.379498  0.271486
    H   H20   0.631719  0.930304  0.342087  0.251392
    N   N3    0.945375  0.401121  0.364617  -0.605467
    H   H21   0.905931  0.418895  0.379106  0.270348
    H   H22   0.931660  0.368340  0.341828  0.251919
    N   N4    0.404615  0.055641  0.364910  -0.599354
    H   H23   0.422513  0.094986  0.379458  0.268124
    H   H24   0.371752  0.069515  0.342231  0.249692
    N   N5    0.053453  0.403598  0.635131  -0.601988
    H   H25   0.092884  0.421086  0.620448  0.267259
    H   H26   0.067131  0.370657  0.657814  0.250657
    N   N6    0.596217  0.054569  0.634806  -0.601181
    H   H27   0.578741  0.093836  0.619891  0.266207
    H   H28   0.629133  0.068498  0.657429  0.250511
    N   N7    0.944386  0.599073  0.635055  -0.606184
    H   H29   0.905134  0.581661  0.620082  0.268408
    H   H30   0.930437  0.631896  0.657740  0.252750
    N   N8    0.400717  0.945544  0.635240  -0.607807
    H   H31   0.418127  0.906122  0.620499  0.269441
    H   H32   0.367864  0.931860  0.657986  0.253431
    N   N9    0.553582  0.099162  0.864512  -0.608146
    H   H33   0.593022  0.081812  0.879266  0.269953
    H   H34   0.567240  0.131947  0.841708  0.253605
    N   N10   0.096059  0.446332  0.864950  -0.598329
    H   H35   0.078591  0.406935  0.879692  0.265931
    H   H36   0.128976  0.432603  0.842265  0.249609
    N   N11   0.444525  0.903684  0.865305  -0.600285
    H   H37   0.405279  0.921229  0.880206  0.266387
    H   H38   0.430563  0.870704  0.842741  0.250451
    N   N12   0.900550  0.555340  0.865012  -0.607490
    H   H39   0.917958  0.594634  0.879927  0.269588
    H   H40   0.867694  0.569219  0.842328  0.253200
    N   N13   0.556501  0.901748  0.135158  -0.607046
    H   H41   0.595755  0.919498  0.120391  0.270859
    H   H42   0.570514  0.869033  0.157903  0.252049
    N   N14   0.099021  0.554876  0.135364  -0.607141
    H   H43   0.081224  0.594295  0.120855  0.271369
    H   H44   0.131821  0.568629  0.158127  0.252094
    N   N15   0.445131  0.096092  0.134987  -0.600213
    H   H45   0.405736  0.078176  0.120520  0.268224
    H   H46   0.431335  0.129015  0.157646  0.249262
    N   N16   0.904684  0.443488  0.134919  -0.598692
    H   H47   0.922561  0.404260  0.120196  0.267806
    H   H48   0.871847  0.429433  0.157559  0.248943
    N   N17   0.184924  0.577701  0.558230  -0.586541
    H   H49   0.196410  0.623233  0.552198  0.245799
    H   H50   0.196898  0.566119  0.590277  0.232827
    N   N18   0.580706  0.814254  0.555288  -0.599044
    H   H51   0.625873  0.802712  0.548022  0.248261
    H   H52   0.570736  0.801999  0.587558  0.238509
    N   N19   0.814157  0.416707  0.553123  -0.598675
    H   H53   0.802688  0.371864  0.544842  0.247684
    H   H54   0.801813  0.425279  0.585582  0.240220
    N   N20   0.419807  0.184997  0.556043  -0.585900
    H   H55   0.374551  0.196436  0.548984  0.245333
    H   H56   0.429993  0.197018  0.588323  0.233130
    N   N21   0.184994  0.424655  0.443157  -0.583275
    H   H57   0.196171  0.379055  0.449221  0.245127
    H   H58   0.197299  0.436198  0.411167  0.229817
    N   N22   0.577988  0.185194  0.444476  -0.585636
    H   H59   0.623294  0.196308  0.451636  0.244394
    H   H60   0.567920  0.197639  0.412259  0.232151
    N   N23   0.815386  0.580261  0.445646  -0.599491
    H   H61   0.804162  0.625194  0.453847  0.247962
    H   H62   0.803356  0.571760  0.413118  0.239352
    N   N24   0.422043  0.815554  0.444221  -0.597933
    H   H63   0.376765  0.804298  0.451359  0.248610
    H   H64   0.432000  0.803615  0.411888  0.236962
    N   N25   0.685004  0.078251  0.054715  -0.597013
    H   H65   0.696250  0.123496  0.047465  0.247602
    H   H66   0.697263  0.068353  0.086996  0.236305
    N   N26   0.077930  0.314834  0.055197  -0.583266
    H   H67   0.123242  0.303723  0.048056  0.244278
    H   H68   0.067838  0.302408  0.087414  0.230728
    N   N27   0.315406  0.922528  0.056522  -0.587139
    H   H69   0.304264  0.877193  0.049484  0.245067
    H   H70   0.303319  0.932663  0.088799  0.231996
    N   N28   0.921981  0.684479  0.056108  -0.599592
    H   H71   0.876710  0.695737  0.048949  0.248236
    H   H72   0.931913  0.696440  0.088442  0.237005
    N   N29   0.684951  0.919409  0.943780  -0.600103
    H   H73   0.696511  0.874235  0.951005  0.248285
    H   H74   0.696880  0.929334  0.911440  0.239104
    N   N30   0.080632  0.685705  0.945031  -0.596786
    H   H75   0.125807  0.697243  0.952270  0.247788
    H   H76   0.070628  0.697940  0.912762  0.237788
    N   N31   0.314163  0.080535  0.944830  -0.585353
    H   H77   0.302759  0.125783  0.951943  0.244849
    H   H78   0.301777  0.070317  0.912626  0.232917
    N   N32   0.919729  0.314963  0.943645  -0.587600
    H   H79   0.874484  0.303517  0.950731  0.245537
    H   H80   0.929881  0.302925  0.911362  0.233688
    N   N33   0.315023  0.579858  0.556653  -0.591449
    H   H81   0.303559  0.570797  0.589207  0.242395
    H   H82   0.303107  0.624745  0.548820  0.242502
    N   N34   0.582339  0.684082  0.553122  -0.593528
    H   H83   0.574848  0.695269  0.585929  0.244260
    H   H84   0.626876  0.695933  0.544273  0.242679
    N   N35   0.684097  0.414862  0.550676  -0.579820
    H   H85   0.695213  0.420767  0.583662  0.240016
    H   H86   0.696010  0.370800  0.540720  0.238676
    N   N36   0.417434  0.314969  0.554239  -0.579301
    H   H87   0.424879  0.303539  0.587009  0.239475
    H   H88   0.372979  0.303017  0.545253  0.238168
    N   N37   0.315031  0.421715  0.445336  -0.590760
    H   H89   0.303893  0.430804  0.412728  0.243925
    H   H90   0.302801  0.376905  0.453146  0.241372
    N   N38   0.581090  0.315141  0.447063  -0.577643
    H   H91   0.573653  0.304127  0.414220  0.239982
    H   H92   0.625463  0.302852  0.456027  0.237751
    N   N39   0.685331  0.583118  0.447342  -0.576734
    H   H93   0.696765  0.577121  0.414420  0.237979
    H   H94   0.697484  0.627085  0.457365  0.239035
    N   N40   0.419326  0.685412  0.445584  -0.587181
    H   H95   0.426979  0.696925  0.412854  0.242196
    H   H96   0.374873  0.697535  0.454460  0.240985
    N   N41   0.815135  0.080798  0.052652  -0.586903
    H   H97   0.803942  0.073259  0.085452  0.241959
    H   H98   0.802995  0.125243  0.043770  0.240574
    N   N42   0.081047  0.184900  0.052649  -0.573950
    H   H99   0.073590  0.195934  0.085487  0.238755
    H   H100  0.125423  0.197189  0.043695  0.235808
    N   N43   0.185448  0.919270  0.054698  -0.577018
    H   H101  0.196818  0.926806  0.087468  0.240177
    H   H102  0.197703  0.874893  0.045723  0.237997
    N   N44   0.919275  0.814634  0.054699  -0.588701
    H   H103  0.926905  0.803143  0.087436  0.243121
    H   H104  0.874827  0.802509  0.045812  0.242421
    N   N45   0.815149  0.917637  0.945230  -0.593316
    H   H105  0.803635  0.925148  0.912483  0.243226
    H   H106  0.803323  0.873117  0.954136  0.243736
    N   N46   0.082284  0.815861  0.947156  -0.591636
    H   H107  0.074764  0.804653  0.914355  0.243134
    H   H108  0.126826  0.804009  0.955990  0.242515
    N   N47   0.184211  0.082785  0.947413  -0.578532
    H   H109  0.195278  0.075351  0.914579  0.239767
    H   H110  0.196206  0.127257  0.956329  0.237867
    N   N48   0.917385  0.184973  0.945480  -0.580494
    H   H111  0.924803  0.196386  0.912705  0.240372
    H   H112  0.872934  0.196921  0.954479  0.238850
