# generated using pymatgen
data_Fe2H13C37N5O16
_symmetry_space_group_name_H-M   'P 1'
_cell_length_a   14.46139600
_cell_length_b   16.63741700
_cell_length_c   13.20027100
_cell_angle_alpha   103.88445100
_cell_angle_beta   86.98351400
_cell_angle_gamma   64.64661400
_symmetry_Int_Tables_number   1
_chemical_formula_structural   Fe2H13C37N5O16
_chemical_formula_sum   'Fe2 H13 C37 N5 O16'
_cell_volume   2742.18285496
_cell_formula_units_Z   1
loop_
 _symmetry_equiv_pos_site_id
 _symmetry_equiv_pos_as_xyz
  1  'x, y, z'
loop_
 _atom_site_type_symbol
 _atom_site_label
 _atom_site_symmetry_multiplicity
 _atom_site_fract_x
 _atom_site_fract_y
 _atom_site_fract_z
 _atom_site_occupancy
  Fe  Fe1  1  0.49344700  0.01596100  0.27817500  1
  Fe  Fe2  1  0.50737700  0.98956600  0.72046700  1
  H  H1  1  0.13343800  0.01685700  0.19013900  1
  H  H2  1  0.15437300  0.98277500  0.85741500  1
  H  H3  1  0.85191300  0.01338500  0.13781200  1
  H  H4  1  0.42036200  0.94295000  0.00329500  1
  H  H5  1  0.58504500  0.05285600  0.99380000  1
  H  H6  1  0.97531100  0.05960900  0.11339800  1
  H  H7  1  0.03240500  0.93610700  0.88474400  1
  H  H8  1  0.22283400  0.27294900  0.42743000  1
  H  H9  1  0.05897500  0.43107500  0.74246800  1
  H  H10  1  0.17634400  0.31006000  0.80942800  1
  H  H11  1  0.92967300  0.56683200  0.25449600  1
  H  H12  1  0.81361100  0.68891400  0.18805100  1
  H  H13  1  0.77250300  0.72867800  0.57070300  1
  C  C1  1  0.28322100  0.97557500  0.10440500  1
  C  C2  1  0.17946500  0.99703000  0.11297800  1
  C  C3  1  0.13423900  0.99302100  0.02347400  1
  C  C4  1  0.19133500  0.97647400  0.92602300  1
  C  C5  1  0.29441900  0.95903200  0.91827200  1
  C  C6  1  0.34103500  0.95365600  0.00681500  1
  C  C7  1  0.02330200  0.01557800  0.03700000  1
  C  C8  1  0.98227700  0.98194400  0.95943900  1
  C  C9  1  0.82418600  0.00276100  0.88296700  1
  C  C10  1  0.72080600  0.02256800  0.89253400  1
  C  C11  1  0.66397800  0.04331500  0.99019000  1
  C  C12  1  0.71109700  0.03823700  0.07832900  1
  C  C13  1  0.81447600  0.02010400  0.06955100  1
  C  C14  1  0.87097600  0.00461500  0.97207900  1
  C  C15  1  0.65399400  0.03876900  0.17429600  1
  C  C16  1  0.65512600  0.85219200  0.29449100  1
  C  C17  1  0.32783000  0.99490200  0.19842000  1
  C  C18  1  0.35705800  0.12773500  0.46717400  1
  C  C19  1  0.64071800  0.87488700  0.53144300  1
  C  C20  1  0.67579000  0.00205800  0.79924400  1
  C  C21  1  0.33935200  0.14969900  0.70404100  1
  C  C22  1  0.35150800  0.95979200  0.82321800  1
  C  C23  1  0.27937200  0.21064200  0.54832600  1
  C  C24  1  0.21310000  0.28182500  0.51168700  1
  C  C25  1  0.13307800  0.36105200  0.57975100  1
  C  C26  1  0.12073400  0.36982600  0.68687100  1
  C  C27  1  0.18772300  0.30015000  0.72495600  1
  C  C28  1  0.26785500  0.21976900  0.65710900  1
  C  C29  1  0.93020800  0.56551200  0.45980500  1
  C  C30  1  0.06133400  0.43381900  0.53755800  1
  C  C31  1  0.86970500  0.62912900  0.31046100  1
  C  C32  1  0.80339700  0.69938100  0.27266000  1
  C  C33  1  0.72577100  0.78122500  0.34101300  1
  C  C34  1  0.71587100  0.79095000  0.44992300  1
  C  C35  1  0.78110600  0.71916100  0.48630500  1
  C  C36  1  0.85890800  0.63864800  0.41779000  1
  C  C37  1  0.88170300  0.98184300  0.77999700  1
  N  N1  1  0.98260000  0.51108100  0.60321500  1
  N  N2  1  0.91799100  0.57607800  0.56477600  1
  N  N3  1  0.00888600  0.48821100  0.39412600  1
  N  N4  1  0.07352500  0.42322500  0.43257400  1
  N  N5  1  0.92789700  0.96506500  0.69706900  1
  O  O1  1  0.55648700  0.05538000  0.17525100  1
  O  O2  1  0.66849900  0.83744200  0.19136100  1
  O  O3  1  0.70304700  0.00861600  0.24857600  1
  O  O4  1  0.57782200  0.92934600  0.35499600  1
  O  O5  1  0.42732000  0.94331400  0.19576600  1
  O  O6  1  0.27857600  0.07752200  0.26723900  1
  O  O7  1  0.40458900  0.13823200  0.38733900  1
  O  O8  1  0.36402900  0.04556500  0.46253400  1
  O  O9  1  0.59093000  0.86617700  0.61107100  1
  O  O10  1  0.63873600  0.95547400  0.53693800  1
  O  O11  1  0.57928100  0.05907100  0.79755400  1
  O  O12  1  0.71672300  0.91558200  0.73962700  1
  O  O13  1  0.30492600  0.98159800  0.74414400  1
  O  O14  1  0.42236300  0.07700200  0.64483300  1
  O  O15  1  0.44493200  0.95323000  0.82747800  1
  O  O16  1  0.32168400  0.16147900  0.80636900  1
