# generated using pymatgen
data_CuH16C23SN3O4
_symmetry_space_group_name_H-M   'P 1'
_cell_length_a   10.90260600
_cell_length_b   15.54724300
_cell_length_c   17.01340200
_cell_angle_alpha   96.35342700
_cell_angle_beta   89.99287300
_cell_angle_gamma   92.86009500
_symmetry_Int_Tables_number   1
_chemical_formula_structural   CuH16C23SN3O4
_chemical_formula_sum   'Cu2 H32 C46 S2 N6 O8'
_cell_volume   2862.53995474
_cell_formula_units_Z   2
loop_
 _symmetry_equiv_pos_site_id
 _symmetry_equiv_pos_as_xyz
  1  'x, y, z'
loop_
 _atom_site_type_symbol
 _atom_site_label
 _atom_site_symmetry_multiplicity
 _atom_site_fract_x
 _atom_site_fract_y
 _atom_site_fract_z
 _atom_site_occupancy
  Cu  Cu1  1  0.49268800  0.41338700  0.49592500  1
  Cu  Cu2  1  0.50861500  0.58617400  0.50258900  1
  H  H1  1  0.27455000  0.86653400  0.67272800  1
  H  H2  1  0.72272600  0.13290500  0.32849500  1
  H  H3  1  0.26804400  0.73327200  0.73842900  1
  H  H4  1  0.73361100  0.26446800  0.26020500  1
  H  H5  1  0.17193600  0.59849100  0.67158700  1
  H  H6  1  0.83189500  0.39932800  0.32536500  1
  H  H7  1  0.18602700  0.86485300  0.53976400  1
  H  H8  1  0.80970800  0.13628100  0.46201600  1
  H  H9  1  0.89044100  0.62737200  0.55025100  1
  H  H10  1  0.11105700  0.37230800  0.44742600  1
  H  H11  1  0.49183100  0.37900500  0.74175600  1
  H  H12  1  0.51186300  0.62053700  0.25705700  1
  H  H13  1  0.49140900  0.38651700  0.88290400  1
  H  H14  1  0.51240600  0.61313300  0.11588800  1
  H  H15  1  0.48444500  0.33569400  0.09948500  1
  H  H16  1  0.52094000  0.66394100  0.89918700  1
  H  H17  1  0.48403100  0.34365800  0.24330700  1
  H  H18  1  0.52137200  0.65590700  0.75540200  1
  H  H19  1  0.60987700  0.28353200  0.58276300  1
  H  H20  1  0.38880900  0.71581900  0.41781900  1
  H  H21  1  0.59988900  0.12835600  0.58151500  1
  H  H22  1  0.39054900  0.87142700  0.42353100  1
  H  H23  1  0.65622800  0.88993700  0.61100000  1
  H  H24  1  0.32964100  0.11060500  0.39664000  1
  H  H25  1  0.65039300  0.73131500  0.60117700  1
  H  H26  1  0.34422800  0.26897300  0.40201300  1
  H  H27  1  0.85753000  0.76718900  0.42915700  1
  H  H28  1  0.95980000  0.86145500  0.45651000  1
  H  H29  1  0.92050800  0.78625900  0.52778500  1
  H  H30  1  0.14193000  0.23164300  0.57028500  1
  H  H31  1  0.07883700  0.21308300  0.47167700  1
  H  H32  1  0.03781200  0.13840200  0.54310600  1
  C  C1  1  0.49796900  0.48850200  0.34738100  1
  C  C2  1  0.50494400  0.51108100  0.65128500  1
  C  C3  1  0.26453900  0.50271000  0.50196200  1
  C  C4  1  0.73681400  0.49682800  0.49642300  1
  C  C5  1  0.22884600  0.73250300  0.67999100  1
  C  C6  1  0.77201900  0.26598000  0.31895400  1
  C  C7  1  0.17519400  0.65684200  0.64233300  1
  C  C8  1  0.82692600  0.34170000  0.35566100  1
  C  C9  1  0.12514400  0.65559000  0.56760700  1
  C  C10  1  0.87607800  0.34388100  0.43072400  1
  C  C11  1  0.12823300  0.73075300  0.53088100  1
  C  C12  1  0.87124900  0.26951700  0.46865700  1
  C  C13  1  0.18227200  0.80630100  0.56872400  1
  C  C14  1  0.81527100  0.19407700  0.43197900  1
  C  C15  1  0.23222400  0.80723900  0.64325400  1
  C  C16  1  0.76610600  0.19221400  0.35714300  1
  C  C17  1  0.93803500  0.57125100  0.52599500  1
  C  C18  1  0.06341500  0.42843500  0.47162400  1
  C  C19  1  0.87230700  0.49647400  0.49600500  1
  C  C20  1  0.12909000  0.50311400  0.50191900  1
  C  C21  1  0.93664700  0.42409800  0.46848500  1
  C  C22  1  0.06478500  0.57556400  0.52923200  1
  C  C23  1  0.49798000  0.48274800  0.26072800  1
  C  C24  1  0.50665100  0.51681200  0.73798600  1
  C  C25  1  0.50582900  0.55736100  0.22329800  1
  C  C26  1  0.49855500  0.44220200  0.77546700  1
  C  C27  1  0.50610000  0.55269700  0.14186100  1
  C  C28  1  0.49830000  0.44692100  0.85691000  1
  C  C29  1  0.49841300  0.47257200  0.09674700  1
  C  C30  1  0.50634900  0.52707700  0.90200600  1
  C  C31  1  0.49051900  0.39830600  0.13429000  1
  C  C32  1  0.51472400  0.60131600  0.86441800  1
  C  C33  1  0.49031500  0.40305600  0.21571000  1
  C  C34  1  0.51494600  0.59651500  0.78300300  1
  C  C35  1  0.44860700  0.75448000  0.46003000  1
  C  C36  1  0.54810100  0.24514800  0.54160600  1
  C  C37  1  0.44992100  0.84360300  0.46380200  1
  C  C38  1  0.54213000  0.15617900  0.54036700  1
  C  C39  1  0.52527900  0.89349000  0.51847000  1
  C  C40  1  0.46435900  0.10647500  0.48699400  1
  C  C41  1  0.59741100  0.85220800  0.56759800  1
  C  C42  1  0.39214300  0.14799400  0.43807400  1
  C  C43  1  0.59392200  0.76295400  0.56200200  1
  C  C44  1  0.40049100  0.23711300  0.44110100  1
  C  C45  1  0.93958900  0.79237600  0.46459300  1
  C  C46  1  0.05945400  0.20728700  0.53489400  1
  S  S1  1  0.07000000  0.72951900  0.43238300  1
  S  S2  1  0.93039600  0.27164800  0.56702300  1
  N  N1  1  0.49844900  0.46432300  0.01303900  1
  N  N2  1  0.50624000  0.53537200  0.98572400  1
  N  N3  1  0.52107100  0.71546900  0.50815500  1
  N  N4  1  0.48065600  0.28410900  0.49081200  1
  N  N5  1  0.53057400  0.98517100  0.52563200  1
  N  N6  1  0.45758800  0.01479600  0.48056200  1
  O  O1  1  0.49472800  0.41682400  0.38141700  1
  O  O2  1  0.51412600  0.58260400  0.61716200  1
  O  O3  1  0.50900600  0.56533200  0.38752200  1
  O  O4  1  0.50057700  0.43423800  0.61105700  1
  O  O5  1  0.31562500  0.42765800  0.49517900  1
  O  O6  1  0.68579600  0.57202500  0.50360100  1
  O  O7  1  0.32965100  0.57620100  0.50640700  1
  O  O8  1  0.67174200  0.42318400  0.49188600  1
