# generated using pymatgen
data_CdH10C16(NO2)2
_symmetry_space_group_name_H-M   'P 1'
_cell_length_a   8.86313100
_cell_length_b   12.56334300
_cell_length_c   13.47141900
_cell_angle_alpha   90.47030300
_cell_angle_beta   91.43403200
_cell_angle_gamma   107.38728200
_symmetry_Int_Tables_number   1
_chemical_formula_structural   CdH10C16(NO2)2
_chemical_formula_sum   'Cd2 H20 C32 N4 O8'
_cell_volume   1430.86590298
_cell_formula_units_Z   2
loop_
 _symmetry_equiv_pos_site_id
 _symmetry_equiv_pos_as_xyz
  1  'x, y, z'
loop_
 _atom_site_type_symbol
 _atom_site_label
 _atom_site_symmetry_multiplicity
 _atom_site_fract_x
 _atom_site_fract_y
 _atom_site_fract_z
 _atom_site_occupancy
  Cd  Cd1  1  0.09313700  0.16183200  0.99687500  1
  Cd  Cd2  1  0.90725000  0.83939000  0.00275800  1
  H  H1  1  0.65722100  0.80096800  0.83965000  1
  H  H2  1  0.66018800  0.80026100  0.65939600  1
  H  H3  1  0.15844900  0.86026700  0.67352400  1
  H  H4  1  0.15139700  0.86057400  0.85474600  1
  H  H5  1  0.67122800  0.73970900  0.33194500  1
  H  H6  1  0.67712400  0.74343800  0.15085500  1
  H  H7  1  0.16123300  0.92599000  0.16586500  1
  H  H8  1  0.15928100  0.92387100  0.34616000  1
  H  H9  1  0.76375500  0.10677300  0.15606900  1
  H  H10  1  0.77179100  0.09911700  0.33671400  1
  H  H11  1  0.27233500  0.17617300  0.33251000  1
  H  H12  1  0.25874900  0.18106100  0.15182500  1
  H  H13  1  0.80029100  0.10262200  0.66891700  1
  H  H14  1  0.82541900  0.11550500  0.84983800  1
  H  H15  1  0.32206500  0.20856700  0.83356400  1
  H  H16  1  0.30123500  0.19644700  0.65342000  1
  H  H17  1  0.37856300  0.88354700  0.00314900  1
  H  H18  1  0.61965900  0.11592100  0.99311000  1
  H  H19  1  0.17883900  0.56161100  0.99340200  1
  H  H20  1  0.82325400  0.43985500  0.99981000  1
  C  C1  1  0.08422400  0.37859400  0.99399400  1
  C  C2  1  0.91745100  0.62276700  0.00051500  1
  C  C3  1  0.30719600  0.03695200  0.99708500  1
  C  C4  1  0.69243000  0.96335900  0.00213200  1
  C  C5  1  0.76911700  0.81680700  0.80428000  1
  C  C6  1  0.76977600  0.81511000  0.70192700  1
  C  C7  1  0.90986600  0.83191600  0.65412500  1
  C  C8  1  0.04734900  0.84853200  0.70979100  1
  C  C9  1  0.04297300  0.84980200  0.81215600  1
  C  C10  1  0.91292600  0.83172800  0.45801700  1
  C  C11  1  0.91187900  0.83144200  0.54751800  1
  C  C12  1  0.77962200  0.78238800  0.29571600  1
  C  C13  1  0.78316800  0.78578100  0.19337400  1
  C  C14  1  0.05141000  0.88697500  0.20129700  1
  C  C15  1  0.05149400  0.88498700  0.30363700  1
  C  C16  1  0.91448200  0.83315600  0.35141600  1
  C  C17  1  0.87559000  0.11679000  0.19400500  1
  C  C18  1  0.87984400  0.11431300  0.29629800  1
  C  C19  1  0.02244200  0.13462400  0.34673100  1
  C  C20  1  0.15880300  0.15752900  0.29392400  1
  C  C21  1  0.15058600  0.15905000  0.19161000  1
  C  C22  1  0.03732000  0.14070200  0.54265800  1
  C  C23  1  0.02970800  0.13724500  0.45323500  1
  C  C24  1  0.91604400  0.12392200  0.70494300  1
  C  C25  1  0.93080400  0.12994300  0.80722700  1
  C  C26  1  0.20616600  0.18153100  0.79849800  1
  C  C27  1  0.19519200  0.17620200  0.69630700  1
  C  C28  1  0.04924000  0.14597800  0.64906600  1
  C  C29  1  0.42182700  0.97365400  0.99911100  1
  C  C30  1  0.57675600  0.02582300  0.99737600  1
  C  C31  1  0.07150300  0.49200700  0.99483600  1
  C  C32  1  0.93055900  0.50948200  0.99841300  1
  N  N1  1  0.90527400  0.83626300  0.85847300  1
  N  N2  1  0.91733100  0.83970300  0.14710100  1
  N  N3  1  0.00977600  0.13700900  0.14258900  1
  N  N4  1  0.07471300  0.15561800  0.85307200  1
  O  O1  1  0.95753400  0.29241200  0.99538400  1
  O  O2  1  0.22322800  0.36239100  0.99246200  1
  O  O3  1  0.04388800  0.70928000  0.00123000  1
  O  O4  1  0.77814500  0.63846000  0.00190400  1
  O  O5  1  0.35484700  0.14595300  0.99574800  1
  O  O6  1  0.15554600  0.98441300  0.99862100  1
  O  O7  1  0.64601400  0.85462300  0.00753100  1
  O  O8  1  0.84404500  0.01660200  0.00159000  1
