# Generated by REPEAT Assigner based on pymatgen
data_DB0-m9_o11_o24_f0_sra.sym.16
_audit_creation_date              2022-05-24
_audit_creation_method            REPEAT_Assigner
_cell_length_a                    6.330882
_cell_length_b                    13.147692
_cell_length_c                    15.857496
_cell_angle_alpha                 90.640374
_cell_angle_beta                  89.944139
_cell_angle_gamma                 90.007324
_cell_volume                      1319.839120
_symmetry_space_group_name_H-M    P1
_symmetry_Int_Tables_number       1
loop_
    _symmetry_equiv_pos_site_id
    _symmetry_equiv_pos_as_xyz
    1  x,y,z
loop_
    _atom_site_type_symbol
    _atom_site_label
    _atom_site_fract_x
    _atom_site_fract_y
    _atom_site_fract_z
    _atom_type_partial_charge
    O  O1   0.466751  0.464058  0.382671  -0.576837
    O  O2   0.840762  0.444296  0.611333  -0.630335
    O  O3   0.049063  0.610770  0.553114  -0.370653
    C  C1   0.666820  0.391799  0.610987  0.605200
    O  O4   0.751648  0.382402  0.443692  -0.511408
    O  O5   0.966863  0.549495  0.386336  -0.563084
    C  C2   0.633422  0.404031  0.376801  0.500206
    O  O6   0.549315  0.386553  0.543455  -0.454970
    O  O7   0.654005  0.579335  0.500510  -0.671706
    V  V1   0.928203  0.488720  0.498052  1.532608
    O  O8   0.251390  0.624567  0.454549  -0.442127
    C  C3   0.134969  0.608844  0.385982  0.581196
    O  O9   0.340703  0.546457  0.615910  -0.537802
    C  C4   0.168916  0.600795  0.619627  0.562727
    V  V2   0.428217  0.513414  0.499227  1.506071
    O  O10  0.153829  0.422967  0.493752  -0.655085
    C  C5   0.978031  0.686883  0.754766  -0.089750
    C  C6   0.146619  0.703512  0.822718  -0.312493
    H  H1   0.152602  0.667339  0.885514  0.109291
    H  H2   0.839594  0.635612  0.759856  0.161262
    C  C7   0.139052  0.817128  0.806825  0.273973
    C  C8   0.969515  0.801796  0.740279  -0.356058
    C  C9   0.144309  0.790657  0.675911  0.566000
    C  C10  0.313958  0.809082  0.741302  -0.354650
    C  C11  0.315471  0.695661  0.755711  0.688582
    C  C12  0.151614  0.677928  0.689008  -0.132848
    H  H3   0.825691  0.849004  0.732915  0.118607
    H  H4   0.453357  0.859565  0.735238  0.086491
    C  C13  0.959669  0.704769  0.280089  0.159126
    C  C14  0.137609  0.686397  0.321324  -0.314205
    H  H5   0.817338  0.663763  0.296779  0.105374
    H  H6   0.277021  0.732402  0.311110  0.155479
    C  C15  0.949068  0.784860  0.217326  -0.383116
    C  C16  0.119317  0.811918  0.174141  0.339833
    H  H7   0.797604  0.818385  0.202087  0.201555
    C  C17  0.805332  0.201908  0.777703  -0.078710
    C  C18  0.627622  0.182239  0.818988  -0.220012
    H  H8   0.947867  0.160601  0.793474  0.111640
    H  H9   0.488489  0.228688  0.809786  0.126347
    C  C19  0.816129  0.284330  0.716682  0.234162
    C  C20  0.645426  0.313255  0.674590  0.074639
    C  C21  0.795472  0.210106  0.209784  0.723763
    C  C22  0.614038  0.164873  0.189430  -0.734410
    H  H10  0.477661  0.175886  0.229719  0.228965
    C  C23  0.803652  0.279426  0.283305  -0.609358
    C  C24  0.632816  0.333020  0.304822  0.379534
    H  H11  0.950552  0.290599  0.317253  0.190310
    O  O11  0.796604  0.043793  0.883681  -0.592259
    O  O12  0.421082  0.041858  0.113007  -0.602204
    O  O13  0.213386  0.881761  0.041484  -0.430074
    C  C25  0.594925  0.094225  0.117619  0.784212
    O  O14  0.512133  0.119164  0.951672  -0.538880
    O  O15  0.296716  0.958015  0.880062  -0.560016
    C  C26  0.629412  0.103795  0.883232  0.624127
    O  O16  0.713626  0.105964  0.050710  -0.321794
    O  O17  0.608964  0.917843  0.991585  -0.700330
    V  V3   0.334618  0.008212  0.996441  1.531431
    O  O18  0.011852  0.876660  0.942207  -0.393232
    C  C27  0.133463  0.895374  0.875683  0.452369
    O  O19  0.921700  0.939942  0.109106  -0.695687
    C  C28  0.096649  0.888358  0.109210  0.471526
    V  V4   0.834768  0.983535  0.995628  1.507145
    O  O20  0.109114  0.074184  0.997440  -0.614800
    O  O21  0.307842  0.762935  0.185322  -0.429345
    H  H12  0.398390  0.813680  0.214423  0.283597
    O  O22  0.007488  0.327266  0.698301  -0.417288
    H  H13  0.065353  0.284235  0.652155  0.332578
    O  O23  0.457000  0.263886  0.685094  -0.471228
    H  H14  0.366706  0.313656  0.715527  0.313773
    O  O24  0.975731  0.187686  0.165594  -0.471039
    H  H15  0.036833  0.128545  0.194992  0.300675
    O  O25  0.455926  0.327219  0.255454  -0.400296
    H  H16  0.348025  0.295747  0.292109  0.321866
    O  O26  0.140481  0.835178  0.596556  -0.626470
    H  H17  0.083174  0.904255  0.606899  0.350686
    O  O27  0.497548  0.636903  0.763419  -0.683779
    H  H18  0.540625  0.646096  0.823018  0.351408
