# generated using pymatgen
data_ZnH28C40NO4
_symmetry_space_group_name_H-M   'P 1'
_cell_length_a   19.43985300
_cell_length_b   18.25279500
_cell_length_c   17.82239600
_cell_angle_alpha   90.00000000
_cell_angle_beta   90.00591300
_cell_angle_gamma   90.00000000
_symmetry_Int_Tables_number   1
_chemical_formula_structural   ZnH28C40NO4
_chemical_formula_sum   'Zn2 H56 C80 N2 O8'
_cell_volume   6323.95017517
_cell_formula_units_Z   2
loop_
 _symmetry_equiv_pos_site_id
 _symmetry_equiv_pos_as_xyz
  1  'x, y, z'
loop_
 _atom_site_type_symbol
 _atom_site_label
 _atom_site_symmetry_multiplicity
 _atom_site_fract_x
 _atom_site_fract_y
 _atom_site_fract_z
 _atom_site_occupancy
  Zn  Zn1  1  0.49917100  0.58346900  0.50089100  1
  Zn  Zn2  1  0.49915500  0.41698900  0.50068100  1
  H  H1  1  0.48796900  0.61575900  0.73977000  1
  H  H2  1  0.48682600  0.38481000  0.26203100  1
  H  H3  1  0.51292400  0.61649300  0.26300200  1
  H  H4  1  0.50917100  0.38363000  0.73809400  1
  H  H5  1  0.71846700  0.38295400  0.50238800  1
  H  H6  1  0.27986200  0.61749800  0.49925600  1
  H  H7  1  0.27985100  0.38297300  0.50044600  1
  H  H8  1  0.71849700  0.61747800  0.50112900  1
  H  H9  1  0.84290000  0.38306100  0.50324700  1
  H  H10  1  0.15543000  0.61738000  0.49845900  1
  H  H11  1  0.15543300  0.38310000  0.50171600  1
  H  H12  1  0.84292000  0.61733800  0.49994000  1
  H  H13  1  0.93723400  0.58972500  0.57851100  1
  H  H14  1  0.06110700  0.41070700  0.42318700  1
  H  H15  1  0.06172700  0.58976000  0.57788500  1
  H  H16  1  0.93661500  0.41066800  0.42381800  1
  H  H17  1  0.56984200  0.69931900  0.59009200  1
  H  H18  1  0.42909700  0.30075100  0.41104800  1
  H  H19  1  0.42863000  0.69958800  0.41157900  1
  H  H20  1  0.56910400  0.30125600  0.59073900  1
  H  H21  1  0.57039400  0.83288700  0.59261500  1
  H  H22  1  0.42861400  0.16714700  0.40914600  1
  H  H23  1  0.42826700  0.83317600  0.40933200  1
  H  H24  1  0.56958300  0.16767900  0.59350400  1
  H  H25  1  0.39085800  0.93394400  0.48089200  1
  H  H26  1  0.60752900  0.06661300  0.52191100  1
  H  H27  1  0.60765800  0.93406400  0.52161300  1
  H  H28  1  0.39078500  0.06647100  0.48103300  1
  H  H29  1  0.49382700  0.68153900  0.84661200  1
  H  H30  1  0.53145300  0.64136200  0.92757700  1
  H  H31  1  0.45545200  0.74390800  0.97930800  1
  H  H32  1  0.34785100  0.76429900  0.04781600  1
  H  H33  1  0.25173600  0.67779500  0.03403500  1
  H  H34  1  0.26315400  0.57157600  0.95030000  1
  H  H35  1  0.36820000  0.55074700  0.88105400  1
  H  H36  1  0.49071800  0.31863300  0.15522800  1
  H  H37  1  0.52949900  0.35789900  0.07439600  1
  H  H38  1  0.45248700  0.25834700  0.02040700  1
  H  H39  1  0.34491400  0.24069700  0.95103800  1
  H  H40  1  0.24983900  0.32831700  0.96595100  1
  H  H41  1  0.26224100  0.43286700  0.05170500  1
  H  H42  1  0.36730100  0.45095000  0.12184400  1
  H  H43  1  0.47746700  0.67539600  0.13559800  1
  H  H44  1  0.51897800  0.63504900  0.05643400  1
  H  H45  1  0.54283400  0.76347500  0.19651100  1
  H  H46  1  0.65410400  0.81571000  0.23241900  1
  H  H47  1  0.76146900  0.75353500  0.19686000  1
  H  H48  1  0.75729700  0.63871500  0.12482000  1
  H  H49  1  0.64606800  0.58600000  0.08834600  1
  H  H50  1  0.47340800  0.32600100  0.86854500  1
  H  H51  1  0.52115600  0.36479100  0.94454600  1
  H  H52  1  0.53142900  0.23588300  0.80234100  1
  H  H53  1  0.63807500  0.17984600  0.75709800  1
  H  H54  1  0.74964400  0.23730000  0.78479400  1
  H  H55  1  0.75431000  0.35126600  0.85820900  1
  H  H56  1  0.64768400  0.40797300  0.90373900  1
  C  C1  1  0.36446800  0.50022900  0.50007300  1
  C  C2  1  0.63386400  0.50022800  0.50148600  1
  C  C3  1  0.49975800  0.50025500  0.35385300  1
  C  C4  1  0.49855200  0.50019000  0.64770400  1
  C  C5  1  0.49505400  0.56437800  0.84690600  1
  C  C6  1  0.49437100  0.43580000  0.15474800  1
  C  C7  1  0.51068000  0.56615000  0.15550500  1
  C  C8  1  0.50926400  0.43373300  0.84579400  1
  C  C9  1  0.49401300  0.56455500  0.76941800  1
  C  C10  1  0.49374500  0.43581700  0.23225100  1
  C  C11  1  0.50825800  0.56536700  0.23290300  1
  C  C12  1  0.50590400  0.43473100  0.76843000  1
  C  C13  1  0.49932000  0.49986700  0.72995200  1
  C  C14  1  0.50056900  0.50045800  0.27157800  1
  C  C15  1  0.50391500  0.49900600  0.88578000  1
  C  C16  1  0.50398600  0.50091900  0.11569100  1
  C  C17  1  0.50519200  0.49957600  0.96681700  1
  C  C18  1  0.50519800  0.50013400  0.03464900  1
  C  C19  1  0.74517700  0.43486200  0.50187800  1
  C  C20  1  0.25315500  0.56558800  0.49975800  1
  C  C21  1  0.25315000  0.43488700  0.50000700  1
  C  C22  1  0.74519400  0.56556200  0.50160200  1
  C  C23  1  0.81608800  0.43488500  0.50168200  1
  C  C24  1  0.18224500  0.56555800  0.49999600  1
  C  C25  1  0.18224000  0.43492300  0.50003600  1
  C  C26  1  0.81610500  0.56552000  0.50161600  1
  C  C27  1  0.85209800  0.50019700  0.50154300  1
  C  C28  1  0.14624200  0.50024200  0.50013900  1
  C  C29  1  0.70928500  0.50021700  0.50171300  1
  C  C30  1  0.28905100  0.50023600  0.49988200  1
  C  C31  1  0.96388800  0.55078500  0.54331700  1
  C  C32  1  0.03445300  0.44964400  0.45838600  1
  C  C33  1  0.03479100  0.55081000  0.54295200  1
  C  C34  1  0.96355000  0.44961800  0.45875300  1
  C  C35  1  0.07063400  0.50024200  0.50048000  1
  C  C36  1  0.92770600  0.50018700  0.50122100  1
  C  C37  1  0.53866400  0.72940600  0.55044000  1
  C  C38  1  0.46004600  0.27084200  0.45105200  1
  C  C39  1  0.45983100  0.72955400  0.45130400  1
  C  C40  1  0.53821700  0.27112500  0.55083900  1
  C  C41  1  0.53939200  0.80490900  0.55126000  1
  C  C42  1  0.45935300  0.19533800  0.45058600  1
  C  C43  1  0.45922700  0.80506400  0.45063000  1
  C  C44  1  0.53887900  0.19562100  0.55184300  1
  C  C45  1  0.49931300  0.84362500  0.50100900  1
  C  C46  1  0.49912100  0.15685800  0.50132100  1
  C  C47  1  0.43899700  0.96247200  0.48886900  1
  C  C48  1  0.55941100  0.03804800  0.51389900  1
  C  C49  1  0.55947600  0.96253700  0.51373500  1
  C  C50  1  0.43894600  0.03797400  0.48897300  1
  C  C51  1  0.49915400  0.07635200  0.50145900  1
  C  C52  1  0.49927000  0.92414900  0.50119400  1
  C  C53  1  0.48846700  0.63590000  0.88718500  1
  C  C54  1  0.42092300  0.64539700  0.92679200  1
  C  C55  1  0.41335100  0.70573300  0.97277700  1
  C  C56  1  0.35293500  0.71725200  0.01140300  1
  C  C57  1  0.29914200  0.66880600  0.00372900  1
  C  C58  1  0.30563000  0.60923600  0.95685300  1
  C  C59  1  0.36596400  0.59753200  0.91798800  1
  C  C60  1  0.48648100  0.36435200  0.11458900  1
  C  C61  1  0.41898900  0.35643200  0.07453000  1
  C  C62  1  0.41084800  0.29700900  0.02743300  1
  C  C63  1  0.35044100  0.28702400  0.98833300  1
  C  C64  1  0.29723200  0.33610000  0.99663900  1
  C  C65  1  0.30427400  0.39473700  0.04464300  1
  C  C66  1  0.36459800  0.40489500  0.08399200  1
  C  C67  1  0.51998700  0.63876800  0.11800000  1
  C  C68  1  0.58728100  0.67101200  0.14036700  1
  C  C69  1  0.58970200  0.73570400  0.18050300  1
  C  C70  1  0.65226700  0.76518800  0.20084200  1
  C  C71  1  0.71244900  0.73032400  0.18093400  1
  C  C72  1  0.71010300  0.66594700  0.14059800  1
  C  C73  1  0.64759900  0.63632700  0.12027400  1
  C  C74  1  0.51815300  0.36088100  0.88301400  1
  C  C75  1  0.58269700  0.32581200  0.85588000  1
  C  C76  1  0.58018300  0.26151900  0.81504800  1
  C  C77  1  0.64013600  0.22991800  0.78941100  1
  C  C78  1  0.70266300  0.26215900  0.80487400  1
  C  C79  1  0.70526900  0.32605800  0.84599400  1
  C  C80  1  0.64536100  0.35788200  0.87147400  1
  N  N1  1  0.49918800  0.69302800  0.50087100  1
  N  N2  1  0.49918000  0.30743100  0.50077300  1
  O  O1  1  0.39668500  0.56337700  0.50028400  1
  O  O2  1  0.60164100  0.43709200  0.50110200  1
  O  O3  1  0.60165700  0.56337400  0.50152800  1
  O  O4  1  0.39666800  0.43707200  0.50021600  1
  O  O5  1  0.49976700  0.56333900  0.38911300  1
  O  O6  1  0.49878500  0.43714400  0.61244100  1
  O  O7  1  0.49862700  0.56339700  0.61268700  1
  O  O8  1  0.49953600  0.43704100  0.38888300  1
