# generated using pymatgen
data_CuH18C30(NO3)2
_symmetry_space_group_name_H-M   'P 1'
_cell_length_a   27.54403700
_cell_length_b   11.04400400
_cell_length_c   9.58416400
_cell_angle_alpha   90.02046200
_cell_angle_beta   90.01555100
_cell_angle_gamma   89.99363700
_symmetry_Int_Tables_number   1
_chemical_formula_structural   CuH18C30(NO3)2
_chemical_formula_sum   'Cu2 H36 C60 N4 O12'
_cell_volume   2915.46839981
_cell_formula_units_Z   2
loop_
 _symmetry_equiv_pos_site_id
 _symmetry_equiv_pos_as_xyz
  1  'x, y, z'
loop_
 _atom_site_type_symbol
 _atom_site_label
 _atom_site_symmetry_multiplicity
 _atom_site_fract_x
 _atom_site_fract_y
 _atom_site_fract_z
 _atom_site_occupancy
  Cu  Cu1  1  0.49847000  0.49065500  0.64141700  1
  Cu  Cu2  1  0.50094200  0.49632200  0.36217800  1
  H  H1  1  0.35001500  0.41411600  0.29072000  1
  H  H2  1  0.26056400  0.42174800  0.27750800  1
  H  H3  1  0.12158300  0.19563400  0.42679500  1
  H  H4  1  0.65105300  0.50996500  0.73311500  1
  H  H5  1  0.73858100  0.50266300  0.73856900  1
  H  H6  1  0.96380100  0.19710900  0.38868500  1
  H  H7  1  0.03644300  0.18818800  0.43435200  1
  H  H8  1  0.34484800  0.57477500  0.69072900  1
  H  H9  1  0.25578400  0.58011200  0.68220100  1
  H  H10  1  0.11779500  0.78928900  0.53258100  1
  H  H11  1  0.96559400  0.76279800  0.64185200  1
  H  H12  1  0.65628200  0.47717600  0.28408200  1
  H  H13  1  0.87989200  0.75717700  0.65307800  1
  H  H14  1  0.74238400  0.47230400  0.29439000  1
  H  H15  1  0.03276000  0.78729700  0.54672400  1
  H  H16  1  0.50421700  0.87753600  0.29279100  1
  H  H17  1  0.49431800  0.89990400  0.61018400  1
  H  H18  1  0.50149200  0.09881000  0.28511700  1
  H  H19  1  0.49627600  0.09118500  0.60495500  1
  H  H20  1  0.52796100  0.52591800  0.89375000  1
  H  H21  1  0.46478200  0.33935100  0.14238300  1
  H  H22  1  0.51602300  0.57055000  0.10245500  1
  H  H23  1  0.39159900  0.57778200  0.89220100  1
  H  H24  1  0.38194000  0.50547500  0.05823600  1
  H  H25  1  0.33191600  0.52175600  0.93874700  1
  H  H26  1  0.30907300  0.33935400  0.84340500  1
  H  H27  1  0.32821700  0.13487700  0.75972800  1
  H  H28  1  0.41094700  0.06291400  0.75274200  1
  H  H29  1  0.47848500  0.19279400  0.84301500  1
  H  H30  1  0.90153200  0.29646400  0.16578800  1
  H  H31  1  0.85792500  0.22190600  0.05707100  1
  H  H32  1  0.91795900  0.15910100  0.07667200  1
  H  H33  1  0.84670400  0.99103100  0.10898300  1
  H  H34  1  0.81597600  0.85859600  0.29488300  1
  H  H35  1  0.82338200  0.92085100  0.54041900  1
  H  H36  1  0.86129500  0.11455700  0.59961100  1
  C  C1  1  0.50088000  0.26119600  0.49704900  1
  C  C2  1  0.40631600  0.49374400  0.49696200  1
  C  C3  1  0.49929900  0.72612800  0.50640000  1
  C  C4  1  0.59305700  0.49445900  0.50614700  1
  C  C5  1  0.17635700  0.39055800  0.45774800  1
  C  C6  1  0.17513400  0.59961300  0.49521400  1
  C  C7  1  0.27603600  0.54281500  0.59539800  1
  C  C8  1  0.32617000  0.53876900  0.60178200  1
  C  C9  1  0.32928600  0.45158500  0.37555000  1
  C  C10  1  0.27911800  0.45410700  0.36911000  1
  C  C11  1  0.25211300  0.49810400  0.47963600  1
  C  C12  1  0.10017500  0.49083000  0.48562400  1
  C  C13  1  0.12623200  0.38700800  0.46146700  1
  C  C14  1  0.10210100  0.27938800  0.44392400  1
  C  C15  1  0.12503600  0.59785300  0.50172500  1
  C  C16  1  0.35291400  0.49335800  0.49258300  1
  C  C17  1  0.64611400  0.49364900  0.50821400  1
  C  C18  1  0.97396000  0.37994100  0.46763500  1
  C  C19  1  0.97385900  0.58704100  0.54367200  1
  C  C20  1  0.94882400  0.48236000  0.50889700  1
  C  C21  1  0.94745700  0.27885100  0.42701500  1
  C  C22  1  0.89762400  0.27802600  0.42892100  1
  C  C23  1  0.87217800  0.37960300  0.47380800  1
  C  C24  1  0.89836500  0.48042000  0.51555400  1
  C  C25  1  0.87349400  0.58002400  0.56457200  1
  C  C26  1  0.82331100  0.57957600  0.57019000  1
  C  C27  1  0.82134200  0.38456600  0.47517700  1
  C  C28  1  0.72015000  0.49978500  0.63908200  1
  C  C29  1  0.67023300  0.50241700  0.63487400  1
  C  C30  1  0.67296800  0.48418200  0.38604600  1
  C  C31  1  0.72272900  0.48079500  0.39140400  1
  C  C32  1  0.74657000  0.48798400  0.51791500  1
  C  C33  1  0.02491100  0.38049900  0.46836000  1
  C  C34  1  0.04965700  0.48789900  0.49268600  1
  C  C35  1  0.02413600  0.59249000  0.52439200  1
  C  C36  1  0.05223000  0.27616600  0.44610600  1
  C  C37  1  0.09954100  0.70302400  0.52337000  1
  C  C38  1  0.94821700  0.68372800  0.59962800  1
  C  C39  1  0.89863800  0.68011800  0.60949600  1
  C  C40  1  0.04985700  0.70067800  0.53455100  1
  C  C41  1  0.49989600  0.92392300  0.39185200  1
  C  C42  1  0.49840400  0.85860500  0.50962100  1
  C  C43  1  0.49905200  0.05816300  0.38787800  1
  C  C44  1  0.49933200  0.12855900  0.50137700  1
  C  C45  1  0.47135900  0.42018100  0.93218100  1
  C  C46  1  0.48091200  0.41313900  0.08449500  1
  C  C47  1  0.43163500  0.34478800  0.87848600  1
  C  C48  1  0.38371600  0.38438400  0.88477200  1
  C  C49  1  0.37162100  0.50484200  0.94684000  1
  C  C50  1  0.34651000  0.30916500  0.84115500  1
  C  C51  1  0.35700800  0.19407500  0.79454100  1
  C  C52  1  0.40417300  0.15344600  0.79234400  1
  C  C53  1  0.44149700  0.22705900  0.83846200  1
  C  C54  1  0.87422600  0.16454100  0.38786600  1
  C  C55  1  0.87055900  0.12945100  0.24902800  1
  C  C56  1  0.88816100  0.20690200  0.13144400  1
  C  C57  1  0.84976600  0.01906000  0.21677600  1
  C  C58  1  0.83253400  0.94447800  0.32089000  1
  C  C59  1  0.83659100  0.97913100  0.45833300  1
  C  C60  1  0.85774200  0.08827400  0.49154800  1
  N  N1  1  0.20015900  0.49627300  0.47535800  1
  N  N2  1  0.79823700  0.48367600  0.52266700  1
  N  N3  1  0.49737400  0.48845900  0.85031500  1
  N  N4  1  0.50223900  0.49803400  0.15387200  1
  O  O1  1  0.49787200  0.31611200  0.61757300  1
  O  O2  1  0.49947100  0.31941700  0.37792400  1
  O  O3  1  0.42817900  0.48640000  0.61842100  1
  O  O4  1  0.43012400  0.49998000  0.37872200  1
  O  O5  1  0.49678000  0.66767200  0.62491000  1
  O  O6  1  0.49896400  0.67148000  0.38537100  1
  O  O7  1  0.56937400  0.48854300  0.62455400  1
  O  O8  1  0.57116000  0.50015400  0.38526800  1
  O  O9  1  0.20151800  0.28710400  0.44264900  1
  O  O10  1  0.79425700  0.29212400  0.42812000  1
  O  O11  1  0.19919000  0.70459800  0.50994900  1
  O  O12  1  0.79931200  0.67780500  0.61652300  1
