# generated using pymatgen
data_ZnH15C28BrNO4
_symmetry_space_group_name_H-M   'P 1'
_cell_length_a   9.17263100
_cell_length_b   16.11763700
_cell_length_c   15.91095800
_cell_angle_alpha   94.61782100
_cell_angle_beta   73.41071400
_cell_angle_gamma   106.37216100
_symmetry_Int_Tables_number   1
_chemical_formula_structural   ZnH15C28BrNO4
_chemical_formula_sum   'Zn2 H30 C56 Br2 N2 O8'
_cell_volume   2162.96933990
_cell_formula_units_Z   2
loop_
 _symmetry_equiv_pos_site_id
 _symmetry_equiv_pos_as_xyz
  1  'x, y, z'
loop_
 _atom_site_type_symbol
 _atom_site_label
 _atom_site_symmetry_multiplicity
 _atom_site_fract_x
 _atom_site_fract_y
 _atom_site_fract_z
 _atom_site_occupancy
  Zn  Zn1  1  0.33300300  0.49505100  0.50061700  1
  Zn  Zn2  1  0.66699600  0.50494900  0.49938400  1
  H  H1  1  0.08115600  0.94179400  0.57069800  1
  H  H2  1  0.91884300  0.05820700  0.42930300  1
  H  H3  1  0.40237800  0.77563800  0.51392700  1
  H  H4  1  0.59762100  0.22436200  0.48607400  1
  H  H5  1  0.88020200  0.76892800  0.43700600  1
  H  H6  1  0.11979700  0.23107200  0.56299500  1
  H  H7  1  0.03177600  0.07640500  0.57857700  1
  H  H8  1  0.96822300  0.92359500  0.42142400  1
  H  H9  1  0.25051100  0.85185100  0.54156000  1
  H  H10  1  0.74948800  0.14814900  0.45844000  1
  H  H11  1  0.25252000  0.64172000  0.05623000  1
  H  H12  1  0.74747900  0.35828000  0.94377100  1
  H  H13  1  0.47217900  0.53924400  0.22096000  1
  H  H14  1  0.52782000  0.46075700  0.77904100  1
  H  H15  1  0.75382000  0.37712400  0.23426800  1
  H  H16  1  0.24617900  0.62287600  0.76573300  1
  H  H17  1  0.20927800  0.65704800  0.92104100  1
  H  H18  1  0.79072100  0.34295300  0.07896000  1
  H  H19  1  0.36620500  0.58666500  0.14612600  1
  H  H20  1  0.63379400  0.41333600  0.85387400  1
  H  H21  1  0.94029500  0.74042000  0.20383100  1
  H  H22  1  0.05970400  0.25958000  0.79616900  1
  H  H23  1  0.71136200  0.63380200  0.28245600  1
  H  H24  1  0.28863700  0.36619800  0.71754500  1
  H  H25  1  0.89689500  0.52258700  0.26244500  1
  H  H26  1  0.10310400  0.47741300  0.73755600  1
  H  H27  1  0.21253400  0.65755200  0.33526800  1
  H  H28  1  0.78746500  0.34244800  0.66473200  1
  H  H29  1  0.08565300  0.65685100  0.49081300  1
  H  H30  1  0.91434600  0.34314900  0.50918800  1
  C  C1  1  0.41329900  0.51695700  0.67112500  1
  C  C2  1  0.58670000  0.48304300  0.32887600  1
  C  C3  1  0.41662700  0.33098400  0.51273900  1
  C  C4  1  0.58337200  0.66901600  0.48726200  1
  C  C5  1  0.36724600  0.23653700  0.52292200  1
  C  C6  1  0.63275300  0.76346300  0.47707900  1
  C  C7  1  0.15719100  0.10753500  0.55781200  1
  C  C8  1  0.84280800  0.89246500  0.44218900  1
  C  C9  1  0.20775900  0.19547600  0.54865200  1
  C  C10  1  0.79224000  0.80452400  0.45134900  1
  C  C11  1  0.47567100  0.18838200  0.50612700  1
  C  C12  1  0.52432800  0.81161900  0.49387400  1
  C  C13  1  0.42534900  0.09794900  0.51369800  1
  C  C14  1  0.57465000  0.90205100  0.48630300  1
  C  C15  1  0.26432700  0.05920800  0.54025000  1
  C  C16  1  0.73567200  0.94079200  0.45975100  1
  C  C17  1  0.52977000  0.04508600  0.49541400  1
  C  C18  1  0.47022900  0.95491400  0.50458600  1
  C  C19  1  0.30739800  0.91969200  0.53221400  1
  C  C20  1  0.69260100  0.08030900  0.46778700  1
  C  C21  1  0.20710700  0.97136400  0.54956700  1
  C  C22  1  0.79289200  0.02863700  0.45043400  1
  C  C23  1  0.38542000  0.53642400  0.76553900  1
  C  C24  1  0.61457900  0.46357600  0.23446200  1
  C  C25  1  0.27914300  0.61300100  0.89119800  1
  C  C26  1  0.72085600  0.38699900  0.10880300  1
  C  C27  1  0.29840100  0.59321900  0.80391200  1
  C  C28  1  0.70159800  0.40678100  0.19608900  1
  C  C29  1  0.45940000  0.50311700  0.81396100  1
  C  C30  1  0.54059900  0.49688300  0.18604000  1
  C  C31  1  0.44139200  0.52259900  0.90296800  1
  C  C32  1  0.55860700  0.47740100  0.09703200  1
  C  C33  1  0.34887600  0.57770500  0.94032200  1
  C  C34  1  0.65112300  0.42229600  0.05967800  1
  C  C35  1  0.51224400  0.48896500  0.95547700  1
  C  C36  1  0.48775500  0.51103500  0.04452400  1
  C  C37  1  0.39271300  0.56628600  0.07892100  1
  C  C38  1  0.60728600  0.43371400  0.92108000  1
  C  C39  1  0.32533200  0.59888100  0.02731900  1
  C  C40  1  0.67466700  0.40111900  0.97268200  1
  C  C41  1  0.82493200  0.62685200  0.28279600  1
  C  C42  1  0.17506700  0.37314800  0.71720500  1
  C  C43  1  0.84483400  0.55596500  0.31949500  1
  C  C44  1  0.15516500  0.44403500  0.68050600  1
  C  C45  1  0.97061200  0.58198400  0.35788400  1
  C  C46  1  0.02938700  0.41801700  0.64211700  1
  C  C47  1  0.10395400  0.64571900  0.31664700  1
  C  C48  1  0.89604500  0.35428100  0.68335300  1
  C  C49  1  0.09806700  0.69761600  0.25415400  1
  C  C50  1  0.90193200  0.30238400  0.74584700  1
  C  C51  1  0.95420600  0.69143700  0.24119100  1
  C  C52  1  0.04579300  0.30856400  0.75881000  1
  C  C53  1  0.04862800  0.58704900  0.49454800  1
  C  C54  1  0.95137100  0.41295100  0.50545300  1
  C  C55  1  0.01929100  0.46149400  0.56740600  1
  C  C56  1  0.98070800  0.53850600  0.43259500  1
  Br  Br1  1  0.27832900  0.78871600  0.20128200  1
  Br  Br2  1  0.72167000  0.21128500  0.79871900  1
  N  N1  1  0.06638200  0.54807900  0.56115800  1
  N  N2  1  0.93361700  0.45192100  0.43884300  1
  O  O1  1  0.29797600  0.50174100  0.63241600  1
  O  O2  1  0.70202300  0.49825900  0.36758500  1
  O  O3  1  0.55839700  0.51669100  0.62811000  1
  O  O4  1  0.44160200  0.48330900  0.37189100  1
  O  O5  1  0.30598700  0.36739000  0.51325700  1
  O  O6  1  0.69401200  0.63261000  0.48674400  1
  O  O7  1  0.56440100  0.37546500  0.50576100  1
  O  O8  1  0.43559800  0.62453500  0.49424000  1
