# generated using pymatgen
data_FeH15(C7O2)4
_symmetry_space_group_name_H-M   'P 1'
_cell_length_a   14.72075200
_cell_length_b   14.13084000
_cell_length_c   11.24096000
_cell_angle_alpha   95.55479600
_cell_angle_beta   94.23309900
_cell_angle_gamma   100.24857800
_symmetry_Int_Tables_number   1
_chemical_formula_structural   FeH15(C7O2)4
_chemical_formula_sum   'Fe2 H30 C56 O16'
_cell_volume   2280.27892360
_cell_formula_units_Z   2
loop_
 _symmetry_equiv_pos_site_id
 _symmetry_equiv_pos_as_xyz
  1  'x, y, z'
loop_
 _atom_site_type_symbol
 _atom_site_label
 _atom_site_symmetry_multiplicity
 _atom_site_fract_x
 _atom_site_fract_y
 _atom_site_fract_z
 _atom_site_occupancy
  Fe  Fe1  1  0.49847500  0.98330100  0.15141900  1
  Fe  Fe2  1  0.47670600  0.98710600  0.68661900  1
  H  H1  1  0.12368000  0.87753800  0.69822700  1
  H  H2  1  0.99299600  0.87934900  0.81023600  1
  H  H3  1  0.96388300  0.04002600  0.83519400  1
  H  H4  1  0.23549200  0.00266500  0.20863300  1
  H  H5  1  0.10116400  0.99868400  0.31648300  1
  H  H6  1  0.93897800  0.98334400  0.32194000  1
  H  H7  1  0.78669600  0.96886900  0.22466000  1
  H  H8  1  0.68127400  0.58890200  0.88056000  1
  H  H9  1  0.55868400  0.62794000  0.00318700  1
  H  H10  1  0.39721000  0.60195800  0.91380800  1
  H  H11  1  0.64351700  0.52812300  0.66709700  1
  H  H12  1  0.35890600  0.53931000  0.70084100  1
  H  H13  1  0.47700700  0.34783000  0.66062700  1
  H  H14  1  0.49397700  0.69201900  0.61078700  1
  H  H15  1  0.44862900  0.26960200  0.22474600  1
  H  H16  1  0.45323800  0.61216600  0.17511100  1
  H  H17  1  0.28723500  0.42848600  0.17197800  1
  H  H18  1  0.57239500  0.42491700  0.13169200  1
  H  H19  1  0.24795400  0.36927600  0.95827500  1
  H  H20  1  0.37011900  0.33478000  0.83222800  1
  H  H21  1  0.53252600  0.36323000  0.91862000  1
  H  H22  1  0.70396300  0.89159200  0.61270400  1
  H  H23  1  0.81986000  0.87165300  0.60619600  1
  H  H24  1  0.76990100  0.93646400  0.49565500  1
  H  H25  1  0.68828300  0.06405000  0.59660000  1
  H  H26  1  0.79266500  0.14385500  0.57765500  1
  H  H27  1  0.75295000  0.14449700  0.72410800  1
  H  H28  1  0.95353700  0.99797500  0.63844600  1
  H  H29  1  0.94240000  0.12407200  0.67613200  1
  H  H30  1  0.90272300  0.06078700  0.53033500  1
  C  C1  1  0.22460700  0.94051400  0.84492300  1
  C  C2  1  0.13587600  0.90651300  0.79170800  1
  C  C3  1  0.06036000  0.91075800  0.85548000  1
  C  C4  1  0.90026000  0.00938600  0.86878300  1
  C  C5  1  0.23659200  0.96842100  0.96842600  1
  C  C6  1  0.15927400  0.97230600  0.03266600  1
  C  C7  1  0.07084800  0.95374900  0.97328700  1
  C  C8  1  0.99446300  0.96947300  0.03620100  1
  C  C9  1  0.81530600  0.00416500  0.80346200  1
  C  C10  1  0.73521800  0.97797400  0.86319300  1
  C  C11  1  0.90771700  0.97769800  0.98095800  1
  C  C12  1  0.83025400  0.96761100  0.04448100  1
  C  C13  1  0.74297100  0.96431800  0.98457300  1
  C  C14  1  0.16921600  0.99143000  0.15673800  1
  C  C15  1  0.09241000  0.98900900  0.21947500  1
  C  C16  1  0.00559100  0.97819700  0.15985900  1
  C  C17  1  0.93012200  0.97770800  0.22506900  1
  C  C18  1  0.84260900  0.96801700  0.16812800  1
  C  C19  1  0.65801100  0.94647900  0.04850700  1
  C  C20  1  0.47185900  0.79882300  0.23523000  1
  C  C21  1  0.32957300  0.99499000  0.03196600  1
  C  C22  1  0.46138100  0.12168900  0.32749800  1
  C  C23  1  0.48967700  0.84158200  0.50992100  1
  C  C24  1  0.64142100  0.96101000  0.80178400  1
  C  C25  1  0.46749900  0.16255500  0.59902300  1
  C  C26  1  0.30192800  0.94620600  0.76730500  1
  C  C27  1  0.61037200  0.57734900  0.84125200  1
  C  C28  1  0.46518900  0.23734500  0.51584700  1
  C  C29  1  0.54160300  0.59940900  0.90995100  1
  C  C30  1  0.45112700  0.58472300  0.85984800  1
  C  C31  1  0.58903800  0.54248200  0.72177700  1
  C  C32  1  0.49871600  0.52871800  0.67104700  1
  C  C33  1  0.42950200  0.54873700  0.74067200  1
  C  C34  1  0.47109200  0.33258800  0.56433500  1
  C  C35  1  0.47025500  0.40698000  0.49174300  1
  C  C36  1  0.47868400  0.50258900  0.54120900  1
  C  C37  1  0.47468100  0.57546600  0.46699700  1
  C  C38  1  0.48356700  0.67099200  0.51542600  1
  C  C39  1  0.48223000  0.74492600  0.44457100  1
  C  C40  1  0.46025700  0.21714000  0.39133900  1
  C  C41  1  0.45569300  0.29038400  0.32015700  1
  C  C42  1  0.45964600  0.38523900  0.36860000  1
  C  C43  1  0.45354000  0.45781500  0.29448100  1
  C  C44  1  0.46220900  0.55353800  0.34393500  1
  C  C45  1  0.46099200  0.62795900  0.27135500  1
  C  C46  1  0.34143000  0.41590600  0.11588600  1
  C  C47  1  0.43232900  0.43140700  0.16483500  1
  C  C48  1  0.50127900  0.41396600  0.09332400  1
  C  C49  1  0.31927200  0.38200300  0.99625100  1
  C  C50  1  0.38781500  0.36249200  0.92563100  1
  C  C51  1  0.47243200  0.72412100  0.31956500  1
  C  C52  1  0.47881300  0.37860500  0.97406200  1
  C  C53  1  0.81302900  0.01946600  0.66943800  1
  C  C54  1  0.77365100  0.92430800  0.59176200  1
  C  C55  1  0.75775800  0.09728600  0.64095200  1
  C  C56  1  0.90899600  0.05274900  0.62762400  1
  O  O1  1  0.59592100  0.00263800  0.03909500  1
  O  O2  1  0.45009200  0.77230400  0.12005700  1
  O  O3  1  0.64609100  0.87704900  0.11847200  1
  O  O4  1  0.49844900  0.89115700  0.27345000  1
  O  O5  1  0.37839000  0.92777000  0.05229300  1
  O  O6  1  0.36252700  0.08583200  0.07186200  1
  O  O7  1  0.51654600  0.11612500  0.24115200  1
  O  O8  1  0.39794200  0.04660000  0.34122200  1
  O  O9  1  0.44241700  0.85159200  0.60375900  1
  O  O10  1  0.55650900  0.91216600  0.49261700  1
  O  O11  1  0.60357500  0.03389600  0.77252600  1
  O  O12  1  0.59168700  0.87320100  0.78722600  1
  O  O13  1  0.28380000  0.92056600  0.65146300  1
  O  O14  1  0.47804400  0.07516500  0.55985500  1
  O  O15  1  0.38752500  0.98354900  0.81033100  1
  O  O16  1  0.45973500  0.18343900  0.71370600  1
