# generated using pymatgen
data_ZnH14C27S2NO4
_symmetry_space_group_name_H-M   'P 1'
_cell_length_a   8.51689900
_cell_length_b   13.03518300
_cell_length_c   17.48562400
_cell_angle_alpha   90.61410400
_cell_angle_beta   93.31401800
_cell_angle_gamma   86.47476800
_symmetry_Int_Tables_number   1
_chemical_formula_structural   ZnH14C27S2NO4
_chemical_formula_sum   'Zn2 H28 C54 S4 N2 O8'
_cell_volume   1934.27902215
_cell_formula_units_Z   2
loop_
 _symmetry_equiv_pos_site_id
 _symmetry_equiv_pos_as_xyz
  1  'x, y, z'
loop_
 _atom_site_type_symbol
 _atom_site_label
 _atom_site_symmetry_multiplicity
 _atom_site_fract_x
 _atom_site_fract_y
 _atom_site_fract_z
 _atom_site_occupancy
  Zn  Zn1  1  0.48922300  0.50658400  0.91633300  1
  Zn  Zn2  1  0.50771300  0.49583900  0.08703200  1
  H  H1  1  0.01530600  0.57286700  0.02878200  1
  H  H2  1  0.98163500  0.42955600  0.97458300  1
  H  H3  1  0.70447800  0.83178500  0.99434700  1
  H  H4  1  0.29246900  0.17064100  0.00902100  1
  H  H5  1  0.68082800  0.98423400  0.01988900  1
  H  H6  1  0.31612300  0.01819000  0.98347900  1
  H  H7  1  0.64906500  0.16437700  0.01100400  1
  H  H8  1  0.34788300  0.83804700  0.99236200  1
  H  H9  1  0.49050200  0.67042400  0.80839900  1
  H  H10  1  0.50597400  0.33202700  0.19494600  1
  H  H11  1  0.49882800  0.75871300  0.69034300  1
  H  H12  1  0.49721700  0.24375700  0.31298200  1
  H  H13  1  0.51170700  0.84695800  0.57433700  1
  H  H14  1  0.48357200  0.15555900  0.42895100  1
  H  H15  1  0.47406900  0.35138600  0.81250200  1
  H  H16  1  0.52307300  0.65102800  0.19088200  1
  H  H17  1  0.71116200  0.14495500  0.78112900  1
  H  H18  1  0.72846400  0.26704900  0.73582400  1
  H  H19  1  0.72764900  0.15020000  0.67833500  1
  H  H20  1  0.79282200  0.84346000  0.25847000  1
  H  H21  1  0.79007000  0.70771800  0.27736700  1
  H  H22  1  0.78876500  0.79986900  0.35617500  1
  H  H23  1  0.28003400  0.99449100  0.38583100  1
  H  H24  1  0.26106300  0.91376400  0.46774300  1
  H  H25  1  0.26789900  0.85750400  0.37227400  1
  H  H26  1  0.20928800  0.04065700  0.59503700  1
  H  H27  1  0.21223300  0.12105800  0.51164700  1
  H  H28  1  0.21091000  0.17848400  0.60687700  1
  C  C1  1  0.12542100  0.70970600  0.00923600  1
  C  C2  1  0.87152200  0.29271800  0.99413000  1
  C  C3  1  0.99761600  0.65387300  0.01902400  1
  C  C4  1  0.99932600  0.34855000  0.98434200  1
  C  C5  1  0.84843600  0.69867200  0.01103700  1
  C  C6  1  0.14850600  0.30375100  0.99232900  1
  C  C7  1  0.82496000  0.80291800  0.00263600  1
  C  C8  1  0.17198600  0.19950500  0.00073100  1
  C  C9  1  0.95311300  0.86431200  0.00385200  1
  C  C10  1  0.04383500  0.13811100  0.99951500  1
  C  C11  1  0.10376900  0.81604800  0.00286100  1
  C  C12  1  0.89317700  0.18637500  0.00050500  1
  C  C13  1  0.93323200  0.97208200  0.00404500  1
  C  C14  1  0.06371800  0.03034100  0.99932200  1
  C  C15  1  0.21121200  0.97949200  0.99248000  1
  C  C16  1  0.78573800  0.02293100  0.01088700  1
  C  C17  1  0.23088000  0.87420500  0.99577300  1
  C  C18  1  0.76606800  0.12821700  0.00759300  1
  C  C19  1  0.28104100  0.36890500  0.99578800  1
  C  C20  1  0.71589700  0.63351700  0.00757700  1
  C  C21  1  0.27692700  0.64968300  0.00567900  1
  C  C22  1  0.72001300  0.35274100  0.99768700  1
  C  C23  1  0.48576600  0.59838900  0.77738300  1
  C  C24  1  0.51086300  0.40404900  0.22597000  1
  C  C25  1  0.47619100  0.41961800  0.77856900  1
  C  C26  1  0.52091600  0.58279000  0.22480700  1
  C  C27  1  0.49651200  0.68649300  0.65945000  1
  C  C28  1  0.49971900  0.31596300  0.34388400  1
  C  C29  1  0.48878300  0.59638600  0.69861500  1
  C  C30  1  0.50772300  0.40605500  0.30473200  1
  C  C31  1  0.48597200  0.50429900  0.65917900  1
  C  C32  1  0.51068100  0.49813000  0.34417600  1
  C  C33  1  0.47885500  0.41462900  0.69926100  1
  C  C34  1  0.51814000  0.58777900  0.30411000  1
  C  C35  1  0.47618300  0.32103100  0.66056900  1
  C  C36  1  0.52107100  0.68135800  0.34281200  1
  C  C37  1  0.51027300  0.77522000  0.54278600  1
  C  C38  1  0.48555000  0.22726100  0.46052800  1
  C  C39  1  0.50214900  0.68465200  0.58097800  1
  C  C40  1  0.49409200  0.31780300  0.42235700  1
  C  C41  1  0.50012800  0.59312200  0.54101700  1
  C  C42  1  0.49634000  0.40931800  0.46232900  1
  C  C43  1  0.51659200  0.77666300  0.46452800  1
  C  C44  1  0.47929400  0.22581200  0.53878900  1
  C  C45  1  0.51501400  0.68457700  0.42259300  1
  C  C46  1  0.48157500  0.31785400  0.58075900  1
  C  C47  1  0.49175500  0.50217000  0.58042600  1
  C  C48  1  0.50484900  0.50026100  0.42292700  1
  C  C49  1  0.48986200  0.40957000  0.54129100  1
  C  C50  1  0.50669800  0.59286300  0.46205900  1
  C  C51  1  0.67906500  0.19054100  0.72873500  1
  C  C52  1  0.74698600  0.78551000  0.29598800  1
  C  C53  1  0.31300600  0.91804200  0.41123500  1
  C  C54  1  0.25437500  0.11173300  0.57252200  1
  S  S1  1  0.46616200  0.20654400  0.71552700  1
  S  S2  1  0.53330200  0.79569800  0.28795100  1
  S  S3  1  0.52594800  0.90109900  0.42347800  1
  S  S4  1  0.46808400  0.10148900  0.57974700  1
  N  N1  1  0.47975100  0.51033100  0.81594800  1
  N  N2  1  0.51718200  0.49209000  0.18741700  1
  O  O1  1  0.33770900  0.39761100  0.06342100  1
  O  O2  1  0.65922700  0.60481300  0.93994400  1
  O  O3  1  0.32800700  0.40295000  0.93133600  1
  O  O4  1  0.66893100  0.59947200  0.07203000  1
  O  O5  1  0.31957400  0.61612100  0.93816500  1
  O  O6  1  0.67736400  0.38630200  0.06520200  1
  O  O7  1  0.34006400  0.61068200  0.07011100  1
  O  O8  1  0.65687700  0.39174400  0.93325500  1
