# Generated by REPEAT Assigner based on pymatgen
data_DB0-m29_o97_o51_f0_pts.sym.61
_audit_creation_date              2022-05-24
_audit_creation_method            REPEAT_Assigner
_cell_length_a                    17.774791
_cell_length_b                    9.541253
_cell_length_c                    17.140776
_cell_angle_alpha                 89.128201
_cell_angle_beta                  78.411217
_cell_angle_gamma                 106.640266
_cell_volume                      2720.245129
_symmetry_space_group_name_H-M    P1
_symmetry_Int_Tables_number       1
loop_
    _symmetry_equiv_pos_site_id
    _symmetry_equiv_pos_as_xyz
    1  x,y,z
loop_
    _atom_site_type_symbol
    _atom_site_label
    _atom_site_fract_x
    _atom_site_fract_y
    _atom_site_fract_z
    _atom_type_partial_charge
    C   C1   0.235838  0.064503  0.130890  -0.257919
    C   C2   0.107494  0.101208  0.164098  -0.166203
    C   C3   0.294913  0.027471  0.078148  0.027819
    C   C4   0.281595  0.982721  0.003892  -0.031329
    C   C5   0.163811  0.058310  0.111199  0.223814
    C   C6   0.147642  0.007493  0.039906  0.011381
    C   C7   0.205143  0.962612  0.988052  0.057181
    C   C8   0.184049  0.893550  0.922196  -0.097436
    C   C9   0.035795  0.098832  0.145321  -0.179405
    C   C10  0.018958  0.054137  0.072042  0.066897
    C   C11  0.074614  0.003389  0.020326  0.003340
    C   C12  0.057812  0.948591  0.949230  0.053130
    C   C13  0.111703  0.885997  0.903260  -0.134250
    C   C14  0.892172  0.114717  0.097479  -0.139228
    C   C15  0.947085  0.055263  0.050610  0.050625
    C   C16  0.930673  0.001666  0.979104  0.008026
    C   C17  0.986453  0.951370  0.927353  0.062932
    C   C18  0.970451  0.909116  0.853456  -0.177120
    C   C19  0.819899  0.106929  0.078359  -0.095788
    C   C20  0.800003  0.041539  0.011201  0.057012
    C   C21  0.857930  0.998300  0.959098  0.008113
    C   C22  0.842418  0.949765  0.887144  0.220166
    C   C23  0.724120  0.023238  0.994571  -0.042119
    C   C24  0.711334  0.980780  0.919966  -0.005413
    C   C25  0.899146  0.908050  0.834107  -0.173969
    C   C26  0.770637  0.944655  0.867031  -0.235045
    H   H1   0.247669  0.103978  0.187305  0.159131
    H   H2   0.119191  0.137557  0.221093  0.143569
    H   H3   0.221324  0.837224  0.885918  0.125064
    H   H4   0.994556  0.130270  0.191415  0.149121
    H   H5   0.099572  0.825422  0.852606  0.123111
    H   H6   0.902998  0.172290  0.149336  0.126034
    H   H7   0.012433  0.879601  0.807237  0.150940
    H   H8   0.781657  0.160228  0.115700  0.124629
    H   H9   0.888092  0.873753  0.776588  0.145103
    H   H10  0.759171  0.906664  0.810242  0.136530
    O   O1   0.591305  0.050996  0.043549  -0.546172
    C   C27  0.655535  0.025007  0.059179  0.588345
    O   O2   0.511992  0.741749  0.128891  -0.492154
    O   O3   0.654059  0.982272  0.132745  -0.515920
    O   O4   0.498614  0.883098  0.232914  -0.554562
    C   C28  0.503874  0.756807  0.205840  0.589475
    Fe  Fe1  0.508424  0.025011  0.143135  1.472396
    O   O5   0.401281  0.945545  0.113714  -0.622548
    O   O6   0.411741  0.188719  0.112303  -0.532628
    C   C29  0.372897  0.054628  0.100083  0.699312
    O   O7   0.539018  0.226399  0.182367  -0.625952
    O   O8   0.438364  0.117121  0.288487  -0.532643
    C   C30  0.491323  0.235797  0.249956  0.622162
    O   O9   0.465021  0.786736  0.816187  -0.568900
    O   O10  0.569151  0.889781  0.711980  -0.548395
    C   C31  0.513649  0.773754  0.750252  0.565384
    O   O11  0.606631  0.064632  0.882408  -0.662335
    O   O12  0.592188  0.820329  0.889686  -0.568489
    C   C32  0.633288  0.954682  0.898396  0.781990
    O   O13  0.348692  0.012722  0.864505  -0.501926
    O   O14  0.509316  0.129638  0.763899  -0.551478
    C   C33  0.498412  0.249567  0.793939  0.529711
    O   O15  0.416858  0.966609  0.954441  -0.523414
    C   C34  0.349945  0.980305  0.938837  0.572922
    O   O16  0.482675  0.251834  0.871941  -0.464469
    Fe  Fe2  0.498612  0.988501  0.854253  1.457141
    C   C35  0.501782  0.376782  0.741443  0.102139
    C   C36  0.504428  0.362334  0.660599  -0.258754
    H   H11  0.503084  0.257993  0.636333  0.178205
    C   C37  0.507298  0.479599  0.610197  0.267083
    C   C38  0.511566  0.614318  0.640333  -0.280479
    H   H12  0.519292  0.710476  0.602134  0.169617
    C   C39  0.507046  0.629206  0.720571  0.147891
    C   C40  0.501290  0.510998  0.771684  -0.266300
    C   C41  0.509158  0.459246  0.524845  -0.207031
    C   C42  0.486426  0.546267  0.477721  -0.193625
    C   C43  0.494363  0.645526  0.341450  -0.241259
    H   H13  0.494212  0.749308  0.365768  0.161683
    C   C44  0.500537  0.632276  0.260168  0.072458
    C   C45  0.503556  0.499445  0.229909  -0.239686
    C   C46  0.494981  0.379315  0.280813  0.140736
    C   C47  0.486386  0.392492  0.361620  -0.291068
    H   H14  0.477209  0.295770  0.399978  0.162336
    C   C48  0.489792  0.527047  0.392053  0.256645
    H   H15  0.508698  0.486381  0.166733  0.214751
    H   H16  0.530118  0.369654  0.501022  0.132578
    H   H17  0.465656  0.636118  0.501459  0.137314
    C   C49  0.504200  0.534041  0.855476  0.636381
    H   H18  0.556458  0.527503  0.877175  -0.020054
    O   O17  0.444878  0.543008  0.902772  -0.346858
