data_DB0-m18_o20_o92_f0_fsc_repeat
_audit_creation_date              2024-02-23
_audit_creation_method            'Materials Studio'
_symmetry_space_group_name_H-M    'P1'
_symmetry_Int_Tables_number       1
_symmetry_cell_setting            triclinic
loop_
_symmetry_equiv_pos_as_xyz
  x,y,z
_cell_length_a                    13.3608
_cell_length_b                    13.0522
_cell_length_c                    16.5823
_cell_angle_alpha                 94.2852
_cell_angle_beta                  90.0464
_cell_angle_gamma                 90.6598
loop_
_atom_site_label
_atom_site_type_symbol
_atom_site_fract_x
_atom_site_fract_y
_atom_site_fract_z
_atom_site_U_iso_or_equiv
_atom_site_adp_type
_atom_site_occupancy
O1     O     0.08990   0.09650   0.91358   0.00000  Uiso   1.00
O2     O     0.91009   0.90350   0.08642   0.00000  Uiso   1.00
O3     O     0.12461   0.92537   0.91168   0.00000  Uiso   1.00
O4     O     0.87539   0.07463   0.08832   0.00000  Uiso   1.00
C1     C     0.14093   0.01683   0.88513   0.00000  Uiso   1.00
C2     C     0.85907   0.98317   0.11487   0.00000  Uiso   1.00
Fe1    Fe    0.01556   0.88675   0.99636   0.00000  Uiso   1.00
Fe2    Fe    0.98444   0.11325   0.00364   0.00000  Uiso   1.00
O5     O     0.12009   0.92805   0.08593   0.00000  Uiso   1.00
O6     O     0.87991   0.07195   0.91407   0.00000  Uiso   1.00
O7     O     0.09257   0.10115   0.09045   0.00000  Uiso   1.00
O8     O     0.90743   0.89885   0.90955   0.00000  Uiso   1.00
C3     C     0.14011   0.02243   0.11671   0.00000  Uiso   1.00
C4     C     0.85989   0.97757   0.88329   0.00000  Uiso   1.00
N1     N     0.02451   0.74686   0.99474   0.00000  Uiso   1.00
N2     N     0.97548   0.25314   0.00526   0.00000  Uiso   1.00
C5     C     0.01800   0.65723   0.99617   0.00000  Uiso   1.00
C6     C     0.98200   0.34277   0.00383   0.00000  Uiso   1.00
C7     C     0.00581   0.54670   0.99877   0.00000  Uiso   1.00
C8     C     0.99419   0.45330   0.00123   0.00000  Uiso   1.00
C9     C     0.31426   0.03260   0.71021   0.00000  Uiso   1.00
C10    C     0.68574   0.96740   0.28979   0.00000  Uiso   1.00
C11    C     0.24549   0.04399   0.65092   0.00000  Uiso   1.00
C12    C     0.75451   0.95601   0.34908   0.00000  Uiso   1.00
C13    C     0.29592   0.04369   0.57874   0.00000  Uiso   1.00
C14    C     0.70408   0.95631   0.42126   0.00000  Uiso   1.00
N3     N     0.39502   0.03544   0.59243   0.00000  Uiso   1.00
N4     N     0.60498   0.96455   0.40757   0.00000  Uiso   1.00
C15    C     0.40710   0.02976   0.67313   0.00000  Uiso   1.00
C16    C     0.59290   0.97024   0.32687   0.00000  Uiso   1.00
C17    C     0.25159   0.04827   0.50637   0.00000  Uiso   1.00
C18    C     0.74841   0.95173   0.49363   0.00000  Uiso   1.00
C19    C     0.30044   0.03641   0.42639   0.00000  Uiso   1.00
C20    C     0.69956   0.96359   0.57361   0.00000  Uiso   1.00
C21    C     0.25290   0.04741   0.35381   0.00000  Uiso   1.00
C22    C     0.74710   0.95259   0.64619   0.00000  Uiso   1.00
C23    C     0.31746   0.01743   0.29318   0.00000  Uiso   1.00
C24    C     0.68254   0.98257   0.70682   0.00000  Uiso   1.00
C25    C     0.40674   0.99349   0.33036   0.00000  Uiso   1.00
C26    C     0.59326   0.00651   0.66964   0.00000  Uiso   1.00
N5     N     0.39349   0.00169   0.41154   0.00000  Uiso   1.00
N6     N     0.60651   0.99831   0.58846   0.00000  Uiso   1.00
C27    C     0.50435   0.97739   0.28898   0.00000  Uiso   1.00
C28    C     0.49565   0.02260   0.71102   0.00000  Uiso   1.00
H1     H     0.17145   0.05707   0.50520   0.00000  Uiso   1.00
H2     H     0.82855   0.94293   0.49479   0.00000  Uiso   1.00
H3     H     0.50439   0.97924   0.22385   0.00000  Uiso   1.00
H4     H     0.49561   0.02076   0.77615   0.00000  Uiso   1.00
H5     H     0.44160   0.97868   0.45512   0.00000  Uiso   1.00
H6     H     0.55840   0.02132   0.54488   0.00000  Uiso   1.00
C29    C     0.84115   0.91810   0.66156   0.00000  Uiso   1.00
C30    C     0.15885   0.08190   0.33844   0.00000  Uiso   1.00
C31    C     0.87145   0.91989   0.74106   0.00000  Uiso   1.00
C32    C     0.12855   0.08011   0.25894   0.00000  Uiso   1.00
C33    C     0.81168   0.96183   0.80340   0.00000  Uiso   1.00
C34    C     0.18832   0.03817   0.19661   0.00000  Uiso   1.00
C35    C     0.71387   0.99101   0.78704   0.00000  Uiso   1.00
C36    C     0.28613   0.00899   0.21296   0.00000  Uiso   1.00
C37    C     0.28503   0.02031   0.78892   0.00000  Uiso   1.00
C38    C     0.71497   0.97969   0.21108   0.00000  Uiso   1.00
C39    C     0.18328   0.02488   0.80523   0.00000  Uiso   1.00
C40    C     0.81672   0.97512   0.19477   0.00000  Uiso   1.00
C41    C     0.11549   0.04553   0.74545   0.00000  Uiso   1.00
C42    C     0.88451   0.95447   0.25455   0.00000  Uiso   1.00
C43    C     0.14529   0.05232   0.66695   0.00000  Uiso   1.00
C44    C     0.85471   0.94768   0.33305   0.00000  Uiso   1.00
H7     H     0.89094   0.89039   0.61372   0.00000  Uiso   1.00
H8     H     0.10906   0.10961   0.38628   0.00000  Uiso   1.00
H9     H     0.66574   0.02210   0.83494   0.00000  Uiso   1.00
H10    H     0.33426   0.97790   0.16506   0.00000  Uiso   1.00
H11    H     0.33818   0.00754   0.83616   0.00000  Uiso   1.00
H12    H     0.66182   0.99246   0.16384   0.00000  Uiso   1.00
H13    H     0.03733   0.05436   0.76030   0.00000  Uiso   1.00
H14    H     0.96267   0.94564   0.23970   0.00000  Uiso   1.00
H15    H     0.09023   0.06452   0.62109   0.00000  Uiso   1.00
H16    H     0.90977   0.93548   0.37891   0.00000  Uiso   1.00
H17    H     0.94589   0.89425   0.75422   0.00000  Uiso   1.00
H18    H     0.05411   0.10575   0.24578   0.00000  Uiso   1.00
