# Generated by REPEAT Assigner based on pymatgen
data_DB0-m29_o91_o46_f0_pts.sym.3
_audit_creation_date              2022-05-24
_audit_creation_method            REPEAT_Assigner
_cell_length_a                    10.209058
_cell_length_b                    17.973999
_cell_length_c                    13.028534
_cell_angle_alpha                 108.158279
_cell_angle_beta                  82.930260
_cell_angle_gamma                 88.253213
_cell_volume                      2248.359460
_symmetry_space_group_name_H-M    P1
_symmetry_Int_Tables_number       1
loop_
    _symmetry_equiv_pos_site_id
    _symmetry_equiv_pos_as_xyz
    1  x,y,z
loop_
    _atom_site_type_symbol
    _atom_site_label
    _atom_site_fract_x
    _atom_site_fract_y
    _atom_site_fract_z
    _atom_type_partial_charge
    C   C1   0.829307  0.028202  0.070656  0.005616
    C   C2   0.764734  0.027839  0.983301  -0.124399
    H   H1   0.658655  0.039060  0.994222  0.136500
    C   C3   0.829375  0.000751  0.878496  0.067978
    C   C4   0.962290  0.978045  0.859946  -0.182566
    H   H2   0.007466  0.951171  0.776585  0.151166
    C   C5   0.033814  0.988164  0.946908  0.094278
    C   C6   0.966537  0.012071  0.053239  0.095464
    H   H3   0.992899  0.049080  0.223559  0.151213
    C   C7   0.038068  0.022197  0.140199  -0.183730
    C   C8   0.170989  0.999503  0.121647  0.069202
    H   H4   0.341711  0.961207  0.005912  0.136644
    C   C9   0.235628  0.972411  0.016840  -0.125250
    C   C10  0.171043  0.972039  0.929489  0.005843
    O   O1   0.618924  0.056589  0.182974  -0.583392
    C   C11  0.744409  0.033382  0.173394  0.550632
    O   O2   0.612641  0.871178  0.170972  -0.474123
    O   O3   0.782037  0.996802  0.238764  -0.457116
    O   O4   0.553373  0.939776  0.347958  -0.600162
    C   C12  0.608837  0.875442  0.273600  0.714076
    Fe  Fe1  0.497059  0.020762  0.285315  1.453981
    O   O5   0.354606  0.967999  0.201876  -0.617425
    O   O6   0.238231  0.086107  0.283541  -0.546531
    C   C13  0.250721  0.015909  0.211009  0.681505
    O   O7   0.452738  0.120946  0.409707  -0.624901
    O   O8   0.324116  0.043637  0.481973  -0.450439
    C   C14  0.375194  0.111313  0.492100  0.801796
    O   O9   0.547657  0.879336  0.590342  -0.624710
    O   O10  0.676216  0.956676  0.518088  -0.449771
    C   C15  0.625170  0.888989  0.507947  0.799999
    O   O11  0.645760  0.032309  0.798317  -0.617556
    O   O12  0.762161  0.914221  0.716528  -0.546279
    C   C16  0.749649  0.984390  0.789133  0.681500
    O   O13  0.218294  0.003525  0.761451  -0.456994
    O   O14  0.447035  0.060570  0.652104  -0.601400
    C   C17  0.391500  0.124888  0.726452  0.714612
    O   O15  0.381395  0.943641  0.817115  -0.583544
    C   C18  0.255917  0.966882  0.826751  0.550648
    O   O16  0.387589  0.129134  0.829081  -0.474439
    Fe  Fe2  0.503243  0.979578  0.714773  1.455145
    C   C19  0.978255  0.613063  0.373395  0.452545
    N   N1   0.846774  0.631382  0.401673  -0.137678
    C   C20  0.774809  0.598013  0.467285  0.407621
    C   C21  0.835107  0.544956  0.507354  -0.075631
    C   C22  0.969275  0.526209  0.479788  0.090089
    C   C23  0.041350  0.560030  0.411913  -0.123894
    C   C24  0.762447  0.510967  0.575376  -0.057627
    C   C25  0.824151  0.458796  0.615508  -0.027272
    C   C26  0.959049  0.440275  0.588065  -0.123478
    C   C27  0.031123  0.474095  0.520187  0.088546
    C   C28  0.165291  0.455348  0.492621  -0.073335
    C   C29  0.237951  0.489336  0.424597  -0.057360
    C   C30  0.176247  0.541508  0.384468  -0.028630
    C   C31  0.022145  0.387247  0.626588  0.452103
    N   N2   0.153625  0.368929  0.598312  -0.137012
    C   C32  0.225590  0.402293  0.532694  0.405020
    O   O17  0.048773  0.648602  0.310540  -0.464907
    O   O18  0.643667  0.616180  0.493142  -0.465473
    H   H5   0.656991  0.524586  0.598375  0.135696
    H   H6   0.765024  0.433059  0.668445  0.121217
    O   O19  0.951628  0.351712  0.689450  -0.465246
    O   O20  0.356731  0.384125  0.506837  -0.465181
    H   H7   0.343406  0.475717  0.401598  0.135752
    H   H8   0.235374  0.567246  0.331532  0.121654
    C   C33  0.269913  0.241349  0.554725  -0.250574
    H   H9   0.265262  0.233482  0.469589  0.215529
    C   C34  0.324090  0.181021  0.583834  0.001078
    C   C35  0.329016  0.189245  0.694263  -0.232083
    C   C36  0.274999  0.260482  0.772542  0.322045
    C   C37  0.218141  0.319004  0.740068  -0.300048
    H   H10  0.175905  0.373503  0.799842  0.166057
    C   C38  0.215496  0.309619  0.631643  0.260826
    C   C39  0.730479  0.758962  0.445288  -0.247668
    H   H11  0.735131  0.766817  0.530421  0.214940
    C   C40  0.676289  0.819295  0.416197  0.000200
    C   C41  0.671358  0.811086  0.305771  -0.230485
    C   C42  0.725404  0.739860  0.227477  0.319855
    C   C43  0.782271  0.681332  0.259935  -0.298371
    H   H12  0.824520  0.626841  0.200151  0.166077
    C   C44  0.784905  0.690700  0.368357  0.257575
    C   C45  0.275663  0.278091  0.892632  -0.349605
    H   H13  0.378756  0.275186  0.910640  0.109128
    H   H14  0.231429  0.338248  0.937735  0.078836
    H   H15  0.215345  0.236934  0.922791  0.128541
    C   C46  0.724778  0.722273  0.107387  -0.347723
    H   H16  0.621691  0.725140  0.089351  0.108819
    H   H17  0.785051  0.763465  0.077269  0.128112
    H   H18  0.769082  0.662134  0.062267  0.078352
