# Generated by REPEAT Assigner based on pymatgen
data_DB0-m3_o23_o28_f0_pcu.sym.104
_audit_creation_date              2022-05-24
_audit_creation_method            REPEAT_Assigner
_cell_length_a                    15.964167
_cell_length_b                    14.800271
_cell_length_c                    23.426465
_cell_angle_alpha                 90.000000
_cell_angle_beta                  90.013372
_cell_angle_gamma                 90.000000
_cell_volume                      5535.064022
_symmetry_space_group_name_H-M    P1
_symmetry_Int_Tables_number       1
loop_
    _symmetry_equiv_pos_site_id
    _symmetry_equiv_pos_as_xyz
    1  x,y,z
loop_
    _atom_site_type_symbol
    _atom_site_label
    _atom_site_fract_x
    _atom_site_fract_y
    _atom_site_fract_z
    _atom_type_partial_charge
    O   O1   0.376796  0.584053  0.495299  -0.702821
    O   O2   0.375385  0.427915  0.495071  -0.701952
    C   C1   0.337210  0.506361  0.495466  0.943586
    O   O3   0.501477  0.583370  0.410144  -0.654890
    O   O4   0.499692  0.427406  0.409929  -0.648850
    C   C2   0.500734  0.505498  0.383324  0.688845
    Zn  Zn1  0.501827  0.607999  0.495254  1.092804
    Zn  Zn2  0.500097  0.402321  0.495000  1.090777
    O   O5   0.626479  0.582345  0.494947  -0.667020
    O   O6   0.625019  0.426329  0.494753  -0.694629
    O   O7   0.502056  0.582861  0.580260  -0.658468
    O   O8   0.500206  0.427005  0.580071  -0.655713
    C   C3   0.664611  0.503906  0.495021  0.872856
    C   C4   0.501468  0.504863  0.606885  0.699962
    C   C5   0.570614  0.522963  0.877412  0.453522
    N   N1   0.499479  0.505612  0.848477  -0.189782
    C   C6   0.427314  0.489278  0.876429  0.473389
    C   C7   0.425268  0.490159  0.935463  -0.106425
    C   C8   0.497291  0.507169  0.965703  0.083752
    C   C9   0.570607  0.523731  0.936451  -0.087496
    C   C10  0.351392  0.475272  0.964333  -0.102016
    C   C11  0.348980  0.476154  0.023123  0.181750
    C   C12  0.422367  0.491589  0.054319  -0.093679
    C   C13  0.496093  0.507740  0.024745  0.003819
    C   C14  0.569117  0.524802  0.054338  -0.048456
    C   C15  0.642653  0.541344  0.025003  -0.079979
    C   C16  0.643426  0.540858  0.966307  -0.054430
    C   C17  0.424855  0.491183  0.113991  0.377366
    N   N2   0.497197  0.507796  0.141733  -0.131072
    C   C18  0.568483  0.524961  0.113189  0.436852
    O   O9   0.642008  0.537991  0.848561  -0.489021
    O   O10  0.356877  0.473821  0.846570  -0.479645
    H   H1   0.293673  0.463316  0.941469  0.099687
    O   O11  0.355956  0.474914  0.145227  -0.417382
    O   O12  0.639511  0.540369  0.142404  -0.488787
    H   H2   0.700541  0.554875  0.047309  0.128750
    H   H3   0.701769  0.554041  0.944486  0.125002
    C   C19  0.509601  0.586522  0.232336  -0.162248
    H   H4   0.517374  0.649489  0.209562  0.126230
    C   C20  0.510116  0.586127  0.291175  -0.092112
    H   H5   0.518862  0.649285  0.313523  0.115156
    C   C21  0.500183  0.505909  0.320724  -0.021968
    C   C22  0.489453  0.426247  0.290716  -0.087991
    H   H6   0.481373  0.362686  0.312722  0.113572
    C   C23  0.488080  0.427039  0.231869  -0.175018
    H   H7   0.479576  0.364532  0.208710  0.127313
    C   C24  0.498233  0.507112  0.202549  0.197083
    C   C25  0.513840  0.584449  0.758041  -0.179801
    H   H8   0.523509  0.646996  0.780941  0.131783
    C   C26  0.513831  0.584473  0.699202  -0.080907
    H   H9   0.524228  0.647448  0.676977  0.109411
    C   C27  0.501412  0.504837  0.669476  -0.028957
    C   C28  0.488650  0.425353  0.699293  -0.090672
    H   H10  0.478528  0.362278  0.677118  0.112923
    C   C29  0.487617  0.425783  0.758147  -0.173104
    H   H11  0.477395  0.363430  0.781144  0.130702
    C   C30  0.500411  0.505241  0.787655  0.233561
    C   C31  0.047320  0.585671  0.527522  -0.225126
    C   C32  0.050359  0.417136  0.521689  -0.229882
    C   C33  0.955032  0.414318  0.526134  0.059459
    C   C34  0.952317  0.581133  0.529408  0.111862
    H   H12  0.938904  0.566760  0.574499  0.024958
    H   H13  0.938426  0.423810  0.571490  0.014146
    H   H14  0.071388  0.582687  0.571882  0.044054
    H   H15  0.077880  0.413216  0.565022  0.047875
    H   H16  0.072776  0.359389  0.495679  0.044196
    H   H17  0.070668  0.648982  0.508109  0.018584
    C   C35  0.754381  0.502751  0.494884  -0.218602
    C   C36  0.080311  0.504890  0.494702  0.622982
    C   C37  0.921568  0.498849  0.494821  0.295003
    C   C38  0.955559  0.502008  0.433505  0.051620
    C   C39  0.049869  0.509819  0.433889  -0.133166
    C   C40  0.829837  0.501217  0.494881  -0.216246
    C   C41  0.171890  0.506532  0.495090  -0.246175
    C   C42  0.247349  0.506986  0.495317  -0.293188
    H   H18  0.069871  0.574240  0.414068  0.008579
    H   H19  0.076947  0.453135  0.409049  0.027241
    H   H20  0.927052  0.558136  0.409232  -0.008700
    H   H21  0.941187  0.440325  0.409239  -0.016056
    C   C43  0.420791  0.055455  0.464146  -0.137886
    C   C44  0.418727  0.953390  0.468087  -0.154226
    C   C45  0.501070  0.056374  0.554508  -0.096352
    C   C46  0.508113  0.954389  0.554401  -0.194057
    H   H22  0.365589  0.932199  0.495471  0.050168
    H   H23  0.364339  0.083827  0.485099  0.062857
    H   H24  0.555649  0.085721  0.577177  0.048114
    H   H25  0.569717  0.934165  0.572173  0.064657
    H   H26  0.442783  0.076746  0.576798  0.050964
    H   H27  0.457614  0.925228  0.581166  0.066495
    N   N3   0.501181  0.743041  0.494203  -0.080400
    N   N4   0.497931  0.267299  0.493669  -0.071022
    C   C47  0.498946  0.090355  0.493500  0.516096
    C   C48  0.500210  0.919972  0.493721  0.626044
    C   C49  0.573133  0.954611  0.458558  -0.257723
    C   C50  0.575784  0.056739  0.461968  -0.077396
    C   C51  0.500798  0.821192  0.493926  -0.176857
    C   C52  0.498219  0.189144  0.493493  -0.173821
    H   H28  0.577000  0.085364  0.418232  0.057270
    H   H29  0.565225  0.933522  0.413455  0.076021
    H   H30  0.633096  0.078171  0.485060  0.042035
    H   H31  0.632643  0.926401  0.475254  0.086342
    H   H32  0.421341  0.076144  0.418652  0.054193
    H   H33  0.410357  0.924389  0.424817  0.062260
    C   C53  0.921131  0.320110  0.511115  -0.170420
    C   C54  0.941122  0.245876  0.546169  0.333092
    C   C55  0.994173  0.253448  0.598761  -0.399191
    C   C56  0.910196  0.160756  0.533547  -0.313457
    C   C57  0.858776  0.147013  0.487506  -0.053693
    C   C58  0.836573  0.218742  0.453916  -0.201581
    C   C59  0.866528  0.303974  0.465557  -0.022290
    H   H34  0.970809  0.307252  0.627487  0.107381
    H   H35  0.060523  0.264799  0.587150  0.108261
    H   H36  0.991891  0.189440  0.623218  0.102575
    H   H37  0.926010  0.103356  0.559944  0.130381
    H   H38  0.834938  0.080220  0.478289  0.093056
    H   H39  0.794679  0.208520  0.418241  0.103847
    H   H40  0.843720  0.356038  0.437874  0.107814
    C   C60  0.909499  0.669972  0.514248  -0.121533
    C   C61  0.848677  0.708820  0.549941  0.311919
    C   C62  0.822817  0.667953  0.605724  -0.391221
    C   C63  0.810170  0.788840  0.534123  -0.286584
    C   C64  0.831725  0.832035  0.484364  -0.069632
    C   C65  0.892751  0.796121  0.450013  -0.206921
    C   C66  0.931393  0.716381  0.464824  -0.070166
    H   H41  0.798628  0.598550  0.599277  0.111240
    H   H42  0.772343  0.708477  0.625662  0.111969
    H   H43  0.876788  0.667071  0.635547  0.082789
    H   H44  0.762755  0.819069  0.560939  0.124971
    H   H45  0.801423  0.894681  0.472685  0.108241
    H   H46  0.910761  0.830693  0.411272  0.110172
    H   H47  0.979974  0.692071  0.436969  0.121444
    C   C67  0.266471  0.464205  0.049291  -0.025462
    C   C68  0.232507  0.379158  0.059331  0.267334
    C   C69  0.278742  0.293572  0.046797  -0.338305
    C   C70  0.153142  0.372316  0.082328  -0.248506
    C   C71  0.107596  0.448765  0.095085  -0.104408
    C   C72  0.141031  0.532882  0.084706  -0.124611
    C   C73  0.220059  0.540463  0.061649  -0.136150
    H   H48  0.342792  0.304993  0.030323  0.072269
    H   H49  0.243010  0.254110  0.014760  0.083429
    H   H50  0.283518  0.253378  0.086611  0.101187
    H   H51  0.126420  0.306462  0.090466  0.136490
    H   H52  0.045525  0.442679  0.113103  0.114241
    H   H53  0.105214  0.592905  0.094462  0.115862
    H   H54  0.245984  0.606589  0.053188  0.091817
