# Generated by REPEAT Assigner based on pymatgen
data_DB0-m2_o12_o25_f0_pcu.sym.13
_audit_creation_date              2022-05-24
_audit_creation_method            REPEAT_Assigner
_cell_length_a                    15.985619
_cell_length_b                    11.235198
_cell_length_c                    9.786133
_cell_angle_alpha                 111.772268
_cell_angle_beta                  99.539986
_cell_angle_gamma                 90.005279
_cell_volume                      1606.012349
_symmetry_space_group_name_H-M    P1
_symmetry_Int_Tables_number       1
loop_
    _symmetry_equiv_pos_site_id
    _symmetry_equiv_pos_as_xyz
    1  x,y,z
loop_
    _atom_site_type_symbol
    _atom_site_label
    _atom_site_fract_x
    _atom_site_fract_y
    _atom_site_fract_z
    _atom_type_partial_charge
    O   O1   0.503034  0.337276  0.581945  -0.492443
    O   O2   0.498586  0.663809  0.418832  -0.474692
    O   O3   0.484568  0.296564  0.329993  -0.609885
    O   O4   0.512774  0.704448  0.669884  -0.602252
    C   C1   0.492745  0.257541  0.442947  0.478023
    C   C2   0.506864  0.743109  0.557601  0.468911
    O   O5   0.388700  0.515984  0.619773  -0.586967
    O   O6   0.610599  0.481513  0.379871  -0.594409
    O   O7   0.366605  0.487453  0.370254  -0.586766
    O   O8   0.632795  0.516177  0.630045  -0.575569
    C   C3   0.338529  0.501319  0.493535  0.812366
    C   C4   0.660560  0.497350  0.505766  0.808297
    Cu  Cu1  0.511467  0.524573  0.646396  0.910908
    Cu  Cu2  0.487312  0.476794  0.353764  0.916420
    C   C5   0.978563  0.410217  0.545402  0.066209
    C   C6   0.020036  0.589537  0.454595  0.017879
    C   C7   0.016764  0.388509  0.407643  0.039612
    C   C8   0.981737  0.611043  0.592200  0.086064
    C   C9   0.248236  0.499922  0.490294  -0.212469
    C   C10  0.750295  0.497108  0.508640  -0.211127
    C   C11  0.042546  0.522235  0.633769  0.053880
    C   C12  0.955984  0.477619  0.366645  0.104948
    C   C13  0.081726  0.500443  0.495803  0.701341
    C   C14  0.916614  0.499075  0.504254  0.649500
    C   C15  0.172856  0.499674  0.491206  -0.269048
    C   C16  0.825564  0.497653  0.508260  -0.261591
    C   C17  0.484932  0.119291  0.410185  0.209110
    C   C18  0.514068  0.882243  0.591550  0.196584
    C   C19  0.505827  0.070142  0.516788  0.106106
    C   C20  0.494430  0.930315  0.483468  0.095066
    N   N1   0.468262  0.443278  0.134900  -0.114079
    N   N2   0.532290  0.558406  0.865477  -0.111486
    C   C21  0.513177  0.506026  0.080517  0.281024
    C   C22  0.490503  0.494966  0.921164  0.338915
    O   O9   0.036350  0.269822  0.309226  -0.566299
    H   H1   0.981624  0.217519  0.267944  0.386569
    O   O10  0.964946  0.730758  0.690537  -0.568080
    H   H2   0.021526  0.777872  0.727406  0.385586
    O   O11  0.957588  0.314064  0.593605  -0.573230
    H   H3   0.012402  0.276470  0.610480  0.388565
    O   O12  0.042977  0.685618  0.406697  -0.576086
    H   H4   0.989820  0.726474  0.386973  0.392929
    O   O13  0.912335  0.454163  0.223079  -0.570275
    H   H5   0.958709  0.445112  0.165130  0.380416
    O   O14  0.088699  0.546506  0.776886  -0.570700
    H   H6   0.045654  0.555990  0.841761  0.384773
    O   O15  0.463148  0.848504  0.339298  -0.444331
    H   H7   0.401812  0.831720  0.336257  0.350940
    O   O16  0.542199  0.150184  0.658566  -0.440443
    H   H8   0.603919  0.154223  0.656656  0.347851
    O   O17  0.539302  0.961633  0.738537  -0.442729
    H   H9   0.485598  0.982632  0.777452  0.328533
    O   O18  0.458595  0.040610  0.264202  -0.448760
    H   H10  0.511413  0.033726  0.222542  0.329445
    O   O19  0.426504  0.409227  0.827048  -0.413961
    H   H11  0.450238  0.326125  0.817736  0.350874
    O   O20  0.584988  0.578297  0.171384  -0.397073
    H   H12  0.568684  0.668143  0.213187  0.344170
    O   O21  0.606512  0.615871  0.945415  -0.359383
    H   H13  0.599962  0.707642  0.963380  0.356815
    O   O22  0.390824  0.396217  0.057821  -0.356223
    H   H14  0.389946  0.303438  0.040900  0.361729
