# Generated by REPEAT Assigner based on pymatgen
data_DB0-m3_o12_o29_f0_pcu.sym.10
_audit_creation_date              2022-05-24
_audit_creation_method            REPEAT_Assigner
_cell_length_a                    10.218764
_cell_length_b                    11.295054
_cell_length_c                    27.664064
_cell_angle_alpha                 89.993275
_cell_angle_beta                  80.586780
_cell_angle_gamma                 92.488451
_cell_volume                      3146.976546
_symmetry_space_group_name_H-M    P1
_symmetry_Int_Tables_number       1
loop_
    _symmetry_equiv_pos_site_id
    _symmetry_equiv_pos_as_xyz
    1  x,y,z
loop_
    _atom_site_type_symbol
    _atom_site_label
    _atom_site_fract_x
    _atom_site_fract_y
    _atom_site_fract_z
    _atom_type_partial_charge
    O   O1   0.418336  0.688660  0.504753  -0.662491
    O   O2   0.578352  0.315060  0.494124  -0.628285
    O   O3   0.644348  0.665472  0.491127  -0.688526
    O   O4   0.352295  0.338273  0.507136  -0.697189
    C   C1   0.540980  0.732311  0.498124  0.821868
    C   C2   0.455664  0.271441  0.501662  0.815559
    O   O5   0.382455  0.512127  0.578055  -0.612454
    O   O6   0.613961  0.490967  0.420793  -0.642792
    O   O7   0.608564  0.488709  0.565175  -0.585901
    O   O8   0.388334  0.515746  0.433648  -0.610826
    C   C3   0.494849  0.499911  0.594306  0.626577
    C   C4   0.501807  0.503815  0.404519  0.674646
    Zn  Zn1  0.349238  0.517576  0.507843  1.064229
    Zn  Zn2  0.647403  0.486161  0.490983  1.025174
    C   C5   0.558599  0.584123  0.819322  0.392276
    C   C6   0.423985  0.426394  0.180381  0.388509
    O   O9   0.622104  0.671702  0.790603  -0.488166
    O   O10  0.345888  0.348643  0.210049  -0.487022
    N   N1   0.491211  0.497382  0.799385  -0.117718
    N   N2   0.505583  0.503342  0.199356  -0.117942
    C   C7   0.424409  0.409716  0.827367  0.304592
    C   C8   0.587236  0.580235  0.170257  0.311488
    C   C9   0.609272  0.486997  0.715785  -0.248177
    C   C10  0.390001  0.526635  0.282853  -0.230676
    C   C11  0.610302  0.487396  0.665892  0.017404
    C   C12  0.388890  0.526533  0.332760  0.012949
    C   C13  0.375800  0.509689  0.679537  -0.061434
    C   C14  0.618361  0.482341  0.319494  -0.086330
    C   C15  0.375027  0.508870  0.729447  -0.212938
    C   C16  0.619037  0.481923  0.269600  -0.185383
    C   C17  0.491738  0.497616  0.747762  0.270773
    C   C18  0.504934  0.504130  0.251031  0.245871
    C   C19  0.493334  0.496409  0.898879  -0.108360
    C   C20  0.504863  0.502318  0.099721  -0.100404
    C   C21  0.560789  0.584580  0.869050  0.012542
    C   C22  0.422048  0.425437  0.130628  0.011244
    C   C23  0.628890  0.674578  0.889029  -0.101586
    C   C24  0.336151  0.347986  0.111867  -0.107589
    C   C25  0.423657  0.407424  0.877978  0.118570
    C   C26  0.589911  0.580381  0.119545  0.110479
    C   C27  0.493546  0.498930  0.647434  -0.084366
    C   C28  0.503125  0.504396  0.351400  -0.078632
    H   H1   0.283145  0.519010  0.666169  0.117767
    H   H2   0.708868  0.464179  0.333034  0.123499
    H   H3   0.282583  0.518273  0.754172  0.142446
    H   H4   0.709307  0.462880  0.245113  0.136295
    H   H5   0.679497  0.746461  0.866704  0.135865
    H   H6   0.267883  0.288868  0.135392  0.140628
    C   C29  0.581079  0.581143  0.018769  -0.034759
    C   C30  0.423887  0.412327  0.979379  -0.012486
    C   C31  0.419889  0.418335  0.030206  0.034390
    C   C32  0.571394  0.584994  0.968874  0.058975
    C   C33  0.501987  0.500587  0.049480  0.107350
    C   C34  0.496160  0.497884  0.949128  0.094735
    C   C35  0.670350  0.654978  0.038668  -0.040952
    C   C36  0.358277  0.321410  0.957849  -0.059563
    C   C37  0.675614  0.655455  0.087916  -0.046834
    C   C38  0.357294  0.318079  0.908321  -0.040936
    O   O11  0.661893  0.658850  0.191432  -0.423372
    O   O12  0.361364  0.324175  0.805178  -0.425599
    C   C39  0.634090  0.675249  0.938181  -0.151312
    C   C40  0.334413  0.344523  0.062485  -0.135563
    H   H7   0.297626  0.544653  0.356791  0.057441
    H   H8   0.703705  0.478540  0.641740  0.071621
    H   H9   0.300356  0.545402  0.268789  0.154335
    H   H10  0.701067  0.477223  0.729751  0.152607
    H   H11  0.743756  0.712167  0.016813  0.053714
    H   H12  0.308735  0.246497  0.978028  0.063142
    H   H13  0.685121  0.751324  0.950911  0.153545
    H   H14  0.260412  0.284667  0.051386  0.143167
    C   C41  0.565806  0.861644  0.495849  -0.108647
    C   C42  0.430980  0.142145  0.502132  -0.144066
    C   C43  0.479580  0.938214  0.518589  0.028759
    C   C44  0.514890  0.066005  0.516378  0.056505
    N   N3   0.843263  0.463721  0.479843  -0.110921
    N   N4   0.153382  0.540040  0.518883  -0.219460
    C   C45  0.926680  0.516499  0.503775  0.044197
    C   C46  0.070190  0.488086  0.494618  0.107966
    H   H15  0.117457  0.601301  0.544436  0.219089
    H   H16  0.878740  0.400900  0.454935  0.161082
    Cl  Cl1  0.284890  0.087647  0.482614  -0.012066
    Cl  Cl2  0.715049  0.915798  0.460607  -0.021720
    Cl  Cl3  0.128888  0.381968  0.450573  0.139558
    Cl  Cl4  0.868409  0.624271  0.547131  0.122743
    Cl  Cl5  0.798027  0.752330  0.105883  -0.014510
    Cl  Cl6  0.268930  0.195730  0.888133  -0.012390
    Cl  Cl7  0.654394  0.115201  0.542022  -0.050087
    Cl  Cl8  0.335726  0.890139  0.559170  -0.035742
