# Generated by REPEAT Assigner based on pymatgen
data_DB0-m3_o12_o22_f0_pcu.sym.41
_audit_creation_date              2022-05-24
_audit_creation_method            REPEAT_Assigner
_cell_length_a                    10.013197
_cell_length_b                    10.782207
_cell_length_c                    11.245004
_cell_angle_alpha                 89.996974
_cell_angle_beta                  92.449220
_cell_angle_gamma                 80.896705
_cell_volume                      1197.644675
_symmetry_space_group_name_H-M    P1
_symmetry_Int_Tables_number       1
loop_
    _symmetry_equiv_pos_site_id
    _symmetry_equiv_pos_as_xyz
    1  x,y,z
loop_
    _atom_site_type_symbol
    _atom_site_label
    _atom_site_fract_x
    _atom_site_fract_y
    _atom_site_fract_z
    _atom_type_partial_charge
    O   O1   0.566937  0.487589  0.310990  -0.664292
    O   O2   0.337734  0.522064  0.342434  -0.714088
    C   C1   0.440047  0.506387  0.271842  0.855805
    O   O3   0.605618  0.298035  0.487073  -0.701816
    O   O4   0.376694  0.332520  0.519010  -0.650876
    C   C2   0.491118  0.257120  0.503414  0.678426
    Zn  Zn1  0.643814  0.476808  0.480908  1.060871
    Zn  Zn2  0.341780  0.522799  0.522754  1.082939
    O   O5   0.647824  0.477281  0.661228  -0.718838
    O   O6   0.418687  0.512202  0.692659  -0.671267
    O   O7   0.608971  0.667013  0.485015  -0.568158
    O   O8   0.379915  0.701656  0.516436  -0.654898
    C   C3   0.545544  0.493120  0.731823  0.866851
    C   C4   0.494468  0.742444  0.499611  0.518864
    C   C5   0.616945  0.054799  0.441227  -0.007542
    H   H1   0.710154  0.071211  0.491642  0.029105
    H   H2   0.618794  0.092999  0.349868  -0.011698
    C   C6   0.617182  0.914208  0.437058  -0.260985
    H   H3   0.710402  0.869164  0.486656  0.079080
    H   H4   0.596359  0.084587  0.672747  0.035374
    H   H5   0.597666  0.878420  0.672545  0.014163
    C   C7   0.499636  0.066596  0.629661  -0.055192
    C   C8   0.368297  0.087438  0.431441  -0.098104
    C   C9   0.491819  0.118111  0.502418  0.130573
    H   H6   0.272901  0.141602  0.462228  0.010780
    H   H7   0.376277  0.111805  0.336507  -0.019294
    C   C10  0.494290  0.881300  0.499803  0.178203
    C   C11  0.502101  0.925310  0.627819  -0.035380
    C   C12  0.362162  0.948536  0.442426  0.046996
    H   H8   0.340755  0.908945  0.354085  -0.006389
    H   H9   0.277075  0.937114  0.499271  -0.034619
    H   H10  0.416485  0.899924  0.676838  0.005278
    H   H11  0.371019  0.517100  0.906538  0.100102
    H   H12  0.614552  0.481096  0.097097  0.096016
    C   C13  0.410288  0.510567  0.142991  -0.383819
    C   C14  0.509277  0.496381  0.066041  0.054072
    H   H13  0.680023  0.473231  0.893421  0.164037
    C   C15  0.575289  0.488466  0.860671  -0.414831
    C   C16  0.476289  0.501977  0.937605  0.034865
    H   H14  0.305549  0.526006  0.110250  0.147725
    H   H15  0.876801  0.578918  0.574801  0.122699
    H   H16  0.108816  0.420631  0.429005  0.120577
    N   N1   0.143443  0.553879  0.551076  -0.306116
    C   C17  0.065897  0.489759  0.492495  0.147922
    H   H17  0.888967  0.381741  0.393784  0.248132
    N   N2   0.842179  0.445674  0.452719  -0.244973
    C   C18  0.919717  0.509804  0.511296  0.073988
    H   H18  0.096644  0.617903  0.609925  0.263998
    C   C19  0.388398  0.129959  0.703857  0.602273
    O   O9   0.416385  0.195337  0.786866  -0.528660
    O   O10  0.259136  0.112528  0.682489  -0.273105
    C   C20  0.157710  0.168746  0.751914  0.251681
    C   C21  0.024350  0.132649  0.707455  -0.273533
    H   H19  0.150846  0.272324  0.746633  -0.009686
    H   H20  0.178707  0.136803  0.845604  -0.003966
    H   H21  0.002674  0.164356  0.613809  0.066452
    H   H22  0.942162  0.177981  0.763464  0.083136
    H   H23  0.030531  0.029166  0.712536  0.083960
    C   C22  0.625488  0.868814  0.311045  0.725251
    O   O11  0.720095  0.789292  0.284718  -0.602351
    O   O12  0.534153  0.919183  0.225754  -0.227731
    C   C23  0.544269  0.880718  0.109784  0.120675
    C   C24  0.428053  0.952449  0.034938  -0.183640
    H   H24  0.539342  0.778829  0.104331  0.021254
    H   H25  0.641310  0.899636  0.075326  0.027441
    H   H26  0.330699  0.933781  0.068834  0.062716
    H   H27  0.436034  0.921631  0.941071  0.044738
    H   H28  0.432286  0.054473  0.040116  0.068833
