# Generated by REPEAT Assigner based on pymatgen
data_DB0-m3_o32_o32_pto.sym.122
_audit_creation_date              2022-05-24
_audit_creation_method            REPEAT_Assigner
_cell_length_a                    27.445612
_cell_length_b                    27.500226
_cell_length_c                    27.482761
_cell_angle_alpha                 90.182415
_cell_angle_beta                  90.058274
_cell_angle_gamma                 90.055988
_cell_volume                      20742.776979
_symmetry_space_group_name_H-M    P1
_symmetry_Int_Tables_number       1
loop_
    _symmetry_equiv_pos_site_id
    _symmetry_equiv_pos_as_xyz
    1  x,y,z
loop_
    _atom_site_type_symbol
    _atom_site_label
    _atom_site_fract_x
    _atom_site_fract_y
    _atom_site_fract_z
    _atom_type_partial_charge
    C   C1    0.138463  0.962093  0.883819  -0.238251
    C   C2    0.958894  0.093507  0.089526  -0.117077
    C   C3    0.503652  0.354766  0.147388  0.123026
    C   C4    0.503270  0.425991  0.076046  0.101552
    C   C5    0.503008  0.463674  0.038250  0.043857
    C   C6    0.647183  0.644866  0.002875  0.124553
    C   C7    0.575743  0.573286  0.002804  0.103296
    C   C8    0.538067  0.535226  0.002771  0.042891
    C   C9    0.502233  0.534746  0.967377  -0.163259
    C   C10   0.467434  0.463496  0.002637  -0.161185
    C   C11   0.538278  0.499565  0.038098  -0.168416
    C   C12   0.045589  0.124068  0.371783  -0.209133
    C   C13   0.116308  0.042566  0.860462  -0.375656
    C   C14   0.045360  0.088487  0.406975  -0.111754
    C   C15   0.877667  0.869671  0.456838  -0.203781
    C   C16   0.913047  0.905251  0.456978  -0.116035
    C   C17   0.131727  0.957303  0.624808  -0.200851
    C   C18   0.096227  0.957022  0.589311  -0.123290
    C   C19   0.125912  0.043702  0.630210  -0.196568
    C   C20   0.090340  0.043370  0.594810  -0.122381
    C   C21   0.873006  0.874276  0.543390  -0.199286
    C   C22   0.908240  0.910030  0.543480  -0.123627
    C   C23   0.958895  0.128470  0.375740  -0.204461
    C   C24   0.079441  0.042987  0.894737  0.221364
    C   C25   0.958714  0.093045  0.411109  -0.117011
    C   C26   0.002352  0.144268  0.355937  0.138434
    C   C27   0.001943  0.072765  0.427010  0.093403
    C   C28   0.001814  0.035090  0.464841  0.047272
    C   C29   0.857453  0.853938  0.500046  0.124558
    C   C30   0.928562  0.925782  0.500280  0.103054
    C   C31   0.966255  0.963790  0.500379  0.041320
    C   C32   0.146812  0.000664  0.645430  0.123630
    C   C33   0.075264  0.000048  0.574053  0.106338
    C   C34   0.037460  0.999776  0.536186  0.041670
    C   C35   0.145859  0.002324  0.854932  0.152711
    C   C36   0.037214  0.035155  0.500620  -0.163797
    C   C37   0.966370  0.999347  0.464928  -0.164973
    C   C38   0.001938  0.964157  0.535880  -0.164834
    C   C39   0.457886  0.123865  0.371929  -0.202833
    C   C40   0.457917  0.088203  0.407054  -0.118372
    C   C41   0.626511  0.870125  0.455969  -0.198941
    C   C42   0.590762  0.905295  0.456226  -0.121720
    C   C43   0.372711  0.955378  0.625551  -0.198104
    C   C44   0.407911  0.955366  0.589801  -0.118607
    C   C45   0.377310  0.041877  0.630170  -0.197316
    C   C46   0.073592  0.003092  0.925245  -0.083377
    C   C47   0.412678  0.041817  0.594609  -0.120186
    C   C48   0.631166  0.874471  0.542540  -0.200572
    C   C49   0.595602  0.909806  0.542748  -0.123165
    C   C50   0.544564  0.128362  0.376451  -0.201772
    C   C51   0.544547  0.092858  0.411732  -0.120414
    C   C52   0.501222  0.144119  0.356367  0.129992
    C   C53   0.501238  0.072439  0.427271  0.100845
    C   C54   0.501267  0.034455  0.464794  0.044064
    C   C55   0.646880  0.854451  0.499142  0.126845
    C   C56   0.575050  0.925454  0.499611  0.104930
    C   C57   0.036813  0.001956  0.963797  0.154611
    C   C58   0.537068  0.963115  0.499883  0.039343
    C   C59   0.357131  0.998653  0.645893  0.119448
    C   C60   0.428205  0.998581  0.574053  0.100963
    C   C61   0.465826  0.998592  0.535987  0.041008
    C   C62   0.465873  0.034128  0.500529  -0.162891
    C   C63   0.536759  0.998849  0.464649  -0.164257
    C   C64   0.501507  0.963162  0.535462  -0.161479
    C   C65   0.877637  0.628554  0.458910  -0.197043
    C   C66   0.913093  0.593078  0.459198  -0.126816
    C   C67   0.130117  0.541340  0.628288  -0.207544
    C   C68   0.001496  0.144418  0.146092  0.117866
    C   C69   0.094384  0.541355  0.593039  -0.126415
    C   C70   0.045190  0.374710  0.372924  -0.196702
    C   C71   0.044947  0.410114  0.408503  -0.118231
    C   C72   0.958488  0.370034  0.376838  -0.197044
    C   C73   0.958296  0.405288  0.412583  -0.120682
    C   C74   0.127071  0.454735  0.631049  -0.169209
    C   C75   0.090999  0.454789  0.596098  -0.157882
    C   C76   0.871342  0.623039  0.545269  -0.201955
    C   C77   0.906706  0.587494  0.545509  -0.122304
    C   C78   0.856549  0.643766  0.501961  0.130050
    C   C79   0.002338  0.072793  0.074808  0.117704
    C   C80   0.927874  0.572231  0.502488  0.105260
    C   C81   0.965531  0.534249  0.502739  0.048084
    C   C82   0.146750  0.498031  0.647453  0.130688
    C   C83   0.074432  0.498101  0.576698  0.117222
    C   C84   0.036501  0.498204  0.538827  0.047161
    C   C85   0.001955  0.354475  0.356865  0.120501
    C   C86   0.001517  0.425610  0.428682  0.098684
    C   C87   0.001305  0.463160  0.466830  0.049513
    C   C88   0.965931  0.498862  0.466952  -0.168461
    C   C89   0.000812  0.533675  0.538674  -0.172855
    C   C90   0.002684  0.035208  0.036757  0.065937
    C   C91   0.036536  0.463053  0.502778  -0.167901
    C   C92   0.501345  0.316705  0.319685  0.645847
    C   C93   0.501208  0.181949  0.318917  0.631769
    C   C94   0.503659  0.182283  0.184191  0.639663
    C   C95   0.503780  0.317044  0.184955  0.637538
    C   C96   0.319719  0.498692  0.685439  0.635011
    C   C97   0.319398  0.496972  0.820249  0.632916
    C   C98   0.183861  0.496283  0.819549  0.592396
    C   C99   0.184735  0.498212  0.684975  0.633107
    C   C100  0.683824  0.682349  0.500930  0.674952
    C   C101  0.857426  0.855382  0.999398  0.131797
    C   C102  0.818909  0.681563  0.501812  0.630265
    C   C103  0.819689  0.816227  0.499765  0.645235
    C   C104  0.684660  0.816823  0.498990  0.635624
    C   C105  0.618157  0.638026  0.458565  -0.240982
    C   C106  0.580879  0.604297  0.457612  0.077778
    C   C107  0.371222  0.543214  0.626652  -0.197752
    C   C108  0.406198  0.543806  0.590656  -0.125983
    C   C109  0.457994  0.374180  0.373552  -0.202643
    C   C110  0.457988  0.409795  0.408930  -0.109071
    C   C111  0.544734  0.370582  0.377416  -0.169580
    C   C112  0.102795  0.962738  0.918985  -0.065428
    C   C113  0.928892  0.926829  0.999291  0.097582
    C   C114  0.544685  0.406080  0.412949  -0.154924
    C   C115  0.378971  0.457035  0.632398  -0.201726
    C   C116  0.413989  0.457679  0.596568  -0.118889
    C   C117  0.634893  0.619009  0.541473  -0.221423
    C   C118  0.598653  0.584367  0.540471  -0.104828
    C   C119  0.645201  0.645594  0.500293  0.104197
    C   C120  0.571698  0.576308  0.498742  -0.006228
    C   C121  0.534692  0.537815  0.499479  0.099990
    C   C122  0.357307  0.499773  0.647624  0.119795
    C   C123  0.427746  0.501009  0.575259  0.115371
    C   C124  0.966475  0.964895  0.999437  0.053478
    C   C125  0.464873  0.501385  0.536779  0.039174
    C   C126  0.501372  0.354398  0.357519  0.107587
    C   C127  0.501310  0.425988  0.428977  0.114447
    C   C128  0.501169  0.464318  0.466382  0.047512
    C   C129  0.536237  0.500353  0.465972  -0.151805
    C   C130  0.499469  0.537870  0.535229  -0.187822
    C   C131  0.465586  0.465005  0.501933  -0.180525
    C   C132  0.549974  0.602109  0.412762  -0.100770
    C   C133  0.577197  0.577239  0.372963  0.055160
    C   C134  0.556700  0.571510  0.329499  -0.484283
    C   C135  0.001547  0.966212  0.963424  -0.161370
    C   C136  0.045045  0.085290  0.895404  -0.125884
    C   C137  0.994943  0.068804  0.881891  0.026189
    C   C138  0.957122  0.077485  0.910925  -0.449774
    C   C139  0.118600  0.408086  0.838067  0.072260
    C   C140  0.103200  0.416946  0.786743  0.028076
    C   C141  0.102845  0.380528  0.754860  -0.488684
    C   C142  0.038250  0.035392  0.001274  -0.204851
    C   C143  0.966876  0.999882  0.035648  -0.193336
    C   C144  0.820047  0.683226  0.003048  0.643811
    C   C145  0.684926  0.682635  0.002858  0.635818
    C   C146  0.684616  0.817261  0.999439  0.644604
    C   C147  0.819628  0.817707  0.999538  0.636352
    C   C148  0.319039  0.999779  0.818511  0.628518
    C   C149  0.044984  0.123849  0.131334  -0.181979
    C   C150  0.319449  0.998781  0.683661  0.647067
    C   C151  0.184556  0.001057  0.683161  0.641007
    C   C152  0.184119  0.002072  0.817857  0.677108
    C   C153  0.002591  0.182077  0.318472  0.627611
    C   C154  0.002251  0.316827  0.319037  0.639596
    C   C155  0.000639  0.317000  0.184330  0.633300
    C   C156  0.001051  0.182205  0.183785  0.643942
    C   C157  0.372722  0.956997  0.876359  -0.205752
    C   C158  0.408359  0.957231  0.911698  -0.117979
    C   C159  0.460196  0.124157  0.130886  -0.198049
    C   C160  0.045382  0.088257  0.095927  -0.143053
    C   C161  0.460081  0.088871  0.095165  -0.120258
    C   C162  0.626562  0.870541  0.042678  -0.196782
    C   C163  0.591360  0.906225  0.042771  -0.122161
    C   C164  0.631788  0.875703  0.956215  -0.200619
    C   C165  0.596635  0.911476  0.956356  -0.120614
    C   C166  0.546760  0.129589  0.125369  -0.200656
    C   C167  0.546597  0.094368  0.089575  -0.115648
    C   C168  0.376946  0.043508  0.871910  -0.201945
    C   C169  0.412752  0.043693  0.907119  -0.124231
    C   C170  0.356798  0.000134  0.856245  0.133210
    C   C171  0.878591  0.870371  0.042534  -0.187748
    C   C172  0.428754  0.000554  0.927272  0.103205
    C   C173  0.466982  0.000682  0.964758  0.047245
    C   C174  0.503546  0.144726  0.146221  0.121347
    C   C175  0.503266  0.073730  0.074198  0.100650
    C   C176  0.503108  0.036135  0.036072  0.044955
    C   C177  0.646994  0.855051  0.999398  0.120360
    C   C178  0.576161  0.927017  0.999635  0.104321
    C   C179  0.538565  0.965026  0.999827  0.045695
    C   C180  0.502719  0.965317  0.964504  -0.168563
    C   C181  0.467363  0.036018  0.000620  -0.167568
    C   C182  0.914130  0.905774  0.042449  -0.132774
    C   C183  0.538615  0.000547  0.035505  -0.166000
    C   C184  0.137040  0.537729  0.883086  -0.209208
    C   C185  0.102017  0.539702  0.918840  -0.144590
    C   C186  0.044354  0.374706  0.131275  -0.206512
    C   C187  0.044592  0.410379  0.096187  -0.117109
    C   C188  0.877979  0.630441  0.046920  -0.195634
    C   C189  0.913930  0.595491  0.047283  -0.124373
    C   C190  0.875064  0.626397  0.960254  -0.198116
    C   C191  0.910912  0.591346  0.960660  -0.121788
    C   C192  0.957604  0.371189  0.127024  -0.206210
    C   C193  0.872280  0.876208  0.956172  -0.221978
    C   C194  0.957885  0.406902  0.091931  -0.120682
    C   C195  0.116519  0.454411  0.866930  -0.096483
    C   C196  0.082482  0.456706  0.903948  -0.190375
    C   C197  0.145302  0.495335  0.856995  0.115737
    C   C198  0.075141  0.498978  0.929867  0.132125
    C   C199  0.038322  0.500446  0.968296  0.057172
    C   C200  0.000854  0.354880  0.146919  0.133163
    C   C201  0.001387  0.426756  0.076246  0.104838
    C   C202  0.001896  0.464840  0.038877  0.043975
    C   C203  0.858285  0.646065  0.003398  0.118951
    C   C204  0.907744  0.911746  0.956139  -0.107525
    C   C205  0.930606  0.575592  0.004167  0.107547
    C   C206  0.968252  0.537627  0.004478  0.043624
    C   C207  0.004297  0.537293  0.969392  -0.175402
    C   C208  0.036961  0.464257  0.002886  -0.167510
    C   C209  0.967387  0.501433  0.039320  -0.170621
    C   C210  0.371991  0.540863  0.878778  -0.200579
    C   C211  0.407610  0.541329  0.914180  -0.120098
    C   C212  0.460260  0.375109  0.132115  -0.197311
    C   C213  0.460094  0.410498  0.096727  -0.120673
    C   C214  0.627110  0.629139  0.046145  -0.196111
    C   C215  0.958444  0.129020  0.124987  -0.212792
    C   C216  0.591576  0.593674  0.046086  -0.124678
    C   C217  0.631313  0.624647  0.959572  -0.198431
    C   C218  0.595924  0.589051  0.959559  -0.121718
    C   C219  0.546866  0.370263  0.126830  -0.200579
    C   C220  0.546654  0.405608  0.091378  -0.116840
    C   C221  0.378485  0.454548  0.873063  -0.205128
    C   C222  0.414114  0.455057  0.908450  -0.117154
    C   C223  0.357196  0.497459  0.857999  0.129441
    C   C224  0.428950  0.498438  0.929295  0.101138
    C   C225  0.466879  0.498916  0.967097  0.042692
    H   H1    0.161139  0.930210  0.880023  0.150773
    H   H2    0.924858  0.083004  0.072716  0.107683
    H   H3    0.916760  0.571087  0.579740  0.106676
    H   H4    0.938418  0.499131  0.438860  0.109479
    H   H5    0.000538  0.561236  0.566721  0.111159
    H   H6    0.064327  0.435319  0.502621  0.109964
    H   H7    0.624836  0.659704  0.426531  0.142600
    H   H8    0.354639  0.577116  0.637663  0.142489
    H   H9    0.415580  0.578076  0.573972  0.105093
    H   H10   0.423575  0.362539  0.358351  0.139989
    H   H11   0.423633  0.425570  0.419797  0.103804
    H   H12   0.579171  0.355522  0.365806  0.138322
    H   H13   0.120988  0.073351  0.836605  0.179501
    H   H14   0.579020  0.417304  0.428642  0.108423
    H   H15   0.369159  0.422572  0.648421  0.141527
    H   H16   0.431109  0.423851  0.586184  0.107178
    H   H17   0.655616  0.624230  0.574530  0.146252
    H   H18   0.592007  0.562806  0.572604  0.105044
    H   H19   0.564481  0.500202  0.438705  0.107301
    H   H20   0.499576  0.566428  0.562306  0.114785
    H   H21   0.438276  0.436746  0.502650  0.106050
    H   H22   0.541356  0.639750  0.401270  0.070982
    H   H23   0.514859  0.583356  0.418986  0.067907
    H   H24   0.001887  0.939180  0.934822  0.097681
    H   H25   0.613544  0.563329  0.379560  0.073590
    H   H26   0.520245  0.585102  0.322847  0.183053
    H   H27   0.576429  0.553135  0.300680  0.162816
    H   H28   0.056771  0.112540  0.868215  0.052052
    H   H29   0.045201  0.103684  0.931233  0.064510
    H   H30   0.989320  0.049643  0.847821  0.080312
    H   H31   0.961863  0.096650  0.945130  0.178990
    H   H32   0.921129  0.065042  0.900424  0.147010
    H   H33   0.093239  0.380996  0.853750  0.021368
    H   H34   0.155392  0.391686  0.839709  0.041995
    H   H35   0.066669  0.062566  0.001717  0.113320
    H   H36   0.091930  0.452940  0.775379  0.080353
    H   H37   0.113964  0.344419  0.765973  0.168938
    H   H38   0.091297  0.386919  0.717718  0.161933
    H   H39   0.939114  0.999500  0.063440  0.111695
    H   H40   0.357330  0.922578  0.865107  0.142692
    H   H41   0.419293  0.923075  0.927637  0.106385
    H   H42   0.425896  0.135034  0.146783  0.141732
    H   H43   0.425801  0.072584  0.084644  0.106076
    H   H44   0.637492  0.854818  0.076964  0.142007
    H   H45   0.098191  0.931475  0.942275  0.087699
    H   H46   0.575175  0.916854  0.077003  0.106332
    H   H47   0.647391  0.864541  0.921882  0.141621
    H   H48   0.586183  0.927825  0.922214  0.107147
    H   H49   0.581158  0.145275  0.136402  0.140375
    H   H50   0.580770  0.083991  0.073076  0.105602
    H   H51   0.365443  0.077739  0.856538  0.142977
    H   H52   0.428789  0.077993  0.917821  0.108188
    H   H53   0.502581  0.937626  0.936579  0.108611
    H   H54   0.439505  0.063698  0.000987  0.108256
    H   H55   0.566547  0.000444  0.063188  0.107845
    H   H56   0.079166  0.134981  0.147425  0.141465
    H   H57   0.158424  0.570003  0.876357  0.149516
    H   H58   0.096803  0.573065  0.939056  0.106380
    H   H59   0.078697  0.362896  0.146387  0.143993
    H   H60   0.079028  0.426021  0.085367  0.105018
    H   H61   0.865851  0.645477  0.081187  0.140098
    H   H62   0.929391  0.584632  0.081739  0.106913
    H   H63   0.860107  0.637699  0.925722  0.142386
    H   H64   0.922395  0.575601  0.926488  0.105675
    H   H65   0.923072  0.356151  0.138370  0.142950
    H   H66   0.923666  0.418301  0.076223  0.107637
    H   H67   0.079737  0.072029  0.085734  0.103568
    H   H68   0.059832  0.425555  0.911788  0.119725
    H   H69   0.005718  0.565545  0.942216  0.111905
    H   H70   0.063538  0.435338  0.001536  0.104180
    H   H71   0.939488  0.501621  0.066971  0.110712
    H   H72   0.355793  0.574939  0.867924  0.141596
    H   H73   0.417753  0.575630  0.930591  0.105893
    H   H74   0.425953  0.363949  0.147777  0.141748
    H   H75   0.425772  0.426580  0.086232  0.105657
    H   H76   0.638537  0.644580  0.080508  0.139694
    H   H77   0.575679  0.582882  0.080342  0.108374
    H   H78   0.868006  0.854431  0.076815  0.140495
    H   H79   0.646617  0.635970  0.925219  0.141394
    H   H80   0.585093  0.572998  0.925284  0.106932
    H   H81   0.581298  0.354765  0.137832  0.140895
    H   H82   0.580828  0.416275  0.075093  0.105050
    H   H83   0.367882  0.420116  0.857233  0.144242
    H   H84   0.430923  0.421116  0.918804  0.106146
    H   H85   0.501860  0.562519  0.939710  0.108455
    H   H86   0.439853  0.435481  0.002585  0.105475
    H   H87   0.566181  0.499735  0.065806  0.111589
    H   H88   0.080066  0.135411  0.356632  0.142343
    H   H89   0.930872  0.916014  0.076574  0.105193
    H   H90   0.079601  0.072480  0.417836  0.105162
    H   H91   0.866486  0.854148  0.422432  0.141984
    H   H92   0.929091  0.916002  0.422778  0.105770
    H   H93   0.147678  0.923150  0.635787  0.143913
    H   H94   0.085892  0.922758  0.572941  0.107007
    H   H95   0.136720  0.078102  0.645971  0.139313
    H   H96   0.073786  0.077408  0.584368  0.106526
    H   H97   0.857530  0.862953  0.577667  0.142644
    H   H98   0.918856  0.926195  0.577771  0.107640
    H   H99   0.924571  0.143889  0.364296  0.142311
    H   H100  0.856127  0.865401  0.921939  0.142132
    H   H101  0.924336  0.082269  0.426884  0.106029
    H   H102  0.064925  0.063035  0.500792  0.107711
    H   H103  0.938603  0.999181  0.437087  0.108882
    H   H104  0.002084  0.936429  0.563591  0.109014
    H   H105  0.423486  0.135210  0.356584  0.141440
    H   H106  0.423623  0.072126  0.417675  0.106337
    H   H107  0.637806  0.854798  0.421543  0.140877
    H   H108  0.574579  0.916003  0.422054  0.106806
    H   H109  0.357273  0.921078  0.636860  0.140323
    H   H110  0.418513  0.921120  0.573635  0.105499
    H   H111  0.917849  0.928315  0.922009  0.115959
    H   H112  0.366125  0.076225  0.645711  0.142067
    H   H113  0.428698  0.076041  0.583891  0.106126
    H   H114  0.646725  0.863194  0.576814  0.142883
    H   H115  0.584895  0.925718  0.577096  0.107479
    H   H116  0.578954  0.143839  0.365264  0.141639
    H   H117  0.578853  0.082085  0.427689  0.107075
    H   H118  0.438091  0.061880  0.500772  0.108077
    H   H119  0.564485  0.998980  0.436825  0.108925
    H   H120  0.501639  0.935351  0.563084  0.108681
    H   H121  0.867045  0.644379  0.424565  0.142392
    H   H122  0.923962  0.144741  0.135535  0.143534
    H   H123  0.929787  0.582645  0.425151  0.107534
    H   H124  0.145135  0.575735  0.640104  0.143485
    H   H125  0.083138  0.575687  0.577715  0.108382
    H   H126  0.079679  0.363532  0.357654  0.139716
    H   H127  0.079169  0.426174  0.419550  0.104805
    H   H128  0.924179  0.354566  0.365230  0.140983
    H   H129  0.923916  0.415913  0.428481  0.106434
    H   H130  0.139248  0.420369  0.645562  0.146178
    H   H131  0.075374  0.420467  0.584876  0.109446
    H   H132  0.855266  0.633968  0.579457  0.142067
    O   O1    0.803059  0.698780  0.044861  -0.669950
    O   O2    0.302103  0.041511  0.802844  -0.683734
    O   O3    0.304085  0.956963  0.700653  -0.673063
    O   O4    0.302510  0.040774  0.698829  -0.689913
    O   O5    0.201351  0.959319  0.698958  -0.687918
    O   O6    0.199896  0.043151  0.699702  -0.667806
    O   O7    0.201269  0.960046  0.802989  -0.701951
    O   O8    0.199322  0.043889  0.800757  -0.685708
    O   O9    0.044669  0.199024  0.303528  -0.666517
    O   O10   0.960689  0.197431  0.301407  -0.682168
    O   O11   0.044379  0.300175  0.303937  -0.667969
    O   O12   0.804529  0.699586  0.960979  -0.686986
    O   O13   0.960390  0.301284  0.301862  -0.682163
    O   O14   0.042553  0.301643  0.201378  -0.683787
    O   O15   0.958583  0.300046  0.199304  -0.669288
    O   O16   0.042877  0.197753  0.200992  -0.688852
    O   O17   0.958896  0.198886  0.198827  -0.666469
    O   O18   0.459335  0.299900  0.304210  -0.666924
    O   O19   0.543324  0.301349  0.302793  -0.688567
    O   O20   0.459214  0.198755  0.303621  -0.666730
    O   O21   0.543200  0.197470  0.302223  -0.681470
    O   O22   0.461694  0.197645  0.201107  -0.683537
    O   O23   0.701716  0.698384  0.044750  -0.669626
    O   O24   0.545680  0.199085  0.199640  -0.667935
    O   O25   0.461813  0.301525  0.201689  -0.685023
    O   O26   0.545793  0.300237  0.200225  -0.665944
    O   O27   0.301893  0.540022  0.701536  -0.682494
    O   O28   0.305286  0.456218  0.701486  -0.662281
    O   O29   0.301470  0.538611  0.805546  -0.678261
    O   O30   0.305101  0.454969  0.802577  -0.677784
    O   O31   0.198704  0.538742  0.803615  -0.663282
    O   O32   0.202440  0.455317  0.803753  -0.617964
    O   O33   0.199176  0.540210  0.702496  -0.668411
    O   O34   0.700400  0.699150  0.960880  -0.682704
    O   O35   0.202502  0.456492  0.699774  -0.685423
    O   O36   0.699483  0.699232  0.459186  -0.696610
    O   O37   0.700742  0.697269  0.543084  -0.680051
    O   O38   0.803658  0.698501  0.459871  -0.685421
    O   O39   0.802000  0.696935  0.543714  -0.665664
    O   O40   0.802964  0.801052  0.457667  -0.670758
    O   O41   0.803947  0.799389  0.541544  -0.690294
    O   O42   0.701662  0.801591  0.457035  -0.667881
    O   O43   0.699824  0.799799  0.540897  -0.684770
    O   O44   0.700089  0.800827  0.041459  -0.687386
    O   O45   0.701512  0.801633  0.957584  -0.670682
    O   O46   0.804205  0.801199  0.041557  -0.689428
    O   O47   0.802793  0.801994  0.957668  -0.662841
    O   O48   0.303858  0.957698  0.801796  -0.665358
    Zn  Zn1   0.752270  0.750954  0.056267  1.293089
    Zn  Zn2   0.253060  0.442628  0.751688  1.280815
    Zn  Zn3   0.752032  0.749060  0.445327  1.292162
    Zn  Zn4   0.751551  0.749367  0.555420  1.294056
    Zn  Zn5   0.752296  0.749431  0.946171  1.287496
    Zn  Zn6   0.251622  0.945403  0.751115  1.295369
    Zn  Zn7   0.251996  0.055434  0.750526  1.294186
    Zn  Zn8   0.056765  0.249697  0.251581  1.290038
    Zn  Zn9   0.946487  0.249363  0.251241  1.287892
    Zn  Zn10  0.447374  0.249467  0.251656  1.287353
    Zn  Zn11  0.557642  0.249523  0.252244  1.288288
    Zn  Zn12  0.251060  0.552512  0.753524  1.283714
