# Generated by REPEAT Assigner based on pymatgen
data_DB0-m3_o8_o105_f0_fsc
_audit_creation_date              2022-05-24
_audit_creation_method            REPEAT_Assigner
_cell_length_a                    10.914958
_cell_length_b                    10.935443
_cell_length_c                    15.818425
_cell_angle_alpha                 90.000000
_cell_angle_beta                  93.501327
_cell_angle_gamma                 90.000000
_cell_volume                      1884.561301
_symmetry_space_group_name_H-M    P1
_symmetry_Int_Tables_number       1
loop_
    _symmetry_equiv_pos_site_id
    _symmetry_equiv_pos_as_xyz
    1  x,y,z
loop_
    _atom_site_type_symbol
    _atom_site_label
    _atom_site_fract_x
    _atom_site_fract_y
    _atom_site_fract_z
    _atom_type_partial_charge
    O   O1   0.853454  0.870061  0.935055  -0.726707
    O   O2   0.146546  0.129939  0.064945  -0.726638
    O   O3   0.146546  0.870061  0.064945  -0.726639
    O   O4   0.853454  0.129939  0.935055  -0.726705
    O   O5   0.895364  0.867899  0.077695  -0.744155
    O   O6   0.104636  0.132101  0.922305  -0.744193
    O   O7   0.104636  0.867899  0.922305  -0.744194
    O   O8   0.895364  0.132101  0.077695  -0.744154
    C   C1   0.832779  0.826417  0.010217  0.869285
    C   C2   0.167221  0.173583  0.989784  0.869242
    C   C3   0.167221  0.826417  0.989784  0.869240
    C   C4   0.832779  0.173583  0.010217  0.869287
    Zn  Zn1  0.024465  0.000000  0.093038  1.128865
    Zn  Zn2  0.975535  0.000000  0.906962  1.128950
    N   N1   0.039729  0.000000  0.220690  -0.046683
    N   N2   0.960271  0.000000  0.779310  -0.046632
    C   C5   0.933953  0.000000  0.260378  -0.072794
    C   C6   0.066047  0.000000  0.739622  -0.072832
    C   C7   0.934312  0.000000  0.347567  -0.106063
    C   C8   0.065688  0.000000  0.652433  -0.106078
    C   C9   0.045064  0.000000  0.395169  0.448913
    C   C10  0.954936  0.000000  0.604831  0.449030
    C   C11  0.152424  0.000000  0.353271  -0.305654
    C   C12  0.847576  0.000000  0.646730  -0.305754
    C   C13  0.148440  0.000000  0.265735  0.028786
    C   C14  0.851560  0.000000  0.734266  0.028808
    N   N3   0.051432  0.000000  0.484978  -0.226344
    N   N4   0.948568  0.000000  0.515023  -0.226405
    H   H1   0.152806  0.000000  0.776385  0.156043
    H   H2   0.847194  0.000000  0.223615  0.156039
    H   H3   0.153463  0.000000  0.624271  0.071716
    H   H4   0.846537  0.000000  0.375729  0.071706
    H   H5   0.240002  0.000000  0.389086  0.145594
    H   H6   0.759998  0.000000  0.610914  0.145598
    H   H7   0.232897  0.000000  0.233430  0.140193
    H   H8   0.767103  0.000000  0.766571  0.140216
    C   C15  0.758203  0.716370  0.017350  -0.040206
    C   C16  0.241797  0.283630  0.982650  -0.040223
    C   C17  0.241797  0.716370  0.982650  -0.040223
    C   C18  0.758203  0.283630  0.017350  -0.040206
    C   C19  0.816641  0.607831  0.035012  -0.244878
    C   C20  0.183359  0.392169  0.964988  -0.244798
    C   C21  0.183359  0.607831  0.964988  -0.244799
    C   C22  0.816641  0.392169  0.035012  -0.244877
    C   C23  0.752284  0.500000  0.029003  0.194978
    C   C24  0.247716  0.500000  0.970998  0.194860
    C   C25  0.632690  0.718611  0.002299  -0.217631
    C   C26  0.367310  0.281389  0.997701  -0.217632
    C   C27  0.367310  0.718611  0.997701  -0.217630
    C   C28  0.632690  0.281389  0.002299  -0.217633
    C   C29  0.564049  0.610832  0.005058  0.058562
    C   C30  0.435952  0.389168  0.994942  0.058489
    C   C31  0.435952  0.610832  0.994942  0.058487
    C   C32  0.564049  0.389168  0.005058  0.058563
    C   C33  0.626143  0.500000  0.013319  0.001652
    C   C34  0.373857  0.500000  0.986681  0.001724
    H   H9   0.592682  0.806185  0.986339  0.119977
    H   H10  0.407318  0.193815  0.013662  0.120000
    H   H11  0.407318  0.806185  0.013662  0.119999
    H   H12  0.592682  0.193815  0.986339  0.119978
    H   H13  0.915161  0.606890  0.046618  0.146163
    H   H14  0.084839  0.393110  0.953382  0.146127
    H   H15  0.084839  0.606890  0.953382  0.146127
    H   H16  0.915161  0.393110  0.046618  0.146163
