# generated using pymatgen
data_ZnH12C19NO6
_symmetry_space_group_name_H-M   'P 1'
_cell_length_a   8.54023800
_cell_length_b   12.23324000
_cell_length_c   12.98183500
_cell_angle_alpha   107.77843500
_cell_angle_beta   93.55843800
_cell_angle_gamma   91.99334200
_symmetry_Int_Tables_number   1
_chemical_formula_structural   ZnH12C19NO6
_chemical_formula_sum   'Zn2 H24 C38 N2 O12'
_cell_volume   1286.95277256
_cell_formula_units_Z   2
loop_
 _symmetry_equiv_pos_site_id
 _symmetry_equiv_pos_as_xyz
  1  'x, y, z'
loop_
 _atom_site_type_symbol
 _atom_site_label
 _atom_site_symmetry_multiplicity
 _atom_site_fract_x
 _atom_site_fract_y
 _atom_site_fract_z
 _atom_site_occupancy
  Zn  Zn1  1  0.55638000  0.86619100  0.46137800  1
  Zn  Zn2  1  0.57952800  0.12220500  0.51301100  1
  H  H1  1  0.64441800  0.99999700  0.17833500  1
  H  H2  1  0.06040800  0.02381700  0.56388900  1
  H  H3  1  0.35934400  0.01892200  0.83411800  1
  H  H4  1  0.25432500  0.00985300  0.98933200  1
  H  H5  1  0.71884300  0.01371400  0.83115700  1
  H  H6  1  0.28507300  0.02430400  0.15039400  1
  H  H7  1  0.06721600  0.93214900  0.39510900  1
  H  H8  1  0.65325100  0.27767200  0.70941600  1
  H  H9  1  0.67623400  0.66132200  0.75097400  1
  H  H10  1  0.70050500  0.48351200  0.77528500  1
  H  H11  1  0.54073400  0.28539400  0.39437000  1
  H  H12  1  0.49675000  0.38634100  0.29845300  1
  H  H13  1  0.61461400  0.62787200  0.11021400  1
  H  H14  1  0.73712800  0.66392300  0.23701500  1
  H  H15  1  0.69832600  0.77079900  0.16980700  1
  H  H16  1  0.24134400  0.53011100  0.24120300  1
  H  H17  1  0.24298300  0.39602100  0.13249200  1
  H  H18  1  0.23727000  0.53118300  0.10212500  1
  H  H19  1  0.44190200  0.76436100  0.79366000  1
  H  H20  1  0.36512200  0.67235300  0.66037300  1
  H  H21  1  0.31417000  0.81705700  0.70574200  1
  H  H22  1  0.54586900  0.17336300  0.95149300  1
  H  H23  1  0.67336900  0.19000300  0.07218600  1
  H  H24  1  0.46419300  0.16516500  0.07493200  1
  C  C1  1  0.02864100  0.00298000  0.12688700  1
  C  C2  1  0.89599200  0.99337700  0.18103500  1
  C  C3  1  0.74854600  0.00383000  0.13614600  1
  C  C4  1  0.73019000  0.01528300  0.03424600  1
  C  C5  1  0.85873200  0.01421100  0.97474000  1
  C  C6  1  0.00888900  0.01177000  0.02161600  1
  C  C7  1  0.83597000  0.01423300  0.86783800  1
  C  C8  1  0.96273100  0.01386100  0.80704300  1
  C  C9  1  0.11246400  0.01704600  0.85523600  1
  C  C10  1  0.13518700  0.01384900  0.96006700  1
  C  C11  1  0.94405600  0.01202800  0.69929700  1
  C  C12  1  0.07492800  0.02009100  0.64539300  1
  C  C13  1  0.22287400  0.02006600  0.69239500  1
  C  C14  1  0.24227400  0.01987200  0.79788100  1
  C  C15  1  0.17679100  0.00437500  0.18039500  1
  C  C16  1  0.18971100  0.97881600  0.27687800  1
  C  C17  1  0.05647100  0.95423700  0.32112800  1
  C  C18  1  0.91102000  0.97107200  0.27933100  1
  C  C19  1  0.35568400  0.01144100  0.62610900  1
  C  C20  1  0.34068200  0.98516400  0.33964100  1
  C  C21  1  0.77927100  0.97793300  0.34734700  1
  C  C22  1  0.79305500  0.00416100  0.63659600  1
  C  C23  1  0.66636600  0.44235100  0.69020800  1
  C  C24  1  0.51548600  0.66310000  0.31836300  1
  C  C25  1  0.48987800  0.54607300  0.27567700  1
  C  C26  1  0.51252500  0.47695800  0.33914000  1
  C  C27  1  0.55771100  0.52504100  0.44809600  1
  C  C28  1  0.56319000  0.64578600  0.49295500  1
  C  C29  1  0.59011300  0.45458900  0.51403500  1
  C  C30  1  0.63975000  0.50648400  0.62151700  1
  C  C31  1  0.64944800  0.62314000  0.66461500  1
  C  C32  1  0.59556800  0.69095000  0.60503200  1
  C  C33  1  0.57445300  0.33376900  0.47717800  1
  C  C34  1  0.64057200  0.32576200  0.65253900  1
  C  C35  1  0.64764800  0.69499900  0.18857500  1
  C  C36  1  0.28403800  0.48807200  0.16036000  1
  C  C37  1  0.41064600  0.76044300  0.70836100  1
  C  C38  1  0.56538100  0.14454600  0.02415400  1
  N  N1  1  0.59727500  0.27256700  0.54717100  1
  N  N2  1  0.54012900  0.71493400  0.42747400  1
  O  O1  1  0.41291600  0.10569800  0.61128700  1
  O  O2  1  0.39920500  0.90837400  0.57459300  1
  O  O3  1  0.38519400  0.89034100  0.35760000  1
  O  O4  1  0.40681600  0.08763000  0.39248400  1
  O  O5  1  0.72338400  0.88365400  0.36351800  1
  O  O6  1  0.73369600  0.08066100  0.39772500  1
  O  O7  1  0.75076100  0.09785300  0.61639600  1
  O  O8  1  0.72813200  0.90173800  0.58272600  1
  O  O9  1  0.51518900  0.72560300  0.24703200  1
  O  O10  1  0.44782300  0.49724300  0.16758200  1
  O  O11  1  0.54243000  0.79287100  0.66308400  1
  O  O12  1  0.58310500  0.02621200  0.99211600  1
