# generated using pymatgen
data_ZnH10C13N2O5
_symmetry_space_group_name_H-M   'P 1'
_cell_length_a   8.54076400
_cell_length_b   12.78643800
_cell_length_c   9.13909200
_cell_angle_alpha   90.89076000
_cell_angle_beta   90.08232100
_cell_angle_gamma   95.43566200
_symmetry_Int_Tables_number   1
_chemical_formula_structural   ZnH10C13N2O5
_chemical_formula_sum   'Zn2 H20 C26 N4 O10'
_cell_volume   993.43090206
_cell_formula_units_Z   2
loop_
 _symmetry_equiv_pos_site_id
 _symmetry_equiv_pos_as_xyz
  1  'x, y, z'
loop_
 _atom_site_type_symbol
 _atom_site_label
 _atom_site_symmetry_multiplicity
 _atom_site_fract_x
 _atom_site_fract_y
 _atom_site_fract_z
 _atom_site_occupancy
  Zn  Zn1  1  0.50492900  0.49861000  0.83345500  1
  Zn  Zn2  1  0.50504700  0.48575000  0.15867100  1
  H  H1  1  0.79848200  0.84254800  0.98829900  1
  H  H2  1  0.21121000  0.14348500  0.01936900  1
  H  H3  1  0.01945900  0.56464700  0.04445900  1
  H  H4  1  0.99035700  0.41761500  0.93341700  1
  H  H5  1  0.26691100  0.40243000  0.40673000  1
  H  H6  1  0.74307100  0.58192400  0.58539400  1
  H  H7  1  0.29889200  0.59055800  0.57892400  1
  H  H8  1  0.71109300  0.39379900  0.41319500  1
  H  H9  1  0.53735700  0.65589600  0.37721400  1
  H  H10  1  0.47266600  0.32845500  0.61487500  1
  H  H11  1  0.41880100  0.79626700  0.19677600  1
  H  H12  1  0.26204400  0.87992300  0.22773700  1
  H  H13  1  0.44337700  0.03521000  0.15878100  1
  H  H14  1  0.51502400  0.96727400  0.31388200  1
  H  H15  1  0.60017000  0.94974900  0.13519400  1
  H  H16  1  0.66963300  0.99824700  0.85046900  1
  H  H17  1  0.73638600  0.12663400  0.78130000  1
  H  H18  1  0.46580700  0.18243000  0.82033600  1
  H  H19  1  0.46976800  0.07355900  0.69160900  1
  H  H20  1  0.40121200  0.05002900  0.87637600  1
  C  C1  1  0.17534800  0.70100600  0.01622200  1
  C  C2  1  0.83465500  0.28324900  0.97639100  1
  C  C3  1  0.18846600  0.80935900  0.00832700  1
  C  C4  1  0.82171500  0.17577800  0.99532100  1
  C  C5  1  0.05377700  0.86247400  0.00330700  1
  C  C6  1  0.95628900  0.12285600  0.00307900  1
  C  C7  1  0.90652300  0.80566800  0.99942900  1
  C  C8  1  0.10335600  0.17970000  0.00336000  1
  C  C9  1  0.89577300  0.69817600  0.01326600  1
  C  C10  1  0.11416700  0.28611400  0.97922400  1
  C  C11  1  0.02929500  0.64782100  0.02830500  1
  C  C12  1  0.98059200  0.33545600  0.95733700  1
  C  C13  1  0.74565100  0.63390200  0.00710600  1
  C  C14  1  0.26412900  0.35062200  0.98504300  1
  C  C15  1  0.70017500  0.34643400  0.98305400  1
  C  C16  1  0.30997200  0.63800800  0.00914300  1
  C  C17  1  0.39429300  0.54424600  0.53952300  1
  C  C18  1  0.61569100  0.44011000  0.45259700  1
  C  C19  1  0.37740900  0.44481000  0.44909700  1
  C  C20  1  0.63257300  0.53954400  0.54302500  1
  C  C21  1  0.52214500  0.57952200  0.43378500  1
  C  C22  1  0.48784100  0.40483300  0.55833200  1
  C  C23  1  0.36985500  0.86958700  0.16373800  1
  C  C24  1  0.49020700  0.96180600  0.19472500  1
  C  C25  1  0.65198700  0.08302800  0.85568600  1
  C  C26  1  0.48608200  0.09837200  0.80787700  1
  N  N1  1  0.06946400  0.97367600  0.00011700  1
  N  N2  1  0.94083600  0.01178100  0.00960100  1
  N  N3  1  0.50523100  0.48045300  0.35066600  1
  N  N4  1  0.50474900  0.50389900  0.64145700  1
  O  O1  1  0.69100600  0.59241400  0.12914200  1
  O  O2  1  0.31885900  0.39202100  0.86297900  1
  O  O3  1  0.68585700  0.60740300  0.87790600  1
  O  O4  1  0.32415500  0.37694300  0.11420100  1
  O  O5  1  0.65688600  0.38919000  0.86171800  1
  O  O6  1  0.35307700  0.59512900  0.13041600  1
  O  O7  1  0.65045100  0.37429600  0.11282900  1
  O  O8  1  0.35954300  0.61008600  0.87930300  1
  O  O9  1  0.33346400  0.86438600  0.01465100  1
  O  O10  1  0.67660500  0.12103000  0.99863200  1
