# generated using pymatgen
data_Fe2H19C60N3O22
_symmetry_space_group_name_H-M   'P 1'
_cell_length_a   17.68067000
_cell_length_b   20.80722300
_cell_length_c   11.13504600
_cell_angle_alpha   111.73157800
_cell_angle_beta   82.65863500
_cell_angle_gamma   112.46087900
_symmetry_Int_Tables_number   1
_chemical_formula_structural   Fe2H19C60N3O22
_chemical_formula_sum   'Fe2 H19 C60 N3 O22'
_cell_volume   3516.17220843
_cell_formula_units_Z   1
loop_
 _symmetry_equiv_pos_site_id
 _symmetry_equiv_pos_as_xyz
  1  'x, y, z'
loop_
 _atom_site_type_symbol
 _atom_site_label
 _atom_site_symmetry_multiplicity
 _atom_site_fract_x
 _atom_site_fract_y
 _atom_site_fract_z
 _atom_site_occupancy
  Fe  Fe1  1  0.50959200  0.00390800  0.24511600  1
  Fe  Fe2  1  0.49149300  0.99487200  0.75204600  1
  H  H1  1  0.25718300  0.01395800  0.29676500  1
  H  H2  1  0.12569900  0.01587000  0.36407100  1
  H  H3  1  0.22191900  0.95741400  0.74810300  1
  H  H4  1  0.99721600  0.01434900  0.32496700  1
  H  H5  1  0.09641800  0.95454400  0.70257800  1
  H  H6  1  0.90097700  0.03894400  0.29575700  1
  H  H7  1  0.01063100  0.99457300  0.68140200  1
  H  H8  1  0.77677400  0.03675400  0.24868500  1
  H  H9  1  0.88531500  0.99451300  0.63905900  1
  H  H10  1  0.67901500  0.65943600  0.59097400  1
  H  H11  1  0.68830300  0.56573500  0.66074100  1
  H  H12  1  0.31805500  0.33813800  0.40647000  1
  H  H13  1  0.30872700  0.43188000  0.33682100  1
  H  H14  1  0.50439600  0.23110700  0.44046300  1
  H  H15  1  0.53542100  0.27361900  0.89842300  1
  H  H16  1  0.53288800  0.37269100  0.83555100  1
  H  H17  1  0.49359100  0.76678500  0.55625800  1
  H  H18  1  0.46236600  0.72366700  0.09806200  1
  H  H19  1  0.46398900  0.62450700  0.16158500  1
  C  C1  1  0.24351100  0.00792600  0.20042600  1
  C  C2  1  0.11246300  0.01189200  0.26889800  1
  C  C3  1  0.30316800  0.00673600  0.10855500  1
  C  C4  1  0.28725200  0.00056800  0.98519600  1
  C  C5  1  0.16915500  0.00671100  0.17328600  1
  C  C6  1  0.15115800  0.99952300  0.05129600  1
  C  C7  1  0.20880800  0.99263600  0.95534200  1
  C  C8  1  0.18515300  0.97418300  0.82988500  1
  C  C9  1  0.03842800  0.01220200  0.24517100  1
  C  C10  1  0.01933300  0.00774000  0.12393500  1
  C  C11  1  0.07560200  0.99891300  0.02562100  1
  C  C12  1  0.05676800  0.98932700  0.90167700  1
  C  C13  1  0.11061500  0.97236400  0.80347700  1
  C  C14  1  0.88902800  0.02382800  0.19494200  1
  C  C15  1  0.94467000  0.00963100  0.09813600  1
  C  C16  1  0.92633900  0.00086400  0.97414200  1
  C  C17  1  0.98329100  0.99315600  0.87689800  1
  C  C18  1  0.96693000  0.99275000  0.75776500  1
  C  C19  1  0.81463100  0.02183300  0.16737700  1
  C  C20  1  0.79238300  0.00572000  0.04213900  1
  C  C21  1  0.85093900  0.00035500  0.94724300  1
  C  C22  1  0.83433600  0.99525900  0.82547600  1
  C  C23  1  0.71435200  0.99853700  0.01188600  1
  C  C24  1  0.69960300  0.99463100  0.88956500  1
  C  C25  1  0.89376100  0.99389000  0.73282100  1
  C  C26  1  0.75978400  0.99447500  0.79800800  1
  C  C27  1  0.64663600  0.99165500  0.10505000  1
  C  C28  1  0.48214500  0.86375200  0.24717400  1
  C  C29  1  0.38421000  0.01840300  0.14882400  1
  C  C30  1  0.49739400  0.11166600  0.47161400  1
  C  C31  1  0.50212500  0.88648700  0.52452600  1
  C  C32  1  0.61816400  0.98193900  0.84886600  1
  C  C33  1  0.51700200  0.13393000  0.74855600  1
  C  C34  1  0.35404900  0.00600300  0.89060100  1
  C  C35  1  0.42260600  0.56638300  0.37449800  1
  C  C36  1  0.55294000  0.64627700  0.46388900  1
  C  C37  1  0.55918100  0.59309100  0.50425200  1
  C  C38  1  0.49584400  0.52558300  0.47881500  1
  C  C39  1  0.42718800  0.51191500  0.41322700  1
  C  C40  1  0.62833200  0.60692400  0.56973800  1
  C  C41  1  0.63363000  0.55346300  0.60966500  1
  C  C42  1  0.56984900  0.48569700  0.58431300  1
  C  C43  1  0.50118800  0.47201900  0.51872600  1
  C  C44  1  0.43788100  0.40448400  0.49320700  1
  C  C45  1  0.36872100  0.39066300  0.42775000  1
  C  C46  1  0.36340100  0.44414900  0.38789500  1
  C  C47  1  0.57447100  0.43122400  0.62296100  1
  C  C48  1  0.44420300  0.35125500  0.53338500  1
  C  C49  1  0.51147800  0.24044300  0.54124400  1
  C  C50  1  0.51049200  0.18292800  0.57558600  1
  C  C51  1  0.51881800  0.19363200  0.70518100  1
  C  C52  1  0.52869200  0.26307300  0.79707700  1
  C  C53  1  0.52795000  0.31982100  0.76175300  1
  C  C54  1  0.51824300  0.30837400  0.63364600  1
  C  C55  1  0.48644100  0.75732800  0.45543900  1
  C  C56  1  0.48822400  0.81496500  0.42072200  1
  C  C57  1  0.47979800  0.80404200  0.29098000  1
  C  C58  1  0.46917100  0.73435200  0.19944700  1
  C  C59  1  0.46935100  0.67755000  0.23515800  1
  C  C60  1  0.47909700  0.68916500  0.36333800  1
  N  N1  1  0.48502400  0.63250600  0.40062300  1
  N  N2  1  0.51212000  0.36506100  0.59668200  1
  N  N3  1  0.74162200  0.98714100  0.67146300  1
  O  O1  1  0.58863500  0.01674500  0.10527400  1
  O  O2  1  0.47373200  0.84993600  0.12367800  1
  O  O3  1  0.64160300  0.95681300  0.18438500  1
  O  O4  1  0.49724000  0.93175400  0.32925500  1
  O  O5  1  0.39715500  0.96504900  0.16871200  1
  O  O6  1  0.44308800  0.08357200  0.17131300  1
  O  O7  1  0.55200900  0.10537800  0.38092500  1
  O  O8  1  0.42706100  0.05648500  0.46055100  1
  O  O9  1  0.44907300  0.89281700  0.61768800  1
  O  O10  1  0.57182000  0.94191800  0.53274400  1
  O  O11  1  0.60426900  0.03458800  0.82798500  1
  O  O12  1  0.55972100  0.91665100  0.82790000  1
  O  O13  1  0.35762600  0.03835900  0.80782500  1
  O  O14  1  0.50294700  0.06609200  0.66627100  1
  O  O15  1  0.41302200  0.98259800  0.89284800  1
  O  O16  1  0.52488400  0.14756300  0.87211400  1
  O  O17  1  0.35491900  0.55423300  0.31356900  1
  O  O18  1  0.61553400  0.71159000  0.48549900  1
  O  O19  1  0.64216200  0.44339100  0.68390000  1
  O  O20  1  0.38172300  0.28585000  0.51149200  1
  O  O21  1  0.73549600  0.04271700  0.65149300  1
  O  O22  1  0.73420800  0.92587200  0.57489600  1
