# Generated by REPEAT Assigner based on pymatgen
data_DB0-m3_o1_o82_f0_fsc.sym.2
_audit_creation_date              2022-05-24
_audit_creation_method            REPEAT_Assigner
_cell_length_a                    13.359761
_cell_length_b                    6.786868
_cell_length_c                    9.243944
_cell_angle_alpha                 90.000000
_cell_angle_beta                  90.000000
_cell_angle_gamma                 90.000000
_cell_volume                      838.156976
_symmetry_space_group_name_H-M    P1
_symmetry_Int_Tables_number       1
loop_
    _symmetry_equiv_pos_site_id
    _symmetry_equiv_pos_as_xyz
    1  x,y,z
loop_
    _atom_site_type_symbol
    _atom_site_label
    _atom_site_fract_x
    _atom_site_fract_y
    _atom_site_fract_z
    _atom_type_partial_charge
    C   C1   0.727833  0.771076  0.986076  -0.064925
    C   C2   0.272167  0.771077  0.013925  -0.064909
    C   C3   0.814725  0.678187  0.943868  -0.170280
    C   C4   0.185275  0.678187  0.056133  -0.170299
    C   C5   0.905039  0.776142  0.945247  -0.152831
    C   C6   0.094961  0.776145  0.054752  -0.152825
    C   C7   0.729024  0.975854  0.000510  -0.230095
    C   C8   0.270976  0.975854  0.999490  -0.230106
    C   C9   0.820532  0.070579  0.008755  0.224325
    C   C10  0.179468  0.070578  0.991246  0.224334
    C   C11  0.909123  0.968360  0.991065  0.099948
    C   C12  0.090877  0.968361  0.008935  0.099949
    C   C13  0.000000  0.066272  0.000000  -0.167317
    C   C14  0.823089  0.270150  0.034227  -0.315675
    C   C15  0.176912  0.270147  0.965774  -0.315677
    C   C16  0.912985  0.368742  0.027565  -0.266036
    C   C17  0.087015  0.368742  0.972436  -0.266049
    C   C18  0.000000  0.267848  0.000000  0.302875
    H   H1   0.811280  0.526425  0.908552  0.152373
    H   H2   0.188720  0.526427  0.091452  0.152383
    H   H3   0.971302  0.703740  0.904663  0.098699
    H   H4   0.028696  0.703748  0.095334  0.098694
    H   H5   0.754444  0.349173  0.056037  0.238617
    H   H6   0.245559  0.349162  0.943961  0.238616
    H   H7   0.917110  0.522933  0.052435  0.174039
    H   H8   0.082890  0.522933  0.947566  0.174043
    O   O1   0.608801  0.577216  0.122577  -0.727185
    O   O2   0.604647  0.576468  0.873939  -0.681445
    O   O3   0.395353  0.576468  0.126061  -0.681446
    O   O4   0.391199  0.577216  0.877423  -0.727187
    C   C19  0.638550  0.645848  0.995823  0.829993
    C   C20  0.361450  0.645847  0.004177  0.829993
    O   O5   0.604540  0.168909  0.874578  -0.685662
    O   O6   0.608665  0.170521  0.124081  -0.699940
    O   O7   0.391335  0.170521  0.875919  -0.699943
    O   O8   0.395460  0.168909  0.125422  -0.685662
    C   C21  0.639215  0.101935  0.999445  0.802923
    C   C22  0.360785  0.101935  0.000555  0.802926
    Zn  Zn1  0.497887  0.373548  0.837938  1.032642
    Zn  Zn2  0.502113  0.373548  0.162062  1.032641
    C   C23  0.498628  0.203819  0.574816  -0.112830
    C   C24  0.501372  0.203819  0.425184  -0.112829
    H   H9   0.498106  0.068083  0.634193  0.173460
    H   H10  0.501893  0.068082  0.365807  0.173459
    N   N1   0.503000  0.374347  0.351833  0.024476
    N   N2   0.497000  0.374347  0.648167  0.024476
    C   C25  0.501288  0.544742  0.425685  0.099264
    C   C26  0.498712  0.544742  0.574315  0.099262
    C   C27  0.501936  0.736502  0.349720  -0.150437
    H   H11  0.433077  0.817478  0.380555  0.063536
    H   H12  0.570220  0.817476  0.383133  0.072551
    H   H13  0.502902  0.716238  0.231470  0.102721
    C   C28  0.498063  0.736502  0.650280  -0.150437
    H   H14  0.566923  0.817477  0.619444  0.063534
    H   H15  0.429780  0.817477  0.616868  0.072552
    H   H16  0.497098  0.716239  0.768530  0.102722
