# generated using pymatgen
data_CuH9C17NO4
_symmetry_space_group_name_H-M   'P 1'
_cell_length_a   6.95847300
_cell_length_b   9.26791300
_cell_length_c   15.90695100
_cell_angle_alpha   96.27243900
_cell_angle_beta   99.02144300
_cell_angle_gamma   90.07198400
_symmetry_Int_Tables_number   1
_chemical_formula_structural   CuH9C17NO4
_chemical_formula_sum   'Cu2 H18 C34 N2 O8'
_cell_volume   1006.91574567
_cell_formula_units_Z   2
loop_
 _symmetry_equiv_pos_site_id
 _symmetry_equiv_pos_as_xyz
  1  'x, y, z'
loop_
 _atom_site_type_symbol
 _atom_site_label
 _atom_site_symmetry_multiplicity
 _atom_site_fract_x
 _atom_site_fract_y
 _atom_site_fract_z
 _atom_site_occupancy
  Cu  Cu1  1  0.99223600  0.14418900  0.00730400  1
  Cu  Cu2  1  0.00776400  0.85581200  0.99269600  1
  H  H1  1  0.42625400  0.66730500  0.05271300  1
  H  H2  1  0.57374500  0.33269500  0.94728700  1
  H  H3  1  0.27012300  0.68165400  0.88244100  1
  H  H4  1  0.72987700  0.31834700  0.11755900  1
  H  H5  1  0.55775700  0.55425900  0.90087200  1
  H  H6  1  0.44224300  0.44574200  0.09912700  1
  H  H7  1  0.31869200  0.23101400  0.00422400  1
  H  H8  1  0.68130800  0.76898700  0.99577600  1
  H  H9  1  0.04810100  0.01587900  0.73535100  1
  H  H10  1  0.95189900  0.98412100  0.26464900  1
  H  H11  1  0.52170900  0.96328600  0.59534700  1
  H  H12  1  0.47829100  0.03671500  0.40465300  1
  H  H13  1  0.74511900  0.95674100  0.72904700  1
  H  H14  1  0.25488100  0.04325900  0.27095300  1
  H  H15  1  0.32763900  0.90457500  0.49474700  1
  H  H16  1  0.67236100  0.09542500  0.50525200  1
  H  H17  1  0.09991400  0.90823300  0.36312200  1
  H  H18  1  0.90008500  0.09176800  0.63687800  1
  C  C1  1  0.67865500  0.98880800  0.88618200  1
  C  C2  1  0.32134500  0.01119300  0.11381800  1
  C  C3  1  0.22908800  0.00206500  0.88512700  1
  C  C4  1  0.77091200  0.99793600  0.11487300  1
  C  C5  1  0.28131400  0.59156600  0.91956400  1
  C  C6  1  0.71868600  0.40843400  0.08043600  1
  C  C7  1  0.45897900  0.53790600  0.94523200  1
  C  C8  1  0.54102000  0.46209400  0.05476800  1
  C  C9  1  0.46842000  0.40250900  0.97355100  1
  C  C10  1  0.53157900  0.59749200  0.02644800  1
  C  C11  1  0.30093700  0.32917500  0.97356200  1
  C  C12  1  0.69906300  0.67082500  0.02643800  1
  C  C13  1  0.14218600  0.41123700  0.98315000  1
  C  C14  1  0.85781300  0.58876400  0.01685000  1
  C  C15  1  0.13917100  0.55207300  0.96227800  1
  C  C16  1  0.86082800  0.44792700  0.03772200  1
  C  C17  1  0.32579500  0.00031900  0.80958000  1
  C  C18  1  0.67420400  0.99968200  0.19041900  1
  C  C19  1  0.20174500  0.00625700  0.73328300  1
  C  C20  1  0.79825500  0.99374300  0.26671600  1
  C  C21  1  0.26853100  0.99300100  0.65579800  1
  C  C22  1  0.73146900  0.00700000  0.34420200  1
  C  C23  1  0.46463300  0.97288700  0.65497500  1
  C  C24  1  0.53536700  0.02711300  0.34502500  1
  C  C25  1  0.59129700  0.96888400  0.73084600  1
  C  C26  1  0.40870200  0.03111600  0.26915300  1
  C  C27  1  0.52625900  0.98299200  0.80914700  1
  C  C28  1  0.47374100  0.01700800  0.19085300  1
  C  C29  1  0.18475200  0.94805000  0.49773900  1
  C  C30  1  0.81524700  0.05195100  0.50226100  1
  C  C31  1  0.05479400  0.95043600  0.42272900  1
  C  C32  1  0.94520600  0.04956500  0.57727100  1
  C  C33  1  0.86898400  0.00262800  0.42434300  1
  C  C34  1  0.13101500  0.99737300  0.57565700  1
  N  N1  1  0.99885000  0.35591000  0.01681800  1
  N  N2  1  0.00115000  0.64409000  0.98318200  1
  O  O1  1  0.75365300  0.11596500  0.92123300  1
  O  O2  1  0.24634700  0.88403600  0.07876700  1
  O  O3  1  0.77172300  0.86944900  0.90483900  1
  O  O4  1  0.22827600  0.13055100  0.09516100  1
  O  O5  1  0.14532600  0.12149700  0.91199400  1
  O  O6  1  0.85467400  0.87850400  0.08800600  1
  O  O7  1  0.17928500  0.87797000  0.90867600  1
  O  O8  1  0.82071400  0.12203100  0.09132400  1
