# generated using pymatgen
data_Zn2H15C29N3O10
_symmetry_space_group_name_H-M   'P 1'
_cell_length_a   8.52548600
_cell_length_b   10.77938300
_cell_length_c   14.22909900
_cell_angle_alpha   90.52746000
_cell_angle_beta   90.09040300
_cell_angle_gamma   89.99826500
_symmetry_Int_Tables_number   1
_chemical_formula_structural   Zn2H15C29N3O10
_chemical_formula_sum   'Zn2 H15 C29 N3 O10'
_cell_volume   1307.58974447
_cell_formula_units_Z   1
loop_
 _symmetry_equiv_pos_site_id
 _symmetry_equiv_pos_as_xyz
  1  'x, y, z'
loop_
 _atom_site_type_symbol
 _atom_site_label
 _atom_site_symmetry_multiplicity
 _atom_site_fract_x
 _atom_site_fract_y
 _atom_site_fract_z
 _atom_site_occupancy
  Zn  Zn1  1  0.50363100  0.48972800  0.10776700  1
  Zn  Zn2  1  0.50420200  0.52437300  0.90014700  1
  H  H1  1  0.00635700  0.59075900  0.05098000  1
  H  H2  1  0.00824700  0.42172600  0.95687900  1
  H  H3  1  0.74808500  0.91298800  0.99501400  1
  H  H4  1  0.74984300  0.10142500  0.01645200  1
  H  H5  1  0.27577800  0.60994800  0.43677600  1
  H  H6  1  0.26658700  0.41604700  0.57001100  1
  H  H7  1  0.74085800  0.59684700  0.43826700  1
  H  H8  1  0.72999400  0.40115100  0.57096700  1
  H  H9  1  0.49241600  0.28709500  0.46213700  1
  H  H10  1  0.35995800  0.10904400  0.84734700  1
  H  H11  1  0.51611700  0.00607800  0.88434400  1
  H  H12  1  0.55344400  0.17025600  0.87072100  1
  H  H13  1  0.34640000  0.82256300  0.46841600  1
  H  H14  1  0.52281100  0.76973800  0.40855200  1
  H  H15  1  0.52691700  0.90904200  0.47914000  1
  C  C1  1  0.00488300  0.68946500  0.03966500  1
  C  C2  1  0.86473300  0.74898600  0.02696500  1
  C  C3  1  0.86139400  0.87391100  0.00949900  1
  C  C4  1  0.14324500  0.75156500  0.02657000  1
  C  C5  1  0.14170500  0.87878200  0.01354900  1
  C  C6  1  0.00010200  0.94208600  0.00886100  1
  C  C7  1  0.00100200  0.07082800  0.99920100  1
  C  C8  1  0.86280300  0.13995300  0.00049900  1
  C  C9  1  0.86591800  0.26463000  0.98227500  1
  C  C10  1  0.28233800  0.06433400  0.99560700  1
  C  C11  1  0.14397600  0.13231500  0.99204000  1
  C  C12  1  0.14528200  0.26050300  0.97974000  1
  C  C13  1  0.00636600  0.32301700  0.96815900  1
  C  C14  1  0.72416900  0.33998300  0.98925900  1
  C  C15  1  0.72321500  0.67432400  0.01969200  1
  C  C16  1  0.28572700  0.67648600  0.01905000  1
  C  C17  1  0.28583000  0.33783600  0.98788300  1
  C  C18  1  0.37362200  0.45697000  0.53876800  1
  C  C19  1  0.37849100  0.56298200  0.46845900  1
  C  C20  1  0.49747800  0.38658900  0.48245200  1
  C  C21  1  0.50314900  0.49258600  0.41408300  1
  C  C22  1  0.62771500  0.44880600  0.53933300  1
  C  C23  1  0.50384700  0.51907100  0.59396700  1
  C  C24  1  0.63418200  0.55470300  0.46902100  1
  C  C25  1  0.50941200  0.62193200  0.52453100  1
  C  C26  1  0.50292600  0.47910900  0.31165800  1
  C  C27  1  0.50426100  0.53403200  0.69628600  1
  C  C28  1  0.46557300  0.10036700  0.89240000  1
  C  C29  1  0.47584700  0.81468900  0.47298600  1
  N  N1  1  0.27804000  0.94045800  0.00619800  1
  N  N2  1  0.50289300  0.47267000  0.23044200  1
  N  N3  1  0.50448500  0.54136200  0.77746500  1
  O  O1  1  0.67433300  0.39589100  0.91332900  1
  O  O2  1  0.66751600  0.36253800  0.07343300  1
  O  O3  1  0.67353700  0.61841000  0.09547300  1
  O  O4  1  0.66749200  0.65172100  0.93525900  1
  O  O5  1  0.33439800  0.61896100  0.09449200  1
  O  O6  1  0.34044300  0.65173600  0.93465100  1
  O  O7  1  0.33500700  0.39503500  0.91257800  1
  O  O8  1  0.34030200  0.36230200  0.07243900  1
  O  O9  1  0.42461400  0.12109000  0.98607800  1
  O  O10  1  0.51702100  0.74647100  0.55224000  1
