# generated using pymatgen
data_V4H18(C15O7)3
_symmetry_space_group_name_H-M   'P 1'
_cell_length_a   6.32068900
_cell_length_b   18.74238600
_cell_length_c   21.24117200
_cell_angle_alpha   90.70483400
_cell_angle_beta   89.93595900
_cell_angle_gamma   90.00515800
_symmetry_Int_Tables_number   1
_chemical_formula_structural   V4H18(C15O7)3
_chemical_formula_sum   'V4 H18 C45 O21'
_cell_volume   2516.13906825
_cell_formula_units_Z   1
loop_
 _symmetry_equiv_pos_site_id
 _symmetry_equiv_pos_as_xyz
  1  'x, y, z'
loop_
 _atom_site_type_symbol
 _atom_site_label
 _atom_site_symmetry_multiplicity
 _atom_site_fract_x
 _atom_site_fract_y
 _atom_site_fract_z
 _atom_site_occupancy
  V  V1  1  0.05639200  0.51602300  0.49581500  1
  V  V2  1  0.55645700  0.49866600  0.49643900  1
  V  V3  1  0.71276300  0.97233700  0.01614400  1
  V  V4  1  0.21275300  0.98969000  0.01490100  1
  H  H1  1  0.89260500  0.28082400  0.85148200  1
  H  H2  1  0.52798700  0.27541900  0.70745900  1
  H  H3  1  0.61895900  0.32010300  0.77834700  1
  H  H4  1  0.56930200  0.21220600  0.82324700  1
  H  H5  1  0.58263900  0.16452200  0.74820500  1
  H  H6  1  0.06423400  0.22835000  0.64754400  1
  H  H7  1  0.79002900  0.19924400  0.65155600  1
  H  H8  1  0.16114100  0.16420600  0.73436700  1
  H  H9  1  0.19354700  0.28825600  0.74105500  1
  H  H10  1  0.14797500  0.23853500  0.83825400  1
  H  H11  1  0.92858700  0.11168900  0.71424500  1
  H  H12  1  0.78521300  0.38103100  0.83851300  1
  H  H13  1  0.75118000  0.41269600  0.75818800  1
  H  H14  1  0.24973600  0.46675600  0.80163300  1
  H  H15  1  0.34682200  0.58841200  0.83545100  1
  H  H16  1  0.07154000  0.67199900  0.87199800  1
  H  H17  1  0.69918100  0.63393000  0.87473300  1
  H  H18  1  0.60214900  0.51226400  0.84095100  1
  C  C1  1  0.31592400  0.58265600  0.58387900  1
  C  C2  1  0.34646300  0.57483700  0.40804700  1
  C  C3  1  0.85917600  0.42943300  0.40963600  1
  C  C4  1  0.82485400  0.44070500  0.58443700  1
  C  C5  1  0.03770400  0.30220000  0.76183700  1
  C  C6  1  0.65281500  0.27674700  0.74410000  1
  C  C7  1  0.65567600  0.20684000  0.77795700  1
  C  C8  1  0.91536300  0.08997900  0.87473400  1
  C  C9  1  0.86801000  0.28681600  0.71365800  1
  C  C10  1  0.99602700  0.25407200  0.81625700  1
  C  C11  1  0.88439800  0.18898100  0.78959600  1
  C  C12  1  0.98689000  0.16533100  0.72841900  1
  C  C13  1  0.92753500  0.21888000  0.67913800  1
  C  C14  1  0.89834400  0.13315000  0.83467600  1
  C  C15  1  0.85741700  0.34404700  0.66989200  1
  C  C16  1  0.84498300  0.38976900  0.63194300  1
  C  C17  1  0.90762300  0.11906800  0.14734300  1
  C  C18  1  0.90126300  0.16670800  0.18712700  1
  C  C19  1  0.89163500  0.22252900  0.23423300  1
  C  C20  1  0.88284600  0.26978700  0.27432400  1
  C  C21  1  0.87272700  0.32540100  0.32159900  1
  C  C22  1  0.86529200  0.37266200  0.36170600  1
  C  C23  1  0.34283400  0.63324700  0.63630800  1
  C  C24  1  0.35955800  0.67432400  0.68116000  1
  C  C25  1  0.37580200  0.72197600  0.73461900  1
  C  C26  1  0.38896800  0.76230100  0.78011000  1
  C  C27  1  0.40583400  0.81012500  0.83344200  1
  C  C28  1  0.42365700  0.85153600  0.87803100  1
  C  C29  1  0.34969500  0.62638000  0.36034600  1
  C  C30  1  0.36027500  0.67165300  0.32171600  1
  C  C31  1  0.37885000  0.72553800  0.27786800  1
  C  C32  1  0.39619300  0.77170800  0.24028600  1
  C  C33  1  0.41378400  0.82457600  0.19546200  1
  C  C34  1  0.42287200  0.86826000  0.15540500  1
  C  C35  1  0.42390600  0.91734100  0.10572200  1
  C  C36  1  0.45274000  0.90285200  0.92983400  1
  C  C37  1  0.94163800  0.04304000  0.92510400  1
  C  C38  1  0.91130000  0.06148900  0.10011600  1
  C  C39  1  0.86118600  0.40875300  0.79862300  1
  C  C40  1  0.92005600  0.48213500  0.81928600  1
  C  C41  1  0.12879500  0.50347100  0.81774000  1
  C  C42  1  0.18321500  0.57167400  0.83668000  1
  C  C43  1  0.02889500  0.61853500  0.85715800  1
  C  C44  1  0.82016800  0.59719400  0.85870400  1
  C  C45  1  0.76577400  0.52898900  0.83977900  1
  O  O1  1  0.51559300  0.53424000  0.41060600  1
  O  O2  1  0.14047600  0.54575200  0.58176700  1
  O  O3  1  0.93246400  0.43003200  0.53336400  1
  O  O4  1  0.23636800  0.59105300  0.45901100  1
  O  O5  1  0.02091000  0.47470300  0.41081100  1
  O  O6  1  0.43621900  0.58702800  0.53333600  1
  O  O7  1  0.33056000  0.45225400  0.49665900  1
  O  O8  1  0.73226400  0.42110300  0.45959400  1
  O  O9  1  0.64661000  0.47440500  0.58246900  1
  O  O10  1  0.83087300  0.56235000  0.49331300  1
  O  O11  1  0.33297500  0.90001900  0.98060300  1
  O  O12  1  0.53269100  0.89878500  0.05511800  1
  O  O13  1  0.74828100  0.01674400  0.09995200  1
  O  O14  1  0.62870800  0.93948300  0.93105100  1
  O  O15  1  0.83685400  0.05680400  0.97611200  1
  O  O16  1  0.25376100  0.95728700  0.10188200  1
  O  O17  1  0.43858100  0.03601700  0.01345800  1
  O  O18  1  0.12213800  0.01088700  0.92824500  1
  O  O19  1  0.03695200  0.06845000  0.04967700  1
  O  O20  1  0.93834300  0.92615700  0.01995200  1
  O  O21  1  0.04005000  0.37276700  0.78020500  1
