# generated using pymatgen
data_ZnH6C14NO4
_symmetry_space_group_name_H-M   'P 1'
_cell_length_a   8.55008300
_cell_length_b   8.76009900
_cell_length_c   13.27911700
_cell_angle_alpha   90.35508400
_cell_angle_beta   92.85884700
_cell_angle_gamma   82.89848000
_symmetry_Int_Tables_number   1
_chemical_formula_structural   ZnH6C14NO4
_chemical_formula_sum   'Zn2 H12 C28 N2 O8'
_cell_volume   985.74193650
_cell_formula_units_Z   2
loop_
 _symmetry_equiv_pos_site_id
 _symmetry_equiv_pos_as_xyz
  1  'x, y, z'
loop_
 _atom_site_type_symbol
 _atom_site_label
 _atom_site_symmetry_multiplicity
 _atom_site_fract_x
 _atom_site_fract_y
 _atom_site_fract_z
 _atom_site_occupancy
  Zn  Zn1  1  0.50450700  0.51910500  0.11167800  1
  Zn  Zn2  1  0.49549200  0.48089500  0.88832200  1
  H  H1  1  0.98661700  0.60478300  0.95255900  1
  H  H2  1  0.01338200  0.39521700  0.04744200  1
  H  H3  1  0.67921700  0.00902000  0.01314400  1
  H  H4  1  0.32078200  0.99098000  0.98685600  1
  H  H5  1  0.74046700  0.42665400  0.75727700  1
  H  H6  1  0.25953200  0.57334600  0.24272300  1
  H  H7  1  0.24474300  0.50912900  0.73774200  1
  H  H8  1  0.75525700  0.49087100  0.26225900  1
  H  H9  1  0.10612100  0.55815400  0.57619100  1
  H  H10  1  0.89387800  0.44184600  0.42380900  1
  H  H11  1  0.11224100  0.58788700  0.39284700  1
  H  H12  1  0.88775800  0.41211200  0.60715300  1
  C  C1  1  0.09937700  0.80492200  0.97772800  1
  C  C2  1  0.90062200  0.19507800  0.02227200  1
  C  C3  1  0.97000300  0.72681900  0.96637800  1
  C  C4  1  0.02999600  0.27318100  0.03362200  1
  C  C5  1  0.82127400  0.79921600  0.98224800  1
  C  C6  1  0.17872500  0.20078400  0.01775300  1
  C  C7  1  0.79702700  0.95459500  0.00047200  1
  C  C8  1  0.20297200  0.04540500  0.99952800  1
  C  C9  1  0.92385200  0.03782800  0.00454700  1
  C  C10  1  0.07614700  0.96217200  0.99545300  1
  C  C11  1  0.25573400  0.71238800  0.98401200  1
  C  C12  1  0.74426500  0.28761200  0.01598900  1
  C  C13  1  0.30587300  0.29477000  0.01102800  1
  C  C14  1  0.69412600  0.70523000  0.98897300  1
  C  C15  1  0.63150200  0.44475300  0.71175800  1
  C  C16  1  0.36849800  0.55524700  0.28824200  1
  C  C17  1  0.35543200  0.49162100  0.70093900  1
  C  C18  1  0.64456700  0.50837900  0.29906100  1
  C  C19  1  0.35672100  0.50705400  0.59752000  1
  C  C20  1  0.64327800  0.49294600  0.40248100  1
  C  C21  1  0.49822800  0.49062900  0.55133800  1
  C  C22  1  0.50177100  0.50937100  0.44866300  1
  C  C23  1  0.63635100  0.45706100  0.60851100  1
  C  C24  1  0.36364800  0.54293900  0.39149000  1
  C  C25  1  0.21775400  0.54290000  0.54046800  1
  C  C26  1  0.78224500  0.45710000  0.45953300  1
  C  C27  1  0.22121100  0.56021200  0.43737500  1
  C  C28  1  0.77878800  0.43978800  0.56262600  1
  N  N1  1  0.49220300  0.46243200  0.75644700  1
  N  N2  1  0.50779600  0.53756800  0.24355400  1
  O  O1  1  0.30849800  0.64292600  0.90213300  1
  O  O2  1  0.69150100  0.35707400  0.09786700  1
  O  O3  1  0.32109000  0.67955700  0.07427700  1
  O  O4  1  0.67890900  0.32044300  0.92572300  1
  O  O5  1  0.35216400  0.36215100  0.09344900  1
  O  O6  1  0.64783500  0.63784900  0.90655100  1
  O  O7  1  0.35209300  0.32406000  0.92116100  1
  O  O8  1  0.64790600  0.67594000  0.07883900  1
