data_DB0-m3_o11_o29_f0_pcu.sym.15_repeat
_audit_creation_date              2024-02-20
_audit_creation_method            'Materials Studio'
_symmetry_space_group_name_H-M    'P1'
_symmetry_Int_Tables_number       1
_symmetry_cell_setting            triclinic
loop_
_symmetry_equiv_pos_as_xyz
  x,y,z
_cell_length_a                    27.6451
_cell_length_b                    11.1369
_cell_length_c                    9.9173
_cell_angle_alpha                 89.9974
_cell_angle_beta                  89.9930
_cell_angle_gamma                 89.9936
loop_
_atom_site_label
_atom_site_type_symbol
_atom_site_fract_x
_atom_site_fract_y
_atom_site_fract_z
_atom_site_U_iso_or_equiv
_atom_site_adp_type
_atom_site_occupancy
O1     O     0.50338   0.31990   0.61196   0.00000  Uiso   1.00
O2     O     0.50047   0.31983   0.37923   0.00000  Uiso   1.00
C1     C     0.50207   0.26391   0.49582   0.00000  Uiso   1.00
O3     O     0.43058   0.49697   0.62127   0.00000  Uiso   1.00
O4     O     0.42807   0.49818   0.38867   0.00000  Uiso   1.00
C2     C     0.40668   0.49676   0.50677   0.00000  Uiso   1.00
Zn1    Zn    0.50317   0.49856   0.64972   0.00000  Uiso   1.00
Zn2    Zn    0.49947   0.49894   0.34283   0.00000  Uiso   1.00
O5     O     0.50188   0.67735   0.61281   0.00000  Uiso   1.00
O6     O     0.49935   0.67786   0.38033   0.00000  Uiso   1.00
O7     O     0.57456   0.50035   0.60385   0.00000  Uiso   1.00
O8     O     0.57206   0.50093   0.37135   0.00000  Uiso   1.00
C3     C     0.50036   0.73361   0.49690   0.00000  Uiso   1.00
C4     C     0.59597   0.50077   0.48581   0.00000  Uiso   1.00
C5     C     0.17754   0.40004   0.46101   0.00000  Uiso   1.00
O9     O     0.20232   0.30519   0.41356   0.00000  Uiso   1.00
N1     N     0.20170   0.49362   0.51455   0.00000  Uiso   1.00
C6     C     0.17740   0.58822   0.56528   0.00000  Uiso   1.00
C7     C     0.27794   0.48933   0.39269   0.00000  Uiso   1.00
C8     C     0.32776   0.49044   0.39069   0.00000  Uiso   1.00
C9     C     0.32894   0.50014   0.63125   0.00000  Uiso   1.00
C10    C     0.27900   0.49970   0.63289   0.00000  Uiso   1.00
C11    C     0.25333   0.49403   0.51359   0.00000  Uiso   1.00
C12    C     0.10194   0.49642   0.50697   0.00000  Uiso   1.00
C13    C     0.12751   0.40044   0.45640   0.00000  Uiso   1.00
C14    C     0.10299   0.30461   0.40241   0.00000  Uiso   1.00
C15    C     0.12734   0.59058   0.56233   0.00000  Uiso   1.00
C16    C     0.35361   0.49570   0.50997   0.00000  Uiso   1.00
H1     H     0.34823   0.50427   0.72589   0.00000  Uiso   1.00
H2     H     0.26009   0.50254   0.72826   0.00000  Uiso   1.00
H3     H     0.12197   0.22674   0.36468   0.00000  Uiso   1.00
C17    C     0.64904   0.50196   0.48267   0.00000  Uiso   1.00
C18    C     0.97638   0.40925   0.42977   0.00000  Uiso   1.00
C19    C     0.97580   0.59373   0.55721   0.00000  Uiso   1.00
C20    C     0.95116   0.50245   0.49083   0.00000  Uiso   1.00
C21    C     0.95024   0.32387   0.35722   0.00000  Uiso   1.00
C22    C     0.90066   0.32757   0.35170   0.00000  Uiso   1.00
C23    C     0.87568   0.41673   0.41725   0.00000  Uiso   1.00
C24    C     0.90082   0.50420   0.48577   0.00000  Uiso   1.00
C25    C     0.87499   0.59320   0.54959   0.00000  Uiso   1.00
C26    C     0.82496   0.59326   0.54505   0.00000  Uiso   1.00
N2     N     0.80102   0.50615   0.47843   0.00000  Uiso   1.00
C27    C     0.82561   0.41860   0.41443   0.00000  Uiso   1.00
C28    C     0.72471   0.49893   0.60011   0.00000  Uiso   1.00
C29    C     0.67490   0.49764   0.60197   0.00000  Uiso   1.00
C30    C     0.67371   0.50743   0.36145   0.00000  Uiso   1.00
C31    C     0.72365   0.50888   0.35990   0.00000  Uiso   1.00
C32    C     0.74936   0.50481   0.47928   0.00000  Uiso   1.00
O10    O     0.80126   0.33067   0.35117   0.00000  Uiso   1.00
C33    C     0.02685   0.40406   0.44140   0.00000  Uiso   1.00
C34    C     0.05160   0.49837   0.50179   0.00000  Uiso   1.00
C35    C     0.02650   0.59473   0.55678   0.00000  Uiso   1.00
C36    C     0.05343   0.30592   0.39525   0.00000  Uiso   1.00
H4     H     0.65669   0.49268   0.69821   0.00000  Uiso   1.00
H5     H     0.74438   0.49399   0.69418   0.00000  Uiso   1.00
H6     H     0.88205   0.25909   0.29459   0.00000  Uiso   1.00
H7     H     0.96669   0.25330   0.29937   0.00000  Uiso   1.00
H8     H     0.03736   0.22561   0.35543   0.00000  Uiso   1.00
O11    O     0.20207   0.68208   0.61550   0.00000  Uiso   1.00
C37    C     0.10265   0.68801   0.61198   0.00000  Uiso   1.00
H9     H     0.34597   0.48702   0.29438   0.00000  Uiso   1.00
H10    H     0.25822   0.48623   0.29861   0.00000  Uiso   1.00
H11    H     0.12154   0.76443   0.65355   0.00000  Uiso   1.00
C38    C     0.94882   0.68146   0.62360   0.00000  Uiso   1.00
C39    C     0.89922   0.68112   0.61930   0.00000  Uiso   1.00
O12    O     0.80000   0.68177   0.60546   0.00000  Uiso   1.00
C40    C     0.05303   0.69049   0.60913   0.00000  Uiso   1.00
H12    H     0.96449   0.75124   0.68424   0.00000  Uiso   1.00
H13    H     0.65442   0.51120   0.26680   0.00000  Uiso   1.00
H14    H     0.87997   0.75092   0.67263   0.00000  Uiso   1.00
H15    H     0.74250   0.51459   0.26460   0.00000  Uiso   1.00
H16    H     0.03699   0.77189   0.64615   0.00000  Uiso   1.00
C41    C     0.50001   0.93204   0.38873   0.00000  Uiso   1.00
C42    C     0.49989   0.86513   0.50101   0.00000  Uiso   1.00
H17    H     0.50001   0.88782   0.29143   0.00000  Uiso   1.00
H18    H     0.49934   0.90468   0.60027   0.00000  Uiso   1.00
C43    C     0.49977   0.06516   0.38836   0.00000  Uiso   1.00
C44    C     0.50260   0.13241   0.50003   0.00000  Uiso   1.00
H19    H     0.49745   0.10906   0.29108   0.00000  Uiso   1.00
H20    H     0.50550   0.09309   0.59908   0.00000  Uiso   1.00
C45    C     0.52919   0.57326   0.92956   0.00000  Uiso   1.00
N3     N     0.50686   0.49890   0.85144   0.00000  Uiso   1.00
H21    H     0.49549   0.42117   0.89743   0.00000  Uiso   1.00
C46    C     0.53200   0.54878   0.07651   0.00000  Uiso   1.00
N4     N     0.49667   0.50100   0.14123   0.00000  Uiso   1.00
H22    H     0.56351   0.57626   0.13297   0.00000  Uiso   1.00
H23    H     0.46500   0.48915   0.08853   0.00000  Uiso   1.00
C47    C     0.55242   0.68413   0.87162   0.00000  Uiso   1.00
C48    C     0.58384   0.75243   0.97114   0.00000  Uiso   1.00
H24    H     0.56203   0.78342   0.05836   0.00000  Uiso   1.00
H25    H     0.61454   0.69567   0.00464   0.00000  Uiso   1.00
H26    H     0.59884   0.83266   0.91976   0.00000  Uiso   1.00
H27    H     0.57547   0.65905   0.78499   0.00000  Uiso   1.00
H28    H     0.52353   0.74625   0.83832   0.00000  Uiso   1.00
