# Generated by REPEAT Assigner based on pymatgen
data_DB0-m2_o12_o28_f0_pcu.sym.25
_audit_creation_date              2022-05-24
_audit_creation_method            REPEAT_Assigner
_cell_length_a                    23.357172
_cell_length_b                    11.278211
_cell_length_c                    9.720038
_cell_angle_alpha                 112.016409
_cell_angle_beta                  99.516027
_cell_angle_gamma                 90.015605
_cell_volume                      2335.702706
_symmetry_space_group_name_H-M    P1
_symmetry_Int_Tables_number       1
loop_
    _symmetry_equiv_pos_site_id
    _symmetry_equiv_pos_as_xyz
    1  x,y,z
loop_
    _atom_site_type_symbol
    _atom_site_label
    _atom_site_fract_x
    _atom_site_fract_y
    _atom_site_fract_z
    _atom_type_partial_charge
    O   O1   0.502290  0.341462  0.586604  -0.518398
    O   O2   0.496940  0.660717  0.413713  -0.534088
    O   O3   0.492765  0.295644  0.332262  -0.531116
    O   O4   0.507355  0.705944  0.667349  -0.536684
    C   C1   0.497216  0.259674  0.447441  0.768858
    C   C2   0.502492  0.742791  0.552792  0.782953
    O   O5   0.423289  0.525255  0.621023  -0.502241
    O   O6   0.576629  0.476907  0.379319  -0.503911
    O   O7   0.409212  0.470959  0.364265  -0.356405
    O   O8   0.590474  0.529254  0.635225  -0.359012
    C   C3   0.388979  0.494875  0.490107  0.434671
    C   C4   0.610592  0.506707  0.510113  0.442168
    Cu  Cu1  0.507722  0.527488  0.648613  0.772271
    Cu  Cu2  0.491660  0.473811  0.350921  0.780413
    C   C5   0.873335  0.523886  0.398223  0.385268
    C   C6   0.126576  0.475695  0.600970  0.378593
    N   N1   0.853418  0.499999  0.508544  -0.121561
    N   N2   0.146327  0.499493  0.490623  -0.115318
    C   C7   0.890703  0.477588  0.616707  0.438179
    C   C8   0.109234  0.522158  0.382674  0.433658
    C   C9   0.949854  0.476913  0.614425  -0.108752
    C   C10  0.050195  0.522760  0.384841  -0.102384
    C   C11  0.970580  0.500090  0.501628  0.093175
    C   C12  0.029324  0.499742  0.497705  0.081814
    C   C13  0.932218  0.524072  0.393046  -0.070136
    C   C14  0.067869  0.475569  0.606256  -0.061976
    C   C15  0.988368  0.451854  0.723107  -0.044824
    C   C16  0.011622  0.546401  0.275194  -0.048977
    C   C17  0.047067  0.450410  0.718558  -0.076693
    C   C18  0.952956  0.547835  0.279898  -0.071455
    O   O9   0.835837  0.551393  0.295535  -0.423351
    O   O10  0.164049  0.448277  0.703860  -0.422329
    O   O11  0.870059  0.453006  0.724951  -0.470494
    O   O12  0.129908  0.547014  0.274409  -0.469709
    H   H1   0.973270  0.433147  0.812682  0.126169
    H   H2   0.026712  0.563802  0.184841  0.126924
    H   H3   0.076127  0.429583  0.803877  0.138332
    H   H4   0.923794  0.567299  0.193600  0.136517
    C   C19  0.246352  0.574387  0.614101  -0.198904
    C   C20  0.752881  0.426490  0.385469  -0.193502
    H   H5   0.230845  0.637210  0.713396  0.167589
    H   H6   0.767889  0.363291  0.285486  0.165894
    C   C21  0.305304  0.570857  0.613964  0.018201
    C   C22  0.694093  0.430346  0.386532  0.014613
    H   H7   0.334690  0.631045  0.713193  0.121683
    H   H8   0.664088  0.370201  0.287627  0.123286
    C   C23  0.326116  0.492200  0.486905  -0.027706
    C   C24  0.673788  0.509024  0.513778  -0.030665
    C   C25  0.286748  0.415610  0.360530  -0.013667
    C   C26  0.713120  0.584868  0.639742  -0.010437
    C   C27  0.227569  0.422505  0.361022  -0.154520
    C   C28  0.772199  0.577955  0.638954  -0.152284
    H   H9   0.196778  0.359808  0.264711  0.162810
    H   H10  0.803006  0.640490  0.735164  0.163170
    C   C29  0.207269  0.500508  0.488143  0.207710
    C   C30  0.792336  0.499796  0.511418  0.203499
    C   C31  0.491368  0.120608  0.414038  -0.366793
    C   C32  0.507563  0.880506  0.585568  -0.369055
    C   C33  0.505900  0.070313  0.518817  0.005843
    C   C34  0.493727  0.931031  0.479799  -0.001373
    H   H11  0.526578  0.941039  0.700075  0.265356
    H   H12  0.471355  0.060342  0.300475  0.272449
    H   H13  0.462954  0.418262  0.837610  0.164850
    H   H14  0.533992  0.588636  0.162557  0.165773
    N   N3   0.479387  0.435484  0.130051  -0.130764
    N   N4   0.520373  0.566224  0.869972  -0.112261
    C   C35  0.503857  0.511022  0.081322  0.077766
    C   C36  0.494545  0.494342  0.919333  0.059742
    N   N5   0.572581  0.630350  0.959639  0.647595
    O   O13  0.587224  0.742058  0.961149  -0.343279
    O   O14  0.611085  0.567083  0.010196  -0.370134
    N   N6   0.427938  0.368964  0.040877  0.648863
    O   O15  0.412926  0.259587  0.045971  -0.344744
    O   O16  0.388246  0.429961  0.989078  -0.372670
    N   N7   0.306053  0.321473  0.234973  0.621535
    O   O17  0.346775  0.248813  0.258539  -0.345139
    O   O18  0.273484  0.285355  0.102001  -0.368759
    N   N8   0.693784  0.679308  0.765645  0.618874
    O   O19  0.652761  0.750910  0.741581  -0.344103
    O   O20  0.726645  0.716352  0.898276  -0.370874
    N   N9   0.464738  0.851927  0.331031  0.668008
    O   O21  0.414397  0.793745  0.312770  -0.349009
    O   O22  0.490703  0.829091  0.216125  -0.390462
    N   N10  0.534398  0.149328  0.667955  0.667055
    O   O23  0.507521  0.171149  0.781243  -0.389006
    O   O24  0.583747  0.211663  0.686792  -0.352208
