# Generated by REPEAT Assigner based on pymatgen
data_DB0-m29_o97_o420_f0_pts.sym.27
_audit_creation_date              2022-05-24
_audit_creation_method            REPEAT_Assigner
_cell_length_a                    17.433113
_cell_length_b                    12.357700
_cell_length_c                    13.127101
_cell_angle_alpha                 91.321598
_cell_angle_beta                  81.909159
_cell_angle_gamma                 105.895565
_cell_volume                      2692.447899
_symmetry_space_group_name_H-M    P1
_symmetry_Int_Tables_number       1
loop_
    _symmetry_equiv_pos_site_id
    _symmetry_equiv_pos_as_xyz
    1  x,y,z
loop_
    _atom_site_type_symbol
    _atom_site_label
    _atom_site_fract_x
    _atom_site_fract_y
    _atom_site_fract_z
    _atom_type_partial_charge
    C   C1   0.265641  0.014308  0.143959  -0.261739
    C   C2   0.129875  0.003405  0.205874  -0.191109
    C   C3   0.328167  0.025547  0.065121  0.016560
    C   C4   0.313533  0.025407  0.963050  -0.163496
    C   C5   0.189243  0.007625  0.124650  0.228861
    C   C6   0.171742  0.001378  0.025550  -0.021657
    C   C7   0.232870  0.003132  0.944898  0.165461
    C   C8   0.210388  0.974183  0.848951  -0.162648
    C   C9   0.052917  0.996607  0.189279  -0.152357
    C   C10  0.033248  0.993163  0.089736  0.026997
    C   C11  0.092891  0.991033  0.007821  0.041549
    C   C12  0.074021  0.977372  0.908482  0.023363
    C   C13  0.132890  0.961718  0.831065  -0.113224
    C   C14  0.895425  0.000568  0.148995  -0.178502
    C   C15  0.955270  0.989106  0.070745  0.094834
    C   C16  0.937058  0.978555  0.970827  -0.037234
    C   C17  0.996395  0.974072  0.889284  0.084339
    C   C18  0.977443  0.971066  0.789463  -0.168497
    C   C19  0.819092  0.994737  0.129894  -0.083895
    C   C20  0.798840  0.977539  0.031691  0.018012
    C   C21  0.859341  0.974052  0.951955  0.110140
    C   C22  0.842411  0.968718  0.852464  0.080581
    C   C23  0.720720  0.970999  0.011673  0.022227
    C   C24  0.705865  0.968415  0.909915  -0.091723
    C   C25  0.901327  0.967843  0.771910  -0.137030
    C   C26  0.767285  0.968119  0.831773  -0.125804
    H   H1   0.277869  0.016609  0.222555  0.196611
    H   H2   0.143272  0.005593  0.283954  0.142041
    H   H3   0.250515  0.953719  0.786205  0.150986
    H   H4   0.010280  0.990990  0.257779  0.144285
    H   H5   0.121249  0.935459  0.754823  0.121224
    H   H6   0.905137  0.018169  0.227326  0.134037
    H   H7   0.020465  0.975406  0.721465  0.143672
    H   H8   0.777680  0.008704  0.194526  0.130131
    H   H9   0.888608  0.966313  0.693555  0.128257
    H   H10  0.756190  0.965134  0.752685  0.163704
    O   O1   0.608725  0.037104  0.091984  -0.567819
    C   C27  0.655563  0.970683  0.096616  0.524283
    O   O2   0.483881  0.766861  0.228114  -0.446764
    O   O3   0.643130  0.902202  0.175685  -0.476796
    O   O4   0.512001  0.921692  0.330060  -0.630792
    C   C28  0.493347  0.811771  0.318659  0.644800
    Fe  Fe1  0.524559  0.025650  0.212469  1.507289
    O   O5   0.417661  0.967673  0.161753  -0.626673
    O   O6   0.464495  0.134309  0.073605  -0.532645
    C   C29  0.407851  0.039977  0.096028  0.785371
    O   O7   0.556337  0.182053  0.267367  -0.693790
    O   O8   0.421722  0.137507  0.319845  -0.606184
    C   C30  0.493457  0.208019  0.318238  0.774591
    O   O9   0.451779  0.886735  0.695813  -0.658647
    O   O10  0.537868  0.792961  0.739931  -0.514166
    C   C31  0.480319  0.798733  0.687698  0.643750
    O   O11  0.628689  0.021598  0.792839  -0.687224
    O   O12  0.559586  0.913153  0.931860  -0.455501
    C   C32  0.628091  0.969758  0.879418  0.785673
    O   O13  0.374358  0.080704  0.786152  -0.475449
    O   O14  0.550877  0.143760  0.652633  -0.591138
    C   C33  0.538004  0.243216  0.667976  0.508620
    O   O15  0.451055  0.030011  0.890450  -0.586802
    C   C34  0.381553  0.045011  0.876740  0.665895
    O   O16  0.512917  0.273501  0.760359  -0.453247
    Fe  Fe2  0.520126  0.022354  0.758704  1.477858
    C   C35  0.470505  0.733290  0.594262  0.029816
    C   C36  0.473469  0.623155  0.591393  -0.196588
    H   H11  0.467500  0.581622  0.664379  0.145762
    C   C37  0.484598  0.570339  0.497677  0.071288
    C   C38  0.494016  0.634251  0.407524  -0.092439
    H   H12  0.513494  0.604239  0.333492  0.107602
    C   C39  0.483485  0.741513  0.411307  -0.022509
    C   C40  0.471055  0.789694  0.505257  -0.137335
    C   C41  0.480452  0.383619  0.409446  -0.115952
    C   C42  0.507107  0.287392  0.401892  -0.004795
    C   C43  0.535048  0.250985  0.483218  -0.171389
    C   C44  0.533531  0.305536  0.575431  0.113588
    C   C45  0.519274  0.410261  0.579147  -0.213549
    H   H13  0.527912  0.455838  0.649282  0.133158
    C   C46  0.494758  0.453416  0.494873  0.092114
    H   H14  0.467973  0.875756  0.509093  0.155918
    H   H15  0.548177  0.170454  0.476171  0.143860
    C   C47  0.429373  0.400689  0.334300  0.213133
    C   C48  0.457693  0.410729  0.229991  -0.194975
    C   C49  0.408834  0.425917  0.160697  -0.044103
    C   C50  0.331449  0.430834  0.194977  0.084282
    Cl  Cl1  0.269483  0.450096  0.106888  -0.100972
    C   C51  0.302903  0.420723  0.298658  -0.123667
    C   C52  0.351674  0.405727  0.368139  -0.167227
    H   H16  0.518687  0.408651  0.202387  0.144726
    H   H17  0.431341  0.434268  0.079403  0.125898
    H   H18  0.242155  0.424397  0.325550  0.103975
    H   H19  0.328556  0.397018  0.449253  0.126929
