# generated using pymatgen
data_Cu3H36C74(ClO3)4
_symmetry_space_group_name_H-M   'P 1'
_cell_length_a   21.66321300
_cell_length_b   21.66321300
_cell_length_c   29.75975100
_cell_angle_alpha   90.00000000
_cell_angle_beta   90.00000000
_cell_angle_gamma   90.00000000
_symmetry_Int_Tables_number   1
_chemical_formula_structural   Cu3H36C74(ClO3)4
_chemical_formula_sum   'Cu12 H144 C296 Cl16 O48'
_cell_volume   13966.09631870
_cell_formula_units_Z   4
loop_
 _symmetry_equiv_pos_site_id
 _symmetry_equiv_pos_as_xyz
  1  'x, y, z'
loop_
 _atom_site_type_symbol
 _atom_site_label
 _atom_site_symmetry_multiplicity
 _atom_site_fract_x
 _atom_site_fract_y
 _atom_site_fract_z
 _atom_site_occupancy
  Cu  Cu1  1  0.44003900  0.00000000  0.50000000  1
  Cu  Cu2  1  0.00000000  0.55996100  0.50000000  1
  Cu  Cu3  1  0.55996100  0.00000000  0.50000000  1
  Cu  Cu4  1  0.00000000  0.44003900  0.50000000  1
  Cu  Cu5  1  0.94003900  0.50000000  0.00000000  1
  Cu  Cu6  1  0.50000000  0.05996100  0.00000000  1
  Cu  Cu7  1  0.05996100  0.50000000  0.00000000  1
  Cu  Cu8  1  0.50000000  0.94003900  0.00000000  1
  Cu  Cu9  1  0.50000000  0.50000000  0.45594900  1
  Cu  Cu10  1  0.50000000  0.50000000  0.54405100  1
  Cu  Cu11  1  0.00000000  0.00000000  0.95594900  1
  Cu  Cu12  1  0.00000000  0.00000000  0.04405100  1
  H  H1  1  0.56678200  0.07246500  0.86054500  1
  H  H2  1  0.07246500  0.43321800  0.86054500  1
  H  H3  1  0.43321800  0.92753500  0.86054500  1
  H  H4  1  0.92753500  0.56678200  0.86054500  1
  H  H5  1  0.56678200  0.92753500  0.13945500  1
  H  H6  1  0.07246500  0.56678200  0.13945500  1
  H  H7  1  0.43321800  0.07246500  0.13945500  1
  H  H8  1  0.92753500  0.43321800  0.13945500  1
  H  H9  1  0.06678200  0.57246500  0.36054500  1
  H  H10  1  0.57246500  0.93321800  0.36054500  1
  H  H11  1  0.93321800  0.42753500  0.36054500  1
  H  H12  1  0.42753500  0.06678200  0.36054500  1
  H  H13  1  0.06678200  0.42753500  0.63945500  1
  H  H14  1  0.57246500  0.06678200  0.63945500  1
  H  H15  1  0.93321800  0.57246500  0.63945500  1
  H  H16  1  0.42753500  0.93321800  0.63945500  1
  H  H17  1  0.39262900  0.89020400  0.79107300  1
  H  H18  1  0.89020400  0.60737100  0.79107300  1
  H  H19  1  0.60737100  0.10979600  0.79107300  1
  H  H20  1  0.10979600  0.39262900  0.79107300  1
  H  H21  1  0.39262900  0.10979600  0.20892700  1
  H  H22  1  0.89020400  0.39262900  0.20892700  1
  H  H23  1  0.60737100  0.89020400  0.20892700  1
  H  H24  1  0.10979600  0.60737100  0.20892700  1
  H  H25  1  0.89262900  0.39020400  0.29107300  1
  H  H26  1  0.39020400  0.10737100  0.29107300  1
  H  H27  1  0.10737100  0.60979600  0.29107300  1
  H  H28  1  0.60979600  0.89262900  0.29107300  1
  H  H29  1  0.89262900  0.60979600  0.70892700  1
  H  H30  1  0.39020400  0.89262900  0.70892700  1
  H  H31  1  0.10737100  0.39020400  0.70892700  1
  H  H32  1  0.60979600  0.10737100  0.70892700  1
  H  H33  1  0.31686400  0.19605100  0.42487600  1
  H  H34  1  0.19605100  0.68313600  0.42487600  1
  H  H35  1  0.68313600  0.80394900  0.42487600  1
  H  H36  1  0.80394900  0.31686400  0.42487600  1
  H  H37  1  0.31686400  0.80394900  0.57512400  1
  H  H38  1  0.19605100  0.31686400  0.57512400  1
  H  H39  1  0.68313600  0.19605100  0.57512400  1
  H  H40  1  0.80394900  0.68313600  0.57512400  1
  H  H41  1  0.81686400  0.69605100  0.92487600  1
  H  H42  1  0.69605100  0.18313600  0.92487600  1
  H  H43  1  0.18313600  0.30394900  0.92487600  1
  H  H44  1  0.30394900  0.81686400  0.92487600  1
  H  H45  1  0.81686400  0.30394900  0.07512400  1
  H  H46  1  0.69605100  0.81686400  0.07512400  1
  H  H47  1  0.18313600  0.69605100  0.07512400  1
  H  H48  1  0.30394900  0.18313600  0.07512400  1
  H  H49  1  0.59692700  0.13917100  0.54783300  1
  H  H50  1  0.13917100  0.40307300  0.54783300  1
  H  H51  1  0.40307300  0.86082900  0.54783300  1
  H  H52  1  0.86082900  0.59692700  0.54783300  1
  H  H53  1  0.59692700  0.86082900  0.45216700  1
  H  H54  1  0.13917100  0.59692700  0.45216700  1
  H  H55  1  0.40307300  0.13917100  0.45216700  1
  H  H56  1  0.86082900  0.40307300  0.45216700  1
  H  H57  1  0.09692700  0.63917100  0.04783300  1
  H  H58  1  0.63917100  0.90307300  0.04783300  1
  H  H59  1  0.90307300  0.36082900  0.04783300  1
  H  H60  1  0.36082900  0.09692700  0.04783300  1
  H  H61  1  0.09692700  0.36082900  0.95216700  1
  H  H62  1  0.63917100  0.09692700  0.95216700  1
  H  H63  1  0.90307300  0.63917100  0.95216700  1
  H  H64  1  0.36082900  0.90307300  0.95216700  1
  H  H65  1  0.60074300  0.36376000  0.53529100  1
  H  H66  1  0.36376000  0.39925700  0.53529100  1
  H  H67  1  0.39925700  0.63624000  0.53529100  1
  H  H68  1  0.63624000  0.60074300  0.53529100  1
  H  H69  1  0.60074300  0.63624000  0.46470900  1
  H  H70  1  0.36376000  0.60074300  0.46470900  1
  H  H71  1  0.39925700  0.36376000  0.46470900  1
  H  H72  1  0.63624000  0.39925700  0.46470900  1
  H  H73  1  0.10074300  0.86376000  0.03529100  1
  H  H74  1  0.86376000  0.89925700  0.03529100  1
  H  H75  1  0.89925700  0.13624000  0.03529100  1
  H  H76  1  0.13624000  0.10074300  0.03529100  1
  H  H77  1  0.10074300  0.13624000  0.96470900  1
  H  H78  1  0.86376000  0.10074300  0.96470900  1
  H  H79  1  0.89925700  0.86376000  0.96470900  1
  H  H80  1  0.13624000  0.89925700  0.96470900  1
  H  H81  1  0.76764300  0.25773400  0.54352900  1
  H  H82  1  0.85610600  0.31854300  0.56912500  1
  H  H83  1  0.73463300  0.45090800  0.62697100  1
  H  H84  1  0.64590000  0.39005800  0.60306300  1
  H  H85  1  0.25773400  0.23235700  0.54352900  1
  H  H86  1  0.31854300  0.14389400  0.56912500  1
  H  H87  1  0.45090800  0.26536700  0.62697100  1
  H  H88  1  0.39005800  0.35410000  0.60306300  1
  H  H89  1  0.23235700  0.74226600  0.54352900  1
  H  H90  1  0.14389400  0.68145700  0.56912500  1
  H  H91  1  0.26536700  0.54909200  0.62697100  1
  H  H92  1  0.35410000  0.60994200  0.60306300  1
  H  H93  1  0.74226600  0.76764300  0.54352900  1
  H  H94  1  0.68145700  0.85610600  0.56912500  1
  H  H95  1  0.54909200  0.73463300  0.62697100  1
  H  H96  1  0.60994200  0.64590000  0.60306300  1
  H  H97  1  0.76764300  0.74226600  0.45647100  1
  H  H98  1  0.85610600  0.68145700  0.43087500  1
  H  H99  1  0.73463300  0.54909200  0.37302900  1
  H  H100  1  0.64590000  0.60994200  0.39693700  1
  H  H101  1  0.25773400  0.76764300  0.45647100  1
  H  H102  1  0.31854300  0.85610600  0.43087500  1
  H  H103  1  0.45090800  0.73463300  0.37302900  1
  H  H104  1  0.39005800  0.64590000  0.39693700  1
  H  H105  1  0.23235700  0.25773400  0.45647100  1
  H  H106  1  0.14389400  0.31854300  0.43087500  1
  H  H107  1  0.26536700  0.45090800  0.37302900  1
  H  H108  1  0.35410000  0.39005800  0.39693700  1
  H  H109  1  0.74226600  0.23235700  0.45647100  1
  H  H110  1  0.68145700  0.14389400  0.43087500  1
  H  H111  1  0.54909200  0.26536700  0.37302900  1
  H  H112  1  0.60994200  0.35410000  0.39693700  1
  H  H113  1  0.26764300  0.75773400  0.04352900  1
  H  H114  1  0.35610600  0.81854300  0.06912500  1
  H  H115  1  0.23463300  0.95090800  0.12697100  1
  H  H116  1  0.14590000  0.89005800  0.10306300  1
  H  H117  1  0.75773400  0.73235700  0.04352900  1
  H  H118  1  0.81854300  0.64389400  0.06912500  1
  H  H119  1  0.95090800  0.76536700  0.12697100  1
  H  H120  1  0.89005800  0.85410000  0.10306300  1
  H  H121  1  0.73235700  0.24226600  0.04352900  1
  H  H122  1  0.64389400  0.18145700  0.06912500  1
  H  H123  1  0.76536700  0.04909200  0.12697100  1
  H  H124  1  0.85410000  0.10994200  0.10306300  1
  H  H125  1  0.24226600  0.26764300  0.04352900  1
  H  H126  1  0.18145700  0.35610600  0.06912500  1
  H  H127  1  0.04909200  0.23463300  0.12697100  1
  H  H128  1  0.10994200  0.14590000  0.10306300  1
  H  H129  1  0.26764300  0.24226600  0.95647100  1
  H  H130  1  0.35610600  0.18145700  0.93087500  1
  H  H131  1  0.23463300  0.04909200  0.87302900  1
  H  H132  1  0.14590000  0.10994200  0.89693700  1
  H  H133  1  0.75773400  0.26764300  0.95647100  1
  H  H134  1  0.81854300  0.35610600  0.93087500  1
  H  H135  1  0.95090800  0.23463300  0.87302900  1
  H  H136  1  0.89005800  0.14590000  0.89693700  1
  H  H137  1  0.73235700  0.75773400  0.95647100  1
  H  H138  1  0.64389400  0.81854300  0.93087500  1
  H  H139  1  0.76536700  0.95090800  0.87302900  1
  H  H140  1  0.85410000  0.89005800  0.89693700  1
  H  H141  1  0.24226600  0.73235700  0.95647100  1
  H  H142  1  0.18145700  0.64389400  0.93087500  1
  H  H143  1  0.04909200  0.76536700  0.87302900  1
  H  H144  1  0.10994200  0.85410000  0.89693700  1
  C  C1  1  0.50000000  0.11706100  0.50000000  1
  C  C2  1  0.11706100  0.50000000  0.50000000  1
  C  C3  1  0.50000000  0.88293900  0.50000000  1
  C  C4  1  0.88293900  0.50000000  0.50000000  1
  C  C5  1  0.00000000  0.61706100  0.00000000  1
  C  C6  1  0.61706100  0.00000000  0.00000000  1
  C  C7  1  0.00000000  0.38293900  0.00000000  1
  C  C8  1  0.38293900  0.00000000  0.00000000  1
  C  C9  1  0.50000000  0.00000000  0.58488800  1
  C  C10  1  0.00000000  0.50000000  0.58488800  1
  C  C11  1  0.50000000  0.00000000  0.41511200  1
  C  C12  1  0.00000000  0.50000000  0.41511200  1
  C  C13  1  0.00000000  0.50000000  0.08488800  1
  C  C14  1  0.50000000  0.00000000  0.08488800  1
  C  C15  1  0.00000000  0.50000000  0.91511200  1
  C  C16  1  0.50000000  0.00000000  0.91511200  1
  C  C17  1  0.53697600  0.04090400  0.84265500  1
  C  C18  1  0.04090400  0.46302400  0.84265500  1
  C  C19  1  0.46302400  0.95909600  0.84265500  1
  C  C20  1  0.95909600  0.53697600  0.84265500  1
  C  C21  1  0.53697600  0.95909600  0.15734500  1
  C  C22  1  0.04090400  0.53697600  0.15734500  1
  C  C23  1  0.46302400  0.04090400  0.15734500  1
  C  C24  1  0.95909600  0.46302400  0.15734500  1
  C  C25  1  0.03697600  0.54090400  0.34265500  1
  C  C26  1  0.54090400  0.96302400  0.34265500  1
  C  C27  1  0.96302400  0.45909600  0.34265500  1
  C  C28  1  0.45909600  0.03697600  0.34265500  1
  C  C29  1  0.03697600  0.45909600  0.65734500  1
  C  C30  1  0.54090400  0.03697600  0.65734500  1
  C  C31  1  0.96302400  0.54090400  0.65734500  1
  C  C32  1  0.45909600  0.96302400  0.65734500  1
  C  C33  1  0.50000000  0.00000000  0.86595400  1
  C  C34  1  0.00000000  0.50000000  0.86595400  1
  C  C35  1  0.50000000  0.00000000  0.13404600  1
  C  C36  1  0.00000000  0.50000000  0.13404600  1
  C  C37  1  0.00000000  0.50000000  0.36595400  1
  C  C38  1  0.50000000  0.00000000  0.36595400  1
  C  C39  1  0.00000000  0.50000000  0.63404600  1
  C  C40  1  0.50000000  0.00000000  0.63404600  1
  C  C41  1  0.46196200  0.96015700  0.79633300  1
  C  C42  1  0.96015700  0.53803800  0.79633300  1
  C  C43  1  0.53803800  0.03984300  0.79633300  1
  C  C44  1  0.03984300  0.46196200  0.79633300  1
  C  C45  1  0.46196200  0.03984300  0.20366700  1
  C  C46  1  0.96015700  0.46196200  0.20366700  1
  C  C47  1  0.53803800  0.96015700  0.20366700  1
  C  C48  1  0.03984300  0.53803800  0.20366700  1
  C  C49  1  0.96196200  0.46015700  0.29633300  1
  C  C50  1  0.46015700  0.03803800  0.29633300  1
  C  C51  1  0.03803800  0.53984300  0.29633300  1
  C  C52  1  0.53984300  0.96196200  0.29633300  1
  C  C53  1  0.96196200  0.53984300  0.70366700  1
  C  C54  1  0.46015700  0.96196200  0.70366700  1
  C  C55  1  0.03803800  0.46015700  0.70366700  1
  C  C56  1  0.53984300  0.03803800  0.70366700  1
  C  C57  1  0.50000000  0.00000000  0.77316900  1
  C  C58  1  0.00000000  0.50000000  0.77316900  1
  C  C59  1  0.50000000  0.00000000  0.22683100  1
  C  C60  1  0.00000000  0.50000000  0.22683100  1
  C  C61  1  0.00000000  0.50000000  0.27316900  1
  C  C62  1  0.50000000  0.00000000  0.27316900  1
  C  C63  1  0.00000000  0.50000000  0.72683100  1
  C  C64  1  0.50000000  0.00000000  0.72683100  1
  C  C65  1  0.42278300  0.92139400  0.77313600  1
  C  C66  1  0.92139400  0.57721700  0.77313600  1
  C  C67  1  0.57721700  0.07860600  0.77313600  1
  C  C68  1  0.07860600  0.42278300  0.77313600  1
  C  C69  1  0.42278300  0.07860600  0.22686400  1
  C  C70  1  0.92139400  0.42278300  0.22686400  1
  C  C71  1  0.57721700  0.92139400  0.22686400  1
  C  C72  1  0.07860600  0.57721700  0.22686400  1
  C  C73  1  0.92278300  0.42139400  0.27313600  1
  C  C74  1  0.42139400  0.07721700  0.27313600  1
  C  C75  1  0.07721700  0.57860600  0.27313600  1
  C  C76  1  0.57860600  0.92278300  0.27313600  1
  C  C77  1  0.92278300  0.57860600  0.72686400  1
  C  C78  1  0.42139400  0.92278300  0.72686400  1
  C  C79  1  0.07721700  0.42139400  0.72686400  1
  C  C80  1  0.57860600  0.07721700  0.72686400  1
  C  C81  1  0.59639800  0.18823400  0.54225600  1
  C  C82  1  0.18823400  0.40360200  0.54225600  1
  C  C83  1  0.40360200  0.81176600  0.54225600  1
  C  C84  1  0.81176600  0.59639800  0.54225600  1
  C  C85  1  0.59639800  0.81176600  0.45774400  1
  C  C86  1  0.18823400  0.59639800  0.45774400  1
  C  C87  1  0.40360200  0.18823400  0.45774400  1
  C  C88  1  0.81176600  0.40360200  0.45774400  1
  C  C89  1  0.09639800  0.68823400  0.04225600  1
  C  C90  1  0.68823400  0.90360200  0.04225600  1
  C  C91  1  0.90360200  0.31176600  0.04225600  1
  C  C92  1  0.31176600  0.09639800  0.04225600  1
  C  C93  1  0.09639800  0.31176600  0.95774400  1
  C  C94  1  0.68823400  0.09639800  0.95774400  1
  C  C95  1  0.90360200  0.68823400  0.95774400  1
  C  C96  1  0.31176600  0.90360200  0.95774400  1
  C  C97  1  0.64604400  0.22070700  0.55877700  1
  C  C98  1  0.22070700  0.35395600  0.55877700  1
  C  C99  1  0.35395600  0.77929300  0.55877700  1
  C  C100  1  0.77929300  0.64604400  0.55877700  1
  C  C101  1  0.64604400  0.77929300  0.44122300  1
  C  C102  1  0.22070700  0.64604400  0.44122300  1
  C  C103  1  0.35395600  0.22070700  0.44122300  1
  C  C104  1  0.77929300  0.35395600  0.44122300  1
  C  C105  1  0.14604400  0.72070700  0.05877700  1
  C  C106  1  0.72070700  0.85395600  0.05877700  1
  C  C107  1  0.85395600  0.27929300  0.05877700  1
  C  C108  1  0.27929300  0.14604400  0.05877700  1
  C  C109  1  0.14604400  0.27929300  0.94122300  1
  C  C110  1  0.72070700  0.14604400  0.94122300  1
  C  C111  1  0.85395600  0.72070700  0.94122300  1
  C  C112  1  0.27929300  0.85395600  0.94122300  1
  C  C113  1  0.64743000  0.28394000  0.55562900  1
  C  C114  1  0.28394000  0.35257000  0.55562900  1
  C  C115  1  0.35257000  0.71606000  0.55562900  1
  C  C116  1  0.71606000  0.64743000  0.55562900  1
  C  C117  1  0.64743000  0.71606000  0.44437100  1
  C  C118  1  0.28394000  0.64743000  0.44437100  1
  C  C119  1  0.35257000  0.28394000  0.44437100  1
  C  C120  1  0.71606000  0.35257000  0.44437100  1
  C  C121  1  0.14743000  0.78394000  0.05562900  1
  C  C122  1  0.78394000  0.85257000  0.05562900  1
  C  C123  1  0.85257000  0.21606000  0.05562900  1
  C  C124  1  0.21606000  0.14743000  0.05562900  1
  C  C125  1  0.14743000  0.21606000  0.94437100  1
  C  C126  1  0.78394000  0.14743000  0.94437100  1
  C  C127  1  0.85257000  0.78394000  0.94437100  1
  C  C128  1  0.21606000  0.85257000  0.94437100  1
  C  C129  1  0.59812300  0.31435500  0.53702000  1
  C  C130  1  0.31435500  0.40187700  0.53702000  1
  C  C131  1  0.40187700  0.68564500  0.53702000  1
  C  C132  1  0.68564500  0.59812300  0.53702000  1
  C  C133  1  0.59812300  0.68564500  0.46298000  1
  C  C134  1  0.31435500  0.59812300  0.46298000  1
  C  C135  1  0.40187700  0.31435500  0.46298000  1
  C  C136  1  0.68564500  0.40187700  0.46298000  1
  C  C137  1  0.09812300  0.81435500  0.03702000  1
  C  C138  1  0.81435500  0.90187700  0.03702000  1
  C  C139  1  0.90187700  0.18564500  0.03702000  1
  C  C140  1  0.18564500  0.09812300  0.03702000  1
  C  C141  1  0.09812300  0.18564500  0.96298000  1
  C  C142  1  0.81435500  0.09812300  0.96298000  1
  C  C143  1  0.90187700  0.81435500  0.96298000  1
  C  C144  1  0.18564500  0.90187700  0.96298000  1
  C  C145  1  0.54866000  0.28229300  0.51903900  1
  C  C146  1  0.28229300  0.45134000  0.51903900  1
  C  C147  1  0.45134000  0.71770700  0.51903900  1
  C  C148  1  0.71770700  0.54866000  0.51903900  1
  C  C149  1  0.54866000  0.71770700  0.48096100  1
  C  C150  1  0.28229300  0.54866000  0.48096100  1
  C  C151  1  0.45134000  0.28229300  0.48096100  1
  C  C152  1  0.71770700  0.45134000  0.48096100  1
  C  C153  1  0.04866000  0.78229300  0.01903900  1
  C  C154  1  0.78229300  0.95134000  0.01903900  1
  C  C155  1  0.95134000  0.21770700  0.01903900  1
  C  C156  1  0.21770700  0.04866000  0.01903900  1
  C  C157  1  0.04866000  0.21770700  0.98096100  1
  C  C158  1  0.78229300  0.04866000  0.98096100  1
  C  C159  1  0.95134000  0.78229300  0.98096100  1
  C  C160  1  0.21770700  0.95134000  0.98096100  1
  C  C161  1  0.54838700  0.21825000  0.52008600  1
  C  C162  1  0.21825000  0.45161300  0.52008600  1
  C  C163  1  0.45161300  0.78175000  0.52008600  1
  C  C164  1  0.78175000  0.54838700  0.52008600  1
  C  C165  1  0.54838700  0.78175000  0.47991400  1
  C  C166  1  0.21825000  0.54838700  0.47991400  1
  C  C167  1  0.45161300  0.21825000  0.47991400  1
  C  C168  1  0.78175000  0.45161300  0.47991400  1
  C  C169  1  0.04838700  0.71825000  0.02008600  1
  C  C170  1  0.71825000  0.95161300  0.02008600  1
  C  C171  1  0.95161300  0.28175000  0.02008600  1
  C  C172  1  0.28175000  0.04838700  0.02008600  1
  C  C173  1  0.04838700  0.28175000  0.97991400  1
  C  C174  1  0.71825000  0.04838700  0.97991400  1
  C  C175  1  0.95161300  0.71825000  0.97991400  1
  C  C176  1  0.28175000  0.95161300  0.97991400  1
  C  C177  1  0.50000000  0.31445100  0.50000000  1
  C  C178  1  0.31445100  0.50000000  0.50000000  1
  C  C179  1  0.50000000  0.68554900  0.50000000  1
  C  C180  1  0.68554900  0.50000000  0.50000000  1
  C  C181  1  0.00000000  0.81445100  0.00000000  1
  C  C182  1  0.81445100  0.00000000  0.00000000  1
  C  C183  1  0.00000000  0.18554900  0.00000000  1
  C  C184  1  0.18554900  0.00000000  0.00000000  1
  C  C185  1  0.50000000  0.18548600  0.50000000  1
  C  C186  1  0.18548600  0.50000000  0.50000000  1
  C  C187  1  0.50000000  0.81451400  0.50000000  1
  C  C188  1  0.81451400  0.50000000  0.50000000  1
  C  C189  1  0.00000000  0.68548600  0.00000000  1
  C  C190  1  0.68548600  0.00000000  0.00000000  1
  C  C191  1  0.00000000  0.31451400  0.00000000  1
  C  C192  1  0.31451400  0.00000000  0.00000000  1
  C  C193  1  0.38249600  0.50000000  0.50000000  1
  C  C194  1  0.50000000  0.61750400  0.50000000  1
  C  C195  1  0.61750400  0.50000000  0.50000000  1
  C  C196  1  0.50000000  0.38249600  0.50000000  1
  C  C197  1  0.88249600  0.00000000  0.00000000  1
  C  C198  1  0.00000000  0.11750400  0.00000000  1
  C  C199  1  0.11750400  0.00000000  0.00000000  1
  C  C200  1  0.00000000  0.88249600  0.00000000  1
  C  C201  1  0.70058200  0.31933300  0.57177200  1
  C  C202  1  0.75986200  0.29951300  0.56253600  1
  C  C203  1  0.80975400  0.33398800  0.57647300  1
  C  C204  1  0.80057000  0.38815100  0.59975300  1
  C  C205  1  0.74168800  0.40835300  0.60872200  1
  C  C206  1  0.69177800  0.37405400  0.59487300  1
  C  C207  1  0.31933300  0.29941800  0.57177200  1
  C  C208  1  0.29951300  0.24013800  0.56253600  1
  C  C209  1  0.33398800  0.19024600  0.57647300  1
  C  C210  1  0.38815100  0.19943000  0.59975300  1
  C  C211  1  0.40835300  0.25831200  0.60872200  1
  C  C212  1  0.37405400  0.30822200  0.59487300  1
  C  C213  1  0.29941800  0.68066700  0.57177200  1
  C  C214  1  0.24013800  0.70048700  0.56253600  1
  C  C215  1  0.19024600  0.66601200  0.57647300  1
  C  C216  1  0.19943000  0.61184900  0.59975300  1
  C  C217  1  0.25831200  0.59164700  0.60872200  1
  C  C218  1  0.30822200  0.62594600  0.59487300  1
  C  C219  1  0.68066700  0.70058200  0.57177200  1
  C  C220  1  0.70048700  0.75986200  0.56253600  1
  C  C221  1  0.66601200  0.80975400  0.57647300  1
  C  C222  1  0.61184900  0.80057000  0.59975300  1
  C  C223  1  0.59164700  0.74168800  0.60872200  1
  C  C224  1  0.62594600  0.69177800  0.59487300  1
  C  C225  1  0.70058200  0.68066700  0.42822800  1
  C  C226  1  0.75986200  0.70048700  0.43746400  1
  C  C227  1  0.80975400  0.66601200  0.42352700  1
  C  C228  1  0.80057000  0.61184900  0.40024700  1
  C  C229  1  0.74168800  0.59164700  0.39127800  1
  C  C230  1  0.69177800  0.62594600  0.40512700  1
  C  C231  1  0.31933300  0.70058200  0.42822800  1
  C  C232  1  0.29951300  0.75986200  0.43746400  1
  C  C233  1  0.33398800  0.80975400  0.42352700  1
  C  C234  1  0.38815100  0.80057000  0.40024700  1
  C  C235  1  0.40835300  0.74168800  0.39127800  1
  C  C236  1  0.37405400  0.69177800  0.40512700  1
  C  C237  1  0.29941800  0.31933300  0.42822800  1
  C  C238  1  0.24013800  0.29951300  0.43746400  1
  C  C239  1  0.19024600  0.33398800  0.42352700  1
  C  C240  1  0.19943000  0.38815100  0.40024700  1
  C  C241  1  0.25831200  0.40835300  0.39127800  1
  C  C242  1  0.30822200  0.37405400  0.40512700  1
  C  C243  1  0.68066700  0.29941800  0.42822800  1
  C  C244  1  0.70048700  0.24013800  0.43746400  1
  C  C245  1  0.66601200  0.19024600  0.42352700  1
  C  C246  1  0.61184900  0.19943000  0.40024700  1
  C  C247  1  0.59164700  0.25831200  0.39127800  1
  C  C248  1  0.62594600  0.30822200  0.40512700  1
  C  C249  1  0.20058200  0.81933300  0.07177200  1
  C  C250  1  0.25986200  0.79951300  0.06253600  1
  C  C251  1  0.30975400  0.83398800  0.07647300  1
  C  C252  1  0.30057000  0.88815100  0.09975300  1
  C  C253  1  0.24168800  0.90835300  0.10872200  1
  C  C254  1  0.19177800  0.87405400  0.09487300  1
  C  C255  1  0.81933300  0.79941800  0.07177200  1
  C  C256  1  0.79951300  0.74013800  0.06253600  1
  C  C257  1  0.83398800  0.69024600  0.07647300  1
  C  C258  1  0.88815100  0.69943000  0.09975300  1
  C  C259  1  0.90835200  0.75831200  0.10872200  1
  C  C260  1  0.87405400  0.80822200  0.09487300  1
  C  C261  1  0.79941800  0.18066700  0.07177200  1
  C  C262  1  0.74013800  0.20048700  0.06253600  1
  C  C263  1  0.69024600  0.16601200  0.07647300  1
  C  C264  1  0.69943000  0.11184900  0.09975300  1
  C  C265  1  0.75831200  0.09164700  0.10872200  1
  C  C266  1  0.80822200  0.12594600  0.09487300  1
  C  C267  1  0.18066700  0.20058200  0.07177200  1
  C  C268  1  0.20048700  0.25986200  0.06253600  1
  C  C269  1  0.16601200  0.30975400  0.07647300  1
  C  C270  1  0.11184900  0.30057000  0.09975300  1
  C  C271  1  0.09164700  0.24168800  0.10872200  1
  C  C272  1  0.12594600  0.19177800  0.09487300  1
  C  C273  1  0.20058200  0.18066700  0.92822800  1
  C  C274  1  0.25986200  0.20048700  0.93746400  1
  C  C275  1  0.30975400  0.16601200  0.92352700  1
  C  C276  1  0.30057000  0.11184900  0.90024700  1
  C  C277  1  0.24168800  0.09164700  0.89127800  1
  C  C278  1  0.19177800  0.12594600  0.90512700  1
  C  C279  1  0.81933300  0.20058200  0.92822800  1
  C  C280  1  0.79951300  0.25986200  0.93746400  1
  C  C281  1  0.83398800  0.30975400  0.92352700  1
  C  C282  1  0.88815100  0.30057000  0.90024700  1
  C  C283  1  0.90835300  0.24168800  0.89127800  1
  C  C284  1  0.87405400  0.19177800  0.90512700  1
  C  C285  1  0.79941800  0.81933300  0.92822800  1
  C  C286  1  0.74013800  0.79951300  0.93746400  1
  C  C287  1  0.69024600  0.83398800  0.92352700  1
  C  C288  1  0.69943000  0.88815100  0.90024700  1
  C  C289  1  0.75831200  0.90835300  0.89127800  1
  C  C290  1  0.80822200  0.87405400  0.90512700  1
  C  C291  1  0.18066700  0.79941800  0.92822800  1
  C  C292  1  0.20048700  0.74013800  0.93746400  1
  C  C293  1  0.16601200  0.69024600  0.92352700  1
  C  C294  1  0.11184900  0.69943000  0.90024700  1
  C  C295  1  0.09164700  0.75831200  0.89127800  1
  C  C296  1  0.12594600  0.80822200  0.90512700  1
  Cl  Cl1  1  0.86354200  0.43090400  0.61878500  1
  Cl  Cl2  1  0.43090400  0.13645800  0.61878500  1
  Cl  Cl3  1  0.13645800  0.56909600  0.61878500  1
  Cl  Cl4  1  0.56909600  0.86354200  0.61878500  1
  Cl  Cl5  1  0.86354200  0.56909500  0.38121500  1
  Cl  Cl6  1  0.43090500  0.86354200  0.38121500  1
  Cl  Cl7  1  0.13645900  0.43090500  0.38121500  1
  Cl  Cl8  1  0.56909500  0.13645800  0.38121500  1
  Cl  Cl9  1  0.36354200  0.93090400  0.11878500  1
  Cl  Cl10  1  0.93090400  0.63645800  0.11878500  1
  Cl  Cl11  1  0.63645800  0.06909600  0.11878500  1
  Cl  Cl12  1  0.06909500  0.36354200  0.11878500  1
  Cl  Cl13  1  0.36354100  0.06909500  0.88121500  1
  Cl  Cl14  1  0.93090500  0.36354100  0.88121500  1
  Cl  Cl15  1  0.63645800  0.93090400  0.88121500  1
  Cl  Cl16  1  0.06909500  0.63645800  0.88121500  1
  O  O1  1  0.44965900  0.08768500  0.51359600  1
  O  O2  1  0.08768500  0.55034100  0.51359600  1
  O  O3  1  0.55034100  0.91231500  0.51359600  1
  O  O4  1  0.91231500  0.44965900  0.51359600  1
  O  O5  1  0.44965900  0.91231500  0.48640500  1
  O  O6  1  0.08768500  0.44965900  0.48640500  1
  O  O7  1  0.55034100  0.08768500  0.48640500  1
  O  O8  1  0.91231500  0.55034100  0.48640500  1
  O  O9  1  0.94965900  0.58768500  0.01359600  1
  O  O10  1  0.58768500  0.05034100  0.01359600  1
  O  O11  1  0.05034100  0.41231500  0.01359600  1
  O  O12  1  0.41231500  0.94965900  0.01359600  1
  O  O13  1  0.94965900  0.41231500  0.98640500  1
  O  O14  1  0.58768500  0.94965900  0.98640500  1
  O  O15  1  0.05034100  0.58768500  0.98640500  1
  O  O16  1  0.41231500  0.05034100  0.98640500  1
  O  O17  1  0.44957300  0.98130300  0.56383500  1
  O  O18  1  0.98130300  0.55042700  0.56383500  1
  O  O19  1  0.55042700  0.01869700  0.56383500  1
  O  O20  1  0.01869700  0.44957300  0.56383500  1
  O  O21  1  0.44957300  0.01869700  0.43616500  1
  O  O22  1  0.98130300  0.44957300  0.43616500  1
  O  O23  1  0.55042700  0.98130300  0.43616500  1
  O  O24  1  0.01869700  0.55042700  0.43616500  1
  O  O25  1  0.94957300  0.48130300  0.06383500  1
  O  O26  1  0.48130300  0.05042700  0.06383500  1
  O  O27  1  0.05042700  0.51869700  0.06383500  1
  O  O28  1  0.51869700  0.94957300  0.06383500  1
  O  O29  1  0.94957300  0.51869700  0.93616500  1
  O  O30  1  0.48130300  0.94957300  0.93616500  1
  O  O31  1  0.05042700  0.48130300  0.93616500  1
  O  O32  1  0.51869700  0.05042700  0.93616500  1
  O  O33  1  0.41158500  0.48460000  0.46264200  1
  O  O34  1  0.48460000  0.58841500  0.46264200  1
  O  O35  1  0.58841500  0.51540000  0.46264200  1
  O  O36  1  0.51540000  0.41158500  0.46264200  1
  O  O37  1  0.41158500  0.51540000  0.53735800  1
  O  O38  1  0.48460000  0.41158500  0.53735800  1
  O  O39  1  0.58841500  0.48460000  0.53735800  1
  O  O40  1  0.51540000  0.58841500  0.53735800  1
  O  O41  1  0.91158500  0.98460000  0.96264200  1
  O  O42  1  0.98460000  0.08841500  0.96264200  1
  O  O43  1  0.08841500  0.01540000  0.96264200  1
  O  O44  1  0.01540000  0.91158500  0.96264200  1
  O  O45  1  0.91158500  0.01540000  0.03735800  1
  O  O46  1  0.98460000  0.91158500  0.03735800  1
  O  O47  1  0.08841500  0.98460000  0.03735800  1
  O  O48  1  0.01540000  0.08841500  0.03735800  1
