# generated using pymatgen
data_ZnH12C28I2(NO3)2
_symmetry_space_group_name_H-M   'P 1'
_cell_length_a   11.04388400
_cell_length_b   9.87946700
_cell_length_c   23.44597100
_cell_angle_alpha   90.00000000
_cell_angle_beta   90.00916500
_cell_angle_gamma   90.00000000
_symmetry_Int_Tables_number   1
_chemical_formula_structural   ZnH12C28I2(NO3)2
_chemical_formula_sum   'Zn2 H24 C56 I4 N4 O12'
_cell_volume   2558.13564497
_cell_formula_units_Z   2
loop_
 _symmetry_equiv_pos_site_id
 _symmetry_equiv_pos_as_xyz
  1  'x, y, z'
loop_
 _atom_site_type_symbol
 _atom_site_label
 _atom_site_symmetry_multiplicity
 _atom_site_fract_x
 _atom_site_fract_y
 _atom_site_fract_z
 _atom_site_occupancy
  Zn  Zn1  1  0.49583500  0.65382700  0.50019100  1
  Zn  Zn2  1  0.50417700  0.34610900  0.49983900  1
  H  H1  1  0.23620900  0.65965100  0.94627800  1
  H  H2  1  0.76380400  0.34028300  0.05375200  1
  H  H3  1  0.23272200  0.66055800  0.04924600  1
  H  H4  1  0.76729200  0.33937800  0.95078400  1
  H  H5  1  0.49985100  0.28590100  0.21466100  1
  H  H6  1  0.50015500  0.71403600  0.78536800  1
  H  H7  1  0.49984700  0.28578400  0.31831900  1
  H  H8  1  0.50015500  0.71415100  0.68171000  1
  H  H9  1  0.48418200  0.71900000  0.31779600  1
  H  H10  1  0.51583600  0.28093700  0.68223400  1
  H  H11  1  0.48592900  0.71745500  0.21409100  1
  H  H12  1  0.51409100  0.28248200  0.78593900  1
  H  H13  1  0.08106200  0.04291400  0.46025800  1
  H  H14  1  0.91895100  0.95702200  0.53977100  1
  H  H15  1  0.89076500  0.09204500  0.41056300  1
  H  H16  1  0.10924800  0.90789100  0.58946600  1
  H  H17  1  0.20081200  0.68745900  0.58081600  1
  H  H18  1  0.79920100  0.31247700  0.41921400  1
  H  H19  1  0.81487000  0.78305700  0.48893400  1
  H  H20  1  0.18514300  0.21687900  0.51109600  1
  H  H21  1  0.34433800  0.24542800  0.42445900  1
  H  H22  1  0.65567500  0.75450800  0.57557000  1
  H  H23  1  0.66940700  0.24074700  0.57158300  1
  H  H24  1  0.33060500  0.75918900  0.42844700  1
  C  C1  1  0.26126200  0.49431400  0.50605300  1
  C  C2  1  0.73875000  0.50562200  0.49397700  1
  C  C3  1  0.49355400  0.50282700  0.38828400  1
  C  C4  1  0.50645800  0.49710900  0.61174600  1
  C  C5  1  0.59744000  0.44261300  0.88279000  1
  C  C6  1  0.40257500  0.55732600  0.11724000  1
  C  C7  1  0.41057800  0.55528200  0.88122000  1
  C  C8  1  0.58943500  0.44465300  0.11881000  1
  C  C9  1  0.40737500  0.55676300  0.94020600  1
  C  C10  1  0.59263800  0.44317200  0.05982500  1
  C  C11  1  0.50101000  0.49971500  0.97058300  1
  C  C12  1  0.49900400  0.50022200  0.02944700  1
  C  C13  1  0.59664700  0.44214300  0.94180400  1
  C  C14  1  0.40336700  0.55779500  0.05822600  1
  C  C15  1  0.31100800  0.61427000  0.96901500  1
  C  C16  1  0.68900500  0.38566400  0.03101500  1
  C  C17  1  0.30901600  0.61479400  0.02779500  1
  C  C18  1  0.69099800  0.38514300  0.97223500  1
  C  C19  1  0.49709300  0.38123000  0.23726800  1
  C  C20  1  0.50291500  0.61870600  0.76276200  1
  C  C21  1  0.49645800  0.38148900  0.29607400  1
  C  C22  1  0.50354900  0.61844700  0.70395600  1
  C  C23  1  0.49195000  0.50245700  0.32570600  1
  C  C24  1  0.50806100  0.49747900  0.67432400  1
  C  C25  1  0.48737400  0.62299900  0.29576900  1
  C  C26  1  0.51264100  0.37693700  0.70426100  1
  C  C27  1  0.48780100  0.62243200  0.23694500  1
  C  C28  1  0.51221600  0.37750400  0.76308500  1
  C  C29  1  0.49304400  0.50162300  0.20743300  1
  C  C30  1  0.50697000  0.49831300  0.79259700  1
  C  C31  1  0.11695300  0.70536400  0.55841800  1
  C  C32  1  0.88306000  0.29457200  0.44161200  1
  C  C33  1  0.89480700  0.75350700  0.51176800  1
  C  C34  1  0.10520600  0.24642900  0.48826200  1
  C  C35  1  0.06384100  0.82966300  0.56534300  1
  C  C36  1  0.93617200  0.17027300  0.43468600  1
  C  C37  1  0.95631000  0.85608400  0.53876100  1
  C  C38  1  0.04370300  0.14385300  0.46126900  1
  C  C39  1  0.94186000  0.62271800  0.50941100  1
  C  C40  1  0.05815200  0.37721800  0.49061900  1
  C  C41  1  0.06224200  0.60561500  0.52534300  1
  C  C42  1  0.93777000  0.39432100  0.47468700  1
  C  C43  1  0.87466800  0.51164500  0.48928600  1
  C  C44  1  0.12534500  0.48829100  0.51074400  1
  C  C45  1  0.35329800  0.13899800  0.42554700  1
  C  C46  1  0.64671500  0.86093700  0.57448200  1
  C  C47  1  0.65565700  0.13476500  0.57198100  1
  C  C48  1  0.34435500  0.86517100  0.42804900  1
  C  C49  1  0.28105300  0.07154700  0.38752000  1
  C  C50  1  0.71895900  0.92838900  0.61251000  1
  C  C51  1  0.72375200  0.06581100  0.61115200  1
  C  C52  1  0.27625900  0.93412600  0.38887800  1
  C  C53  1  0.42428700  0.93030400  0.46483300  1
  C  C54  1  0.57572500  0.06963200  0.53519600  1
  C  C55  1  0.57057100  0.92808600  0.53653000  1
  C  C56  1  0.42944100  0.07184900  0.46350000  1
  I  I1  1  0.84053000  0.17118200  0.66644100  1
  I  I2  1  0.15947800  0.82875500  0.33359100  1
  I  I3  1  0.17078900  0.18027600  0.33044600  1
  I  I4  1  0.82922500  0.81966000  0.66958400  1
  N  N1  1  0.50499400  0.49875300  0.85349000  1
  N  N2  1  0.49502100  0.50118400  0.14654000  1
  N  N3  1  0.49456600  0.85762100  0.50141700  1
  N  N4  1  0.50544700  0.14231500  0.49861300  1
  O  O1  1  0.31578800  0.61314000  0.50293700  1
  O  O2  1  0.68422400  0.38679600  0.49709200  1
  O  O3  1  0.67634100  0.61815000  0.49649500  1
  O  O4  1  0.32367100  0.38178600  0.50353500  1
  O  O5  1  0.49037500  0.61907200  0.41503200  1
  O  O6  1  0.50963700  0.38086400  0.58499700  1
  O  O7  1  0.50063400  0.61315000  0.58491000  1
  O  O8  1  0.49937800  0.38678600  0.41512000  1
  O  O9  1  0.69196100  0.38969600  0.85440900  1
  O  O10  1  0.30805500  0.61024400  0.14562100  1
  O  O11  1  0.31794700  0.60758200  0.85128100  1
  O  O12  1  0.68206600  0.39235100  0.14874900  1
