# Generated by REPEAT Assigner based on pymatgen
data_DB0-m29_o82_o53_f0_pts.sym.58
_audit_creation_date              2022-05-24
_audit_creation_method            REPEAT_Assigner
_cell_length_a                    14.487054
_cell_length_b                    9.390322
_cell_length_c                    23.592174
_cell_angle_alpha                 84.372728
_cell_angle_beta                  89.570833
_cell_angle_gamma                 113.823235
_cell_volume                      2917.916113
_symmetry_space_group_name_H-M    P1
_symmetry_Int_Tables_number       1
loop_
    _symmetry_equiv_pos_site_id
    _symmetry_equiv_pos_as_xyz
    1  x,y,z
loop_
    _atom_site_type_symbol
    _atom_site_label
    _atom_site_fract_x
    _atom_site_fract_y
    _atom_site_fract_z
    _atom_type_partial_charge
    C   C1   0.227464  0.897974  0.936607  0.034731
    C   C2   0.132002  0.854090  0.916291  -0.167649
    C   C3   0.059461  0.886512  0.943587  -0.110846
    C   C4   0.926372  0.053630  0.929117  -0.191631
    C   C5   0.245685  0.960313  0.988329  -0.020504
    C   C6   0.173167  0.996207  0.015152  0.043773
    C   C7   0.082691  0.973437  0.989832  0.117779
    C   C8   0.014118  0.023520  0.014955  -0.084506
    C   C9   0.839670  0.049239  0.903738  0.040290
    C   C10  0.754854  0.025948  0.937671  0.014403
    C   C11  0.930413  0.033941  0.987980  0.128897
    C   C12  0.852988  0.041807  0.020517  0.019446
    C   C13  0.762516  0.024778  0.996199  -0.077960
    C   C14  0.189831  0.050694  0.068239  -0.101612
    C   C15  0.116559  0.078063  0.096130  -0.207194
    C   C16  0.029365  0.063823  0.070088  0.268662
    C   C17  0.957948  0.091887  0.099977  -0.277268
    C   C18  0.868488  0.074311  0.076501  -0.014829
    H   H1   0.113102  0.795306  0.878160  0.156846
    H   H2   0.984205  0.838136  0.928412  0.124548
    H   H3   0.992208  0.079294  0.901611  0.138374
    H   H4   0.256590  0.064546  0.091113  0.124880
    H   H5   0.128673  0.113038  0.138708  0.132560
    H   H6   0.970653  0.124084  0.142898  0.163975
    H   H7   0.816113  0.100586  0.101676  0.107520
    O   O1   0.606873  0.051436  0.017182  -0.543643
    C   C19  0.673003  0.994506  0.032918  0.563218
    O   O2   0.465440  0.682950  0.068457  -0.410031
    O   O3   0.658103  0.907341  0.081844  -0.475938
    O   O4   0.479678  0.828594  0.141695  -0.516253
    C   C20  0.468394  0.695077  0.123429  0.501925
    Fe  Fe1  0.496143  0.988000  0.076447  1.428966
    O   O5   0.366368  0.885572  0.037937  -0.574400
    O   O6   0.402384  0.144479  0.017882  -0.462379
    C   C21  0.342902  0.997639  0.013720  0.595907
    O   O7   0.526882  0.191665  0.108445  -0.599992
    O   O8   0.418903  0.034036  0.181453  -0.509115
    C   C22  0.474732  0.174305  0.156340  0.591897
    O   O9   0.451997  0.761838  0.823539  -0.565114
    O   O10  0.540217  0.903998  0.742161  -0.498603
    C   C23  0.488856  0.768225  0.771791  0.624677
    O   O11  0.635200  0.081730  0.877656  -0.601143
    O   O12  0.582704  0.845709  0.930767  -0.461115
    C   C24  0.654910  0.983172  0.913834  0.673117
    O   O13  0.292975  0.874557  0.845818  -0.538121
    O   O14  0.497841  0.122086  0.784117  -0.471379
    C   C25  0.482072  0.237848  0.803061  0.544664
    O   O15  0.400187  0.927214  0.917554  -0.445346
    C   C26  0.308363  0.891320  0.899972  0.562868
    O   O16  0.470555  0.238670  0.858233  -0.493334
    Fe  Fe2  0.495149  0.974369  0.850666  1.370651
    C   C27  0.541762  0.429183  0.347857  0.434168
    N   N1   0.469904  0.457222  0.318704  -0.136860
    C   C28  0.400361  0.491218  0.345944  0.406356
    C   C29  0.401474  0.496837  0.404351  -0.070003
    C   C30  0.473790  0.466903  0.434602  0.078936
    C   C31  0.544446  0.432974  0.406259  -0.097759
    C   C32  0.330300  0.530686  0.432795  -0.066690
    C   C33  0.332064  0.534861  0.491043  -0.063000
    C   C34  0.404936  0.505046  0.521260  -0.094759
    C   C35  0.475466  0.470824  0.492909  0.096739
    C   C36  0.547666  0.440543  0.523154  -0.092117
    C   C37  0.618966  0.407014  0.494709  -0.056620
    C   C38  0.617412  0.403380  0.436451  -0.059899
    C   C39  0.407650  0.508742  0.579688  0.427456
    N   N2   0.478976  0.479272  0.608847  -0.131524
    C   C40  0.548468  0.445256  0.581585  0.414402
    O   O17  0.612551  0.401024  0.319714  -0.469102
    O   O18  0.328010  0.515106  0.316389  -0.468182
    H   H8   0.272631  0.554409  0.410115  0.134385
    H   H9   0.275745  0.561862  0.512306  0.132173
    O   O19  0.337445  0.538173  0.607863  -0.467586
    O   O20  0.620468  0.420400  0.611173  -0.454321
    H   H10  0.676580  0.383141  0.517389  0.130000
    H   H11  0.673824  0.376590  0.415188  0.129276
    C   C41  0.481358  0.361885  0.705486  -0.229080
    H   H12  0.479855  0.258409  0.688365  0.183897
    C   C42  0.479819  0.367565  0.763818  0.055727
    C   C43  0.477008  0.497686  0.785399  -0.168149
    C   C44  0.480775  0.624468  0.748969  0.103358
    C   C45  0.483573  0.618956  0.690842  -0.255548
    H   H13  0.487602  0.718788  0.662251  0.169158
    C   C46  0.481375  0.486556  0.668979  0.252672
    C   C47  0.466528  0.571860  0.221648  -0.271432
    H   H14  0.466935  0.675142  0.238407  0.208379
    C   C48  0.468386  0.564957  0.163332  0.157085
    C   C49  0.473878  0.436116  0.142364  -0.280573
    C   C50  0.472853  0.312042  0.179208  0.190946
    C   C51  0.467379  0.316759  0.237219  -0.307988
    H   H15  0.465221  0.218199  0.265887  0.177500
    C   C52  0.467102  0.448293  0.258647  0.278140
    H   H16  0.476994  0.504225  0.830859  0.165112
    H   H17  0.476811  0.429901  0.096943  0.202922
    C   C53  0.839547  0.059142  0.839951  -0.166432
    C   C54  0.837824  0.909514  0.819315  0.395391
    C   C55  0.740422  0.770993  0.840258  -0.266851
    C   C56  0.845931  0.927904  0.754604  -0.415862
    H   H18  0.909449  0.159226  0.822318  0.062496
    H   H19  0.775471  0.081537  0.822808  0.071399
    H   H20  0.902866  0.887027  0.835447  -0.043862
    H   H21  0.674465  0.795179  0.826922  0.032991
    H   H22  0.737258  0.747931  0.887381  0.035044
    H   H23  0.737371  0.665103  0.821810  0.074899
    H   H24  0.780593  0.947802  0.737368  0.105360
    H   H25  0.846870  0.820414  0.739390  0.093024
    H   H26  0.916945  0.028841  0.739048  0.080138
