# Generated by REPEAT Assigner based on pymatgen
data_DB0-m9_o7_o23_f0_sra.sym.8_sqe
_audit_creation_date              2022-05-24
_audit_creation_method            REPEAT_Assigner
_cell_length_a                    25.325179
_cell_length_b                    6.752501
_cell_length_c                    21.327171
_cell_angle_alpha                 90.000000
_cell_angle_beta                  96.007881
_cell_angle_gamma                 90.000000
_cell_volume                      3627.091114
_symmetry_space_group_name_H-M    P1
_symmetry_Int_Tables_number       1
loop_
    _symmetry_equiv_pos_site_id
    _symmetry_equiv_pos_as_xyz
    1  x,y,z
loop_
    _atom_site_type_symbol
    _atom_site_label
    _atom_site_fract_x
    _atom_site_fract_y
    _atom_site_fract_z
    _atom_type_partial_charge
    O   O1   0.554660  0.509324  0.450005  -0.512334
    O   O2   0.445340  0.009324  0.549996  -0.512217
    O   O3   0.442015  0.167110  0.432180  -0.523274
    O   O4   0.557984  0.667110  0.567820  -0.523234
    C   C1   0.420889  0.341924  0.421203  0.661060
    C   C2   0.579111  0.841924  0.578797  0.661091
    O   O5   0.550721  0.166966  0.437086  -0.535123
    O   O6   0.449279  0.666966  0.562914  -0.535094
    O   O7   0.560360  0.009068  0.555153  -0.521465
    O   O8   0.439640  0.509068  0.444847  -0.521559
    C   C3   0.570604  0.341785  0.428096  0.563161
    C   C4   0.429396  0.841785  0.571904  0.563215
    O   O9   0.502548  0.335077  0.539110  -0.514536
    O   O10  0.497452  0.835077  0.460891  -0.514610
    V   V1   0.499506  0.060273  0.492151  1.428591
    V   V2   0.500494  0.560273  0.507849  1.428738
    C   C5   0.167938  0.092492  0.816679  -0.217951
    C   C6   0.832062  0.592492  0.183321  -0.218056
    H   H1   0.181508  0.222448  0.793479  0.141426
    H   H2   0.818492  0.722448  0.206521  0.141480
    C   C7   0.128211  0.108582  0.855787  -0.148527
    C   C8   0.871789  0.608582  0.144213  -0.148433
    H   H3   0.110581  0.251227  0.863386  0.162371
    H   H4   0.889419  0.751227  0.136615  0.162344
    C   C9   0.111160  0.942807  0.885508  0.017652
    C   C10  0.888840  0.442807  0.114492  0.017467
    C   C11  0.133617  0.760701  0.876058  -0.058138
    C   C12  0.866383  0.260701  0.123942  -0.058012
    H   H5   0.120227  0.630954  0.899523  0.089190
    H   H6   0.879773  0.130954  0.100477  0.089170
    C   C13  0.173383  0.744600  0.836916  -0.244546
    C   C14  0.826617  0.244600  0.163084  -0.244642
    H   H7   0.191216  0.602155  0.829563  0.143554
    H   H8   0.808784  0.102155  0.170437  0.143543
    C   C15  0.190544  0.910661  0.807380  0.327849
    C   C16  0.809456  0.410661  0.192620  0.328094
    C   C17  0.232178  0.895111  0.767142  -0.174804
    C   C18  0.767822  0.395111  0.232858  -0.175111
    C   C19  0.267178  0.884061  0.733282  -0.188692
    C   C20  0.732822  0.384061  0.266718  -0.188426
    C   C21  0.326725  0.043539  0.666611  -0.247915
    C   C22  0.673275  0.543539  0.333389  -0.247799
    H   H9   0.309554  0.185050  0.676743  0.152824
    H   H10  0.690446  0.685051  0.323258  0.152797
    C   C23  0.366419  0.033327  0.627261  -0.087968
    C   C24  0.633581  0.533327  0.372739  -0.088093
    H   H11  0.380421  0.166772  0.606405  0.112400
    H   H12  0.619579  0.666772  0.393595  0.112452
    C   C25  0.388066  0.852595  0.614252  0.023964
    C   C26  0.611934  0.352595  0.385748  0.024087
    C   C27  0.370239  0.682054  0.640648  -0.147790
    C   C28  0.629761  0.182054  0.359352  -0.147861
    H   H13  0.387237  0.540448  0.630270  0.151165
    H   H14  0.612763  0.040449  0.369730  0.151173
    C   C29  0.330523  0.692270  0.680014  -0.206987
    C   C30  0.669477  0.192270  0.319986  -0.206872
    H   H15  0.316336  0.558734  0.700631  0.131913
    H   H16  0.683664  0.058734  0.299369  0.131883
    C   C31  0.308763  0.873009  0.692843  0.334430
    C   C32  0.691237  0.373009  0.307157  0.334219
    C   C33  0.755836  0.740679  0.807749  0.018242
    C   C34  0.244164  0.240679  0.192251  0.018710
    C   C35  0.758570  0.100542  0.788666  0.063507
    C   C36  0.241430  0.600542  0.211334  0.063852
    C   C37  0.706273  0.068834  0.748490  -0.147527
    C   C38  0.293727  0.568834  0.251510  -0.148041
    H   H17  0.674040  0.684563  0.773486  0.009996
    H   H18  0.325960  0.184564  0.226514  0.010073
    H   H19  0.737535  0.779503  0.851144  -0.016123
    H   H20  0.262465  0.279503  0.148856  -0.016177
    H   H21  0.750813  0.142307  0.837150  0.059366
    H   H22  0.249187  0.642307  0.162850  0.059318
    H   H23  0.673826  0.053468  0.779270  0.089771
    H   H24  0.326174  0.553468  0.220730  0.089928
    C   C39  0.624636  0.853627  0.625068  -0.124987
    C   C40  0.375364  0.353627  0.374932  -0.124873
    C   C41  0.790497  0.910651  0.790327  0.464763
    C   C42  0.209503  0.410651  0.209673  0.464409
    C   C43  0.712658  0.704828  0.754144  -0.191329
    C   C44  0.287342  0.204828  0.245856  -0.191792
    C   C45  0.709744  0.881438  0.710147  0.666696
    C   C46  0.290255  0.381438  0.289853  0.666526
    C   C47  0.759708  0.888404  0.676901  -0.202674
    C   C48  0.240292  0.388403  0.323099  -0.202910
    C   C49  0.807685  0.872762  0.725492  -0.123034
    C   C50  0.192315  0.372762  0.274508  -0.121895
    C   C51  0.662992  0.865274  0.663599  -0.311853
    C   C52  0.337008  0.365274  0.336401  -0.311739
    C   C53  0.837266  0.928138  0.836796  -0.348096
    C   C54  0.162734  0.428138  0.163204  -0.348200
    C   C55  0.875671  0.943520  0.875104  -0.116471
    C   C56  0.124329  0.443520  0.124896  -0.116447
    H   H25  0.824886  0.721971  0.724193  0.076456
    H   H26  0.175114  0.221971  0.275807  0.076144
    H   H27  0.837800  0.983787  0.714973  0.046655
    H   H28  0.162200  0.483787  0.285027  0.046344
    H   H29  0.759860  0.763463  0.643171  0.047867
    H   H30  0.240140  0.263463  0.356829  0.047903
    H   H31  0.780154  0.604804  0.816099  -0.015972
    H   H32  0.219846  0.104803  0.183901  -0.016114
    H   H33  0.722194  0.570291  0.727713  0.121781
    H   H34  0.277806  0.070291  0.272287  0.122005
    H   H35  0.761033  0.030661  0.651128  0.041549
    H   H36  0.238967  0.530661  0.348872  0.041592
    O   O11  0.060370  0.294460  0.052218  -0.544168
    O   O12  0.939630  0.794460  0.947782  -0.544209
    O   O13  0.950150  0.642679  0.068023  -0.506229
    O   O14  0.049850  0.142679  0.931977  -0.506240
    C   C57  0.930197  0.461378  0.072422  0.531616
    C   C58  0.069803  0.961378  0.927578  0.531512
    O   O15  0.057981  0.644233  0.072763  -0.541344
    O   O16  0.942019  0.144233  0.927237  -0.541370
    O   O17  0.054669  0.792668  0.952784  -0.507779
    O   O18  0.945331  0.292668  0.047216  -0.507802
    C   C59  0.078696  0.462896  0.079078  0.691316
    C   C60  0.921303  0.962896  0.920922  0.691367
    O   O19  0.997754  0.477095  0.961732  -0.457226
    O   O20  0.002246  0.977095  0.038268  -0.457229
    V   V3   0.000677  0.745236  0.011296  1.376642
    V   V4   0.999323  0.245236  0.988704  1.376665
    Cl  Cl1  0.794775  0.292693  0.755476  -0.119186
    Cl  Cl2  0.205225  0.792693  0.244524  -0.119120
    Cl  Cl3  0.693162  0.274437  0.697130  -0.143818
    Cl  Cl4  0.306837  0.774437  0.302870  -0.143835
