# Generated by REPEAT Assigner based on pymatgen
data_DB0-m9_o5_o13_f0_sra
_audit_creation_date              2022-05-24
_audit_creation_method            REPEAT_Assigner
_cell_length_a                    6.806410
_cell_length_b                    9.686973
_cell_length_c                    12.854510
_cell_angle_alpha                 96.145220
_cell_angle_beta                  98.158466
_cell_angle_gamma                 109.551321
_cell_volume                      779.667083
_symmetry_space_group_name_H-M    P1
_symmetry_Int_Tables_number       1
loop_
    _symmetry_equiv_pos_site_id
    _symmetry_equiv_pos_as_xyz
    1  x,y,z
loop_
    _atom_site_type_symbol
    _atom_site_label
    _atom_site_fract_x
    _atom_site_fract_y
    _atom_site_fract_z
    _atom_type_partial_charge
    O  O1   0.410498  0.798415  0.001235  -0.518426
    O  O2   0.792628  0.983659  0.845456  -0.568878
    O  O3   0.103599  0.200310  0.993984  -0.536899
    C  C1   0.611300  0.989506  0.798688  0.586538
    O  O4   0.737649  0.786298  0.992915  -0.562573
    O  O5   0.048000  0.999658  0.144285  -0.541176
    C  C2   0.535787  0.721419  0.996642  0.689629
    O  O6   0.468035  0.000361  0.854109  -0.511443
    O  O7   0.721903  0.067891  0.047074  -0.549611
    V  V1   0.943187  0.986620  0.990110  1.540327
    O  O8   0.389780  0.009945  0.149744  -0.549630
    C  C3   0.231707  0.006652  0.198077  0.596913
    O  O9   0.446274  0.210092  0.004922  -0.548449
    C  C4   0.306637  0.276141  0.999829  0.693343
    V  V2   0.459549  0.010881  0.006726  1.494986
    O  O10  0.129832  0.929543  0.949827  -0.556392
    C  C5   0.450423  0.564611  0.997424  -0.125316
    C  C6   0.380219  0.433011  0.998572  -0.129057
    C  C7   0.265067  0.006682  0.312663  0.049740
    C  C8   0.567534  0.986013  0.683860  0.048812
    C  C9   0.660295  0.956067  0.512946  -0.238504
    C  C10  0.703723  0.959040  0.621425  -0.143409
    C  C11  0.388342  0.010078  0.637783  -0.269027
    C  C12  0.346554  0.008894  0.529444  0.210111
    C  C13  0.483127  0.982359  0.467373  0.218774
    C  C14  0.443265  0.982645  0.359489  -0.264388
    C  C15  0.126237  0.031614  0.374291  -0.164668
    C  C16  0.168774  0.034399  0.483099  -0.222195
    H  H1   0.551686  0.962965  0.311008  0.156148
    H  H2   0.987045  0.051547  0.338020  0.138720
    H  H3   0.764477  0.932861  0.463200  0.143328
    H  H4   0.063852  0.057378  0.532456  0.142913
    H  H5   0.843348  0.939286  0.657289  0.135282
    H  H6   0.281570  0.031072  0.686833  0.154478
