# generated using pymatgen
data_ZnH28C34N7O8
_symmetry_space_group_name_H-M   'P 1'
_cell_length_a   19.36112800
_cell_length_b   18.25732800
_cell_length_c   19.32487900
_cell_angle_alpha   90.00000000
_cell_angle_beta   90.01200600
_cell_angle_gamma   90.00000000
_symmetry_Int_Tables_number   1
_chemical_formula_structural   ZnH28C34N7O8
_chemical_formula_sum   'Zn2 H56 C68 N14 O16'
_cell_volume   6831.00570214
_cell_formula_units_Z   2
loop_
 _symmetry_equiv_pos_site_id
 _symmetry_equiv_pos_as_xyz
  1  'x, y, z'
loop_
 _atom_site_type_symbol
 _atom_site_label
 _atom_site_symmetry_multiplicity
 _atom_site_fract_x
 _atom_site_fract_y
 _atom_site_fract_z
 _atom_site_occupancy
  Zn  Zn1  1  0.50000000  0.58387200  0.50000000  1
  Zn  Zn2  1  0.50000000  0.41728300  0.50000000  1
  H  H1  1  0.49740700  0.61788100  0.27964200  1
  H  H2  1  0.50008300  0.38344200  0.72052200  1
  H  H3  1  0.50259400  0.61788100  0.72035800  1
  H  H4  1  0.49991700  0.38344200  0.27947900  1
  H  H5  1  0.49721100  0.61807700  0.15470900  1
  H  H6  1  0.50003500  0.38343300  0.84543400  1
  H  H7  1  0.50278900  0.61807700  0.84529100  1
  H  H8  1  0.49996400  0.38343300  0.15456700  1
  H  H9  1  0.84525000  0.46546800  0.39509000  1
  H  H10  1  0.15503700  0.53460900  0.39445000  1
  H  H11  1  0.15474900  0.46546900  0.60491000  1
  H  H12  1  0.84496300  0.53461000  0.60555000  1
  H  H13  1  0.56348300  0.69990400  0.58807200  1
  H  H14  1  0.43309200  0.30130400  0.41439800  1
  H  H15  1  0.43651700  0.69990300  0.41192800  1
  H  H16  1  0.56690800  0.30130400  0.58560200  1
  H  H17  1  0.56424200  0.83345800  0.59003200  1
  H  H18  1  0.43288200  0.16783000  0.41204100  1
  H  H19  1  0.43575700  0.83345800  0.40996900  1
  H  H20  1  0.56711800  0.16783000  0.58796000  1
  H  H21  1  0.39261500  0.93415800  0.47432600  1
  H  H22  1  0.60753100  0.06666800  0.52537600  1
  H  H23  1  0.60738500  0.93415800  0.52567400  1
  H  H24  1  0.39246900  0.06666700  0.47462400  1
  H  H25  1  0.72715600  0.48122700  0.33586500  1
  H  H26  1  0.64038400  0.37573800  0.28422500  1
  H  H27  1  0.67941000  0.29130000  0.31395300  1
  H  H28  1  0.73217700  0.36065700  0.27299100  1
  H  H29  1  0.27378300  0.51385300  0.33613900  1
  H  H30  1  0.36648200  0.67361400  0.30599000  1
  H  H31  1  0.27533600  0.68157200  0.28715100  1
  H  H32  1  0.32187400  0.59910700  0.26413300  1
  H  H33  1  0.27284400  0.48122900  0.66413500  1
  H  H34  1  0.35961600  0.37574000  0.71577700  1
  H  H35  1  0.32059000  0.29130200  0.68605000  1
  H  H36  1  0.26782300  0.36065900  0.72701000  1
  H  H37  1  0.72621700  0.51385400  0.66386100  1
  H  H38  1  0.63351800  0.67361600  0.69400900  1
  H  H39  1  0.72466500  0.68157400  0.71284800  1
  H  H40  1  0.67812700  0.59910900  0.73586700  1
  H  H41  1  0.88435600  0.63809700  0.47238400  1
  H  H42  1  0.84220200  0.73622800  0.53177700  1
  H  H43  1  0.90102400  0.77587200  0.59391800  1
  H  H44  1  0.83924500  0.70754800  0.62130600  1
  H  H45  1  0.11554600  0.36291200  0.47177700  1
  H  H46  1  0.15802200  0.26472300  0.53083900  1
  H  H47  1  0.09951100  0.22489600  0.59314300  1
  H  H48  1  0.16133500  0.29324800  0.62039800  1
  H  H49  1  0.11564400  0.63809700  0.52761500  1
  H  H50  1  0.15779800  0.73622800  0.46822100  1
  H  H51  1  0.09897600  0.77587100  0.40607900  1
  H  H52  1  0.16075500  0.70754600  0.37869200  1
  H  H53  1  0.88445400  0.36291300  0.52822400  1
  H  H54  1  0.84197800  0.26472300  0.46916400  1
  H  H55  1  0.90048900  0.22489500  0.40686000  1
  H  H56  1  0.83866500  0.29324700  0.37960400  1
  C  C1  1  0.36502800  0.50054200  0.50015600  1
  C  C2  1  0.63497200  0.50054200  0.49984400  1
  C  C3  1  0.49961200  0.50059100  0.36455200  1
  C  C4  1  0.50038800  0.50059100  0.63544800  1
  C  C5  1  0.49799600  0.56601900  0.25271900  1
  C  C6  1  0.50069200  0.43534800  0.74737600  1
  C  C7  1  0.50200400  0.56601900  0.74728200  1
  C  C8  1  0.49930800  0.43534800  0.25262400  1
  C  C9  1  0.49786500  0.56609300  0.18139300  1
  C  C10  1  0.50067300  0.43538400  0.81869300  1
  C  C11  1  0.50213500  0.56609300  0.81860700  1
  C  C12  1  0.49932600  0.43538400  0.18130700  1
  C  C13  1  0.49875500  0.50076600  0.14518700  1
  C  C14  1  0.50124500  0.50076600  0.85481300  1
  C  C15  1  0.49896800  0.50065000  0.28874200  1
  C  C16  1  0.50103200  0.50065000  0.71125800  1
  C  C17  1  0.50070200  0.50079700  0.93076000  1
  C  C18  1  0.49929800  0.50079700  0.06924000  1
  C  C19  1  0.74614200  0.47867700  0.44165700  1
  C  C20  1  0.25406100  0.52158400  0.44138200  1
  C  C21  1  0.25385800  0.47867700  0.55834300  1
  C  C22  1  0.74593900  0.52158400  0.55861800  1
  C  C23  1  0.81728400  0.48050100  0.44134900  1
  C  C24  1  0.18288100  0.52005000  0.44093200  1
  C  C25  1  0.18271600  0.48050200  0.55865200  1
  C  C26  1  0.81711900  0.52005100  0.55906800  1
  C  C27  1  0.85287800  0.50049600  0.50018700  1
  C  C28  1  0.14712200  0.50049600  0.49981200  1
  C  C29  1  0.71032200  0.50044100  0.49997200  1
  C  C30  1  0.28967800  0.50044100  0.50002800  1
  C  C31  1  0.96425800  0.56612600  0.50139000  1
  C  C32  1  0.03575200  0.43481600  0.50118500  1
  C  C33  1  0.03574100  0.56612600  0.49861000  1
  C  C34  1  0.96424800  0.43481600  0.49881500  1
  C  C35  1  0.07155200  0.50047600  0.49978000  1
  C  C36  1  0.92844800  0.50047600  0.50022000  1
  C  C37  1  0.53553700  0.72988400  0.54890300  1
  C  C38  1  0.46265800  0.27130200  0.45244300  1
  C  C39  1  0.46446200  0.72988400  0.45109700  1
  C  C40  1  0.53734100  0.27130200  0.54755700  1
  C  C41  1  0.53631300  0.80536500  0.54954600  1
  C  C42  1  0.46207500  0.19581300  0.45167900  1
  C  C43  1  0.46368700  0.80536500  0.45045500  1
  C  C44  1  0.53792400  0.19581300  0.54832100  1
  C  C45  1  0.50000000  0.84396600  0.50000000  1
  C  C46  1  0.50000000  0.15715200  0.50000000  1
  C  C47  1  0.44036400  0.96273800  0.48473500  1
  C  C48  1  0.55967600  0.03823000  0.51515200  1
  C  C49  1  0.55963600  0.96273800  0.51526500  1
  C  C50  1  0.44032400  0.03823000  0.48484900  1
  C  C51  1  0.50000000  0.07660800  0.50000000  1
  C  C52  1  0.50000000  0.92442800  0.50000000  1
  C  C53  1  0.70050600  0.38496600  0.37623600  1
  C  C54  1  0.68727700  0.35106300  0.30744900  1
  C  C55  1  0.30018400  0.61241000  0.37254400  1
  C  C56  1  0.31692300  0.64337600  0.30309900  1
  C  C57  1  0.29949300  0.38496700  0.62376500  1
  C  C58  1  0.31272200  0.35106500  0.69255300  1
  C  C59  1  0.69981600  0.61241100  0.62745600  1
  C  C60  1  0.68307700  0.64337700  0.69690000  1
  C  C61  1  0.92534400  0.66627800  0.56476300  1
  C  C62  1  0.87365800  0.72506400  0.57854200  1
  C  C63  1  0.07494100  0.33451200  0.56425300  1
  C  C64  1  0.12675200  0.27576700  0.57774200  1
  C  C65  1  0.07465600  0.66627700  0.43523500  1
  C  C66  1  0.12634200  0.72506300  0.42145500  1
  C  C67  1  0.92505900  0.33451200  0.43574900  1
  C  C68  1  0.87324700  0.27576600  0.42226000  1
  N  N1  1  0.49966900  0.43713700  0.03419500  1
  N  N2  1  0.50034300  0.56446300  0.96580300  1
  N  N3  1  0.50033100  0.43713700  0.96580600  1
  N  N4  1  0.49965700  0.56446300  0.03419800  1
  N  N5  1  0.50000000  0.69341100  0.50000000  1
  N  N6  1  0.50000000  0.30775200  0.50000000  1
  N  N7  1  0.71030800  0.45788200  0.38128600  1
  N  N8  1  0.29020500  0.53977200  0.38045300  1
  N  N9  1  0.28969200  0.45788300  0.61871500  1
  N  N10  1  0.70979500  0.53977300  0.61954600  1
  N  N11  1  0.92817100  0.63346000  0.50218400  1
  N  N12  1  0.07185500  0.36748100  0.50175200  1
  N  N13  1  0.07182900  0.63346000  0.49781500  1
  N  N14  1  0.92814500  0.36748100  0.49824900  1
  O  O1  1  0.39710500  0.56378900  0.49999700  1
  O  O2  1  0.60287500  0.43735600  0.49970400  1
  O  O3  1  0.60289500  0.56378900  0.50000300  1
  O  O4  1  0.39712400  0.43735600  0.50029600  1
  O  O5  1  0.49991600  0.56374100  0.39691700  1
  O  O6  1  0.50031700  0.43741800  0.60308900  1
  O  O7  1  0.50008300  0.56374100  0.60308300  1
  O  O8  1  0.49968300  0.43741800  0.39691100  1
  O  O9  1  0.70305800  0.34650500  0.42775000  1
  O  O10  1  0.29521600  0.65323400  0.42222100  1
  O  O11  1  0.29694200  0.34650600  0.57225100  1
  O  O12  1  0.70478400  0.65323500  0.57777900  1
  O  O13  1  0.96427900  0.64713100  0.61094000  1
  O  O14  1  0.03618100  0.35352600  0.61061000  1
  O  O15  1  0.03572100  0.64712900  0.38905800  1
  O  O16  1  0.96381900  0.35352500  0.38939100  1
