# Generated by REPEAT Assigner based on pymatgen
data_DB0-m3_o1_o7_f0_pcu.sym.29
_audit_creation_date              2022-05-24
_audit_creation_method            REPEAT_Assigner
_cell_length_a                    11.138821
_cell_length_b                    9.782788
_cell_length_c                    17.993117
_cell_angle_alpha                 90.000000
_cell_angle_beta                  90.001110
_cell_angle_gamma                 90.000000
_cell_volume                      1960.687068
_symmetry_space_group_name_H-M    P1
_symmetry_Int_Tables_number       1
loop_
    _symmetry_equiv_pos_site_id
    _symmetry_equiv_pos_as_xyz
    1  x,y,z
loop_
    _atom_site_type_symbol
    _atom_site_label
    _atom_site_fract_x
    _atom_site_fract_y
    _atom_site_fract_z
    _atom_type_partial_charge
    O   O1   0.323667  0.617512  0.499616  -0.561230
    O   O2   0.681835  0.384548  0.500232  -0.578805
    O   O3   0.681502  0.617857  0.499248  -0.532111
    O   O4   0.324051  0.384236  0.500312  -0.578401
    C   C1   0.265384  0.500748  0.500632  0.662303
    C   C2   0.739962  0.501323  0.499218  0.627404
    O   O5   0.502429  0.617874  0.388833  -0.635974
    O   O6   0.502892  0.384170  0.610673  -0.620618
    O   O7   0.502641  0.617600  0.610454  -0.631527
    O   O8   0.503016  0.384564  0.389260  -0.607973
    C   C3   0.064482  0.379494  0.496467  -0.073346
    C   C4   0.940490  0.622017  0.506995  -0.007068
    C   C5   0.940165  0.380192  0.491485  -0.005751
    C   C6   0.064597  0.621604  0.507556  0.080956
    C   C7   0.503436  0.500869  0.352867  0.706799
    C   C8   0.501972  0.500777  0.646727  0.709952
    Zn  Zn1  0.502567  0.655438  0.499644  1.009236
    Zn  Zn2  0.502979  0.346617  0.499961  0.969239
    C   C9   0.874775  0.501509  0.498115  -0.115156
    C   C10  0.130245  0.500507  0.502519  -0.124638
    N   N1   0.502491  0.860271  0.499682  0.062253
    N   N2   0.503167  0.141763  0.499843  -0.014211
    C   C11  0.493205  0.620021  0.848275  -0.160268
    C   C12  0.496301  0.376924  0.152056  -0.245607
    C   C13  0.511747  0.619678  0.151247  -0.143068
    C   C14  0.508022  0.377195  0.847579  -0.250876
    C   C15  0.494568  0.621812  0.771203  0.004585
    C   C16  0.500728  0.376501  0.229146  0.061538
    C   C17  0.510541  0.621589  0.228302  -0.023514
    C   C18  0.503730  0.376654  0.770503  0.057569
    C   C19  0.499432  0.499792  0.730341  -0.139476
    C   C20  0.505606  0.499631  0.269243  -0.124557
    C   C21  0.581676  0.071519  0.542080  -0.068041
    C   C22  0.424181  0.930420  0.457422  -0.090993
    C   C23  0.425143  0.072046  0.457012  0.002097
    C   C24  0.581661  0.929875  0.541627  -0.006831
    C   C25  0.501515  0.498300  0.886225  0.303369
    C   C26  0.503121  0.497977  0.113352  0.296060
    C   C27  0.502062  0.497609  0.966244  -0.114295
    C   C28  0.502498  0.497450  0.033332  -0.108146
    H   H1   0.645093  0.125828  0.576606  0.186020
    H   H2   0.360630  0.875734  0.423306  0.121433
    H   H3   0.362780  0.126847  0.422084  0.154382
    H   H4   0.645049  0.874661  0.575507  0.078574
    C   C29  0.479784  0.747958  0.890431  0.664424
    O   O9   0.546026  0.844785  0.878565  -0.460612
    O   O10  0.390941  0.759205  0.944488  -0.531322
    H   H5   0.392135  0.854075  0.966876  0.381257
    C   C30  0.485164  0.247935  0.110613  0.778716
    O   O11  0.552873  0.152752  0.123317  -0.512271
    O   O12  0.396251  0.233391  0.056826  -0.553768
    H   H6   0.398635  0.137882  0.035294  0.382532
    C   C31  0.525342  0.747503  0.109020  0.656231
    O   O13  0.458901  0.844266  0.120608  -0.459258
    O   O14  0.614514  0.758667  0.055165  -0.534456
    H   H7   0.613347  0.853436  0.032650  0.384032
    C   C32  0.518589  0.248227  0.889095  0.783070
    O   O15  0.450280  0.153521  0.876563  -0.511259
    O   O16  0.607646  0.233148  0.942748  -0.553302
    H   H8   0.604804  0.137714  0.964357  0.380708
    C   C33  0.486705  0.755380  0.735291  0.734139
    O   O17  0.389186  0.802847  0.718517  -0.515757
    O   O18  0.590856  0.830141  0.722743  -0.580525
    H   H9   0.569917  0.921467  0.700158  0.419061
    C   C34  0.495962  0.243221  0.265902  0.595630
    O   O19  0.402936  0.177591  0.265804  -0.488721
    O   O20  0.599277  0.189086  0.298019  -0.467680
    H   H10  0.581952  0.096299  0.320282  0.346013
    C   C35  0.518258  0.755310  0.264052  0.766409
    O   O21  0.615679  0.802756  0.281064  -0.531582
    O   O22  0.414049  0.830221  0.276154  -0.594864
    H   H11  0.434820  0.921687  0.298619  0.432511
    C   C36  0.507839  0.243162  0.733889  0.645261
    O   O23  0.600432  0.176748  0.734283  -0.519941
    O   O24  0.404472  0.189913  0.701370  -0.502646
    H   H12  0.421433  0.096990  0.679151  0.371850
    C   C37  0.123016  0.246010  0.493517  0.709076
    O   O25  0.129468  0.184283  0.434801  -0.531984
    O   O26  0.169982  0.189332  0.558304  -0.496668
    H   H13  0.208105  0.097695  0.547689  0.340133
    C   C38  0.884289  0.755415  0.519632  0.680271
    O   O27  0.839774  0.818197  0.467944  -0.498470
    O   O28  0.892319  0.816052  0.589456  -0.627219
    H   H14  0.856355  0.910887  0.588324  0.502542
    C   C39  0.881816  0.247856  0.478420  0.787201
    O   O29  0.884174  0.159431  0.526154  -0.634275
    O   O30  0.824595  0.222512  0.411049  -0.587913
    H   H15  0.790080  0.126825  0.410912  0.440586
    C   C40  0.121416  0.756036  0.510919  0.526037
    O   O31  0.171261  0.794174  0.567609  -0.429741
    O   O32  0.114099  0.842395  0.449736  -0.535404
    H   H16  0.156842  0.930904  0.460696  0.420662
