# generated using pymatgen
data_FeH8(C5O2)4
_symmetry_space_group_name_H-M   'P 1'
_cell_length_a   13.34957400
_cell_length_b   12.42935600
_cell_length_c   13.27348900
_cell_angle_alpha   80.79200100
_cell_angle_beta   84.94804500
_cell_angle_gamma   109.98860000
_symmetry_Int_Tables_number   1
_chemical_formula_structural   FeH8(C5O2)4
_chemical_formula_sum   'Fe2 H16 C40 O16'
_cell_volume   2018.74326856
_cell_formula_units_Z   2
loop_
 _symmetry_equiv_pos_site_id
 _symmetry_equiv_pos_as_xyz
  1  'x, y, z'
loop_
 _atom_site_type_symbol
 _atom_site_label
 _atom_site_symmetry_multiplicity
 _atom_site_fract_x
 _atom_site_fract_y
 _atom_site_fract_z
 _atom_site_occupancy
  Fe  Fe1  1  0.51543400  0.01363400  0.23378600  1
  Fe  Fe2  1  0.51635900  0.02781600  0.77408400  1
  H  H1  1  0.17348500  0.93287000  0.23455400  1
  H  H2  1  0.99582500  0.90225800  0.19501700  1
  H  H3  1  0.12279400  0.00047400  0.87253700  1
  H  H4  1  0.95852700  0.91247200  0.85397400  1
  H  H5  1  0.79627600  0.93307000  0.80711700  1
  H  H6  1  0.88643500  0.99016400  0.14908700  1
  H  H7  1  0.41756500  0.85258900  0.54276000  1
  H  H8  1  0.50391000  0.61103400  0.73843300  1
  H  H9  1  0.53814800  0.16363400  0.46746100  1
  H  H10  1  0.46622500  0.42350600  0.27475200  1
  H  H11  1  0.45097600  0.58252600  0.33575400  1
  H  H12  1  0.70878200  0.49904700  0.61869800  1
  H  H13  1  0.78633000  0.45770300  0.77478200  1
  H  H14  1  0.66978300  0.37752000  0.94359600  1
  H  H15  1  0.47517700  0.33849000  0.95625300  1
  H  H16  1  0.39678400  0.37844600  0.80042600  1
  C  C1  1  0.16281200  0.94473200  0.15430500  1
  C  C2  1  0.06115300  0.93034900  0.13140500  1
  C  C3  1  0.04504100  0.95416400  0.03003600  1
  C  C4  1  0.13183800  0.98070000  0.95239600  1
  C  C5  1  0.23321100  0.98736900  0.97436400  1
  C  C6  1  0.25043200  0.97801400  0.07729700  1
  C  C7  1  0.90943400  0.93505400  0.90969400  1
  C  C8  1  0.81557100  0.94516800  0.88289600  1
  C  C9  1  0.74422700  0.96547800  0.95197900  1
  C  C10  1  0.76779400  0.97600400  0.05089500  1
  C  C11  1  0.86582100  0.97254400  0.07519400  1
  C  C12  1  0.93821300  0.95280200  0.00502500  1
  C  C13  1  0.69279400  0.98994000  0.13202900  1
  C  C14  1  0.45177500  0.79161600  0.37205500  1
  C  C15  1  0.35715300  0.00509800  0.11002700  1
  C  C16  1  0.49651700  0.21790200  0.28407600  1
  C  C17  1  0.47483800  0.80869400  0.72421400  1
  C  C18  1  0.64675600  0.97455000  0.91514800  1
  C  C19  1  0.50268700  0.21987200  0.64009200  1
  C  C20  1  0.31456600  0.99581600  0.88689900  1
  C  C21  1  0.43932700  0.71708700  0.47393300  1
  C  C22  1  0.43111400  0.77096800  0.55569200  1
  C  C23  1  0.45488900  0.73201100  0.64956200  1
  C  C24  1  0.48094200  0.63371200  0.66466500  1
  C  C25  1  0.47763800  0.56888900  0.58767400  1
  C  C26  1  0.45765200  0.61138900  0.49088300  1
  C  C27  1  0.50268100  0.46749400  0.60486700  1
  C  C28  1  0.50116500  0.40392600  0.52623200  1
  C  C29  1  0.48399500  0.44915400  0.42944300  1
  C  C30  1  0.46362200  0.55173400  0.41219700  1
  C  C31  1  0.51800900  0.29732900  0.53980300  1
  C  C32  1  0.52931000  0.24779700  0.45580400  1
  C  C33  1  0.51044500  0.29194200  0.36103500  1
  C  C34  1  0.48496200  0.39111900  0.34849100  1
  C  C35  1  0.54765800  0.44074300  0.69911500  1
  C  C36  1  0.65705300  0.46308600  0.69261700  1
  C  C37  1  0.70072300  0.44012400  0.78026600  1
  C  C38  1  0.63541600  0.39521200  0.87491200  1
  C  C39  1  0.52632500  0.37320700  0.88198700  1
  C  C40  1  0.48238200  0.39569500  0.79442900  1
  O  O1  1  0.61671100  0.03015200  0.10911600  1
  O  O2  1  0.40614800  0.75129900  0.29539100  1
  O  O3  1  0.70006600  0.95795200  0.22936300  1
  O  O4  1  0.50326500  0.90446900  0.36436400  1
  O  O5  1  0.36576000  0.94878200  0.19943400  1
  O  O6  1  0.43757400  0.10040500  0.06295500  1
  O  O7  1  0.57205100  0.17544200  0.26308600  1
  O  O8  1  0.39837900  0.16467400  0.26665700  1
  O  O9  1  0.42880700  0.88698100  0.72225100  1
  O  O10  1  0.55658700  0.81728700  0.77425700  1
  O  O11  1  0.65677900  0.03585600  0.82198500  1
  O  O12  1  0.55091900  0.90731200  0.96560100  1
  O  O13  1  0.28260300  0.97149700  0.79978800  1
  O  O14  1  0.56700300  0.16092200  0.65443700  1
  O  O15  1  0.41681200  0.02170700  0.89654000  1
  O  O16  1  0.41245500  0.19015600  0.70344300  1
