# generated using pymatgen
data_ZnH13C17NO5
_symmetry_space_group_name_H-M   'P 1'
_cell_length_a   6.55287300
_cell_length_b   13.77888600
_cell_length_c   14.27573000
_cell_angle_alpha   100.50255600
_cell_angle_beta   89.92793600
_cell_angle_gamma   100.16870500
_symmetry_Int_Tables_number   1
_chemical_formula_structural   ZnH13C17NO5
_chemical_formula_sum   'Zn2 H26 C34 N2 O10'
_cell_volume   1246.83489228
_cell_formula_units_Z   2
loop_
 _symmetry_equiv_pos_site_id
 _symmetry_equiv_pos_as_xyz
  1  'x, y, z'
loop_
 _atom_site_type_symbol
 _atom_site_label
 _atom_site_symmetry_multiplicity
 _atom_site_fract_x
 _atom_site_fract_y
 _atom_site_fract_z
 _atom_site_occupancy
  Zn  Zn1  1  0.03087100  0.49721000  0.89551900  1
  Zn  Zn2  1  0.00351600  0.51186300  0.10605300  1
  H  H1  1  0.75632100  0.17477100  0.92990400  1
  H  H2  1  0.27807300  0.83430200  0.07167700  1
  H  H3  1  0.50782700  0.02049600  0.93601300  1
  H  H4  1  0.52656700  0.98857900  0.06557600  1
  H  H5  1  0.03346800  0.19446600  0.00763000  1
  H  H6  1  0.00092500  0.81460900  0.99394900  1
  H  H7  1  0.16737200  0.93400200  0.96329200  1
  H  H8  1  0.86703100  0.07507300  0.03829400  1
  H  H9  1  0.23411700  0.66110800  0.47646100  1
  H  H10  1  0.80034300  0.34799700  0.52509300  1
  H  H11  1  0.65844600  0.51071300  0.45870800  1
  H  H12  1  0.37601600  0.49838500  0.54288700  1
  H  H13  1  0.66382100  0.73039600  0.57600100  1
  H  H14  1  0.78829000  0.66357600  0.47784500  1
  H  H15  1  0.99028700  0.85495200  0.61548400  1
  H  H16  1  0.11447200  0.78778400  0.51712300  1
  H  H17  1  0.85088200  0.81489000  0.40430100  1
  H  H18  1  0.98693400  0.93274400  0.47173400  1
  H  H19  1  0.72674000  0.88207400  0.50266500  1
  H  H20  1  0.07281500  0.20512900  0.41491200  1
  H  H21  1  0.08186100  0.30415000  0.51795800  1
  H  H22  1  0.45339900  0.25451200  0.39861900  1
  H  H23  1  0.46175500  0.35366800  0.50180900  1
  H  H24  1  0.32494700  0.22731600  0.60072900  1
  H  H25  1  0.56333400  0.20183300  0.54526400  1
  H  H26  1  0.31660600  0.12816500  0.49753900  1
  C  C1  1  0.59604200  0.17872900  0.94511300  1
  C  C2  1  0.43835200  0.83034400  0.05646700  1
  C  C3  1  0.45698000  0.09209000  0.94993600  1
  C  C4  1  0.57741500  0.91698400  0.05164900  1
  C  C5  1  0.25543900  0.09686900  0.97561200  1
  C  C6  1  0.77895700  0.91220600  0.02597200  1
  C  C7  1  0.19220800  0.18864900  0.99184100  1
  C  C8  1  0.84218500  0.82042600  0.00973800  1
  C  C9  1  0.32991400  0.27498200  0.98510300  1
  C  C10  1  0.70447700  0.73409100  0.01647000  1
  C  C11  1  0.53369200  0.27073600  0.96360300  1
  C  C12  1  0.50069900  0.73833700  0.03797100  1
  C  C13  1  0.11258400  0.00406900  0.98420600  1
  C  C14  1  0.92181700  0.00500500  0.01738000  1
  C  C15  1  0.24773200  0.36729900  0.99244500  1
  C  C16  1  0.78665500  0.64177400  0.00912800  1
  C  C17  1  0.69150300  0.36173300  0.97564700  1
  C  C18  1  0.34288500  0.64734000  0.02592500  1
  C  C19  1  0.13948600  0.58915600  0.48728700  1
  C  C20  1  0.89497200  0.41995200  0.51427300  1
  C  C21  1  0.95845000  0.57926200  0.55249400  1
  C  C22  1  0.07607700  0.42986100  0.44908400  1
  C  C23  1  0.21444900  0.50335000  0.52418000  1
  C  C24  1  0.82001400  0.50574900  0.47741600  1
  C  C25  1  0.03135900  0.49585900  0.58930600  1
  C  C26  1  0.00303800  0.51322900  0.41226900  1
  C  C27  1  0.04096900  0.49180700  0.69090200  1
  C  C28  1  0.99341900  0.51727200  0.31067200  1
  C  C29  1  0.81391900  0.71158800  0.54962200  1
  C  C30  1  0.96477400  0.80694100  0.54370400  1
  C  C31  1  0.87642300  0.86290500  0.47607800  1
  C  C32  1  0.15447500  0.28074400  0.44926200  1
  C  C33  1  0.38081200  0.27796800  0.46731100  1
  C  C34  1  0.39754300  0.20386500  0.53204000  1
  N  N1  1  0.04525100  0.49013200  0.77161400  1
  N  N2  1  0.98913600  0.51894200  0.22995900  1
  O  O1  1  0.17715900  0.40397800  0.07482000  1
  O  O2  1  0.85722800  0.60509500  0.92675200  1
  O  O3  1  0.20923800  0.39630400  0.91270500  1
  O  O4  1  0.82514900  0.61276900  0.08886800  1
  O  O5  1  0.78333500  0.38824100  0.90006000  1
  O  O6  1  0.25105200  0.62083200  0.10151200  1
  O  O7  1  0.75468800  0.40397500  0.06314000  1
  O  O8  1  0.27969900  0.60509900  0.93843300  1
  O  O9  1  0.89518100  0.65994000  0.61180200  1
  O  O10  1  0.13888200  0.34905500  0.38977200  1
