# generated using pymatgen
data_ZnH27C35NO4
_symmetry_space_group_name_H-M   'P 1'
_cell_length_a   15.67759900
_cell_length_b   11.32762900
_cell_length_c   17.54416900
_cell_angle_alpha   90.14811900
_cell_angle_beta   90.00000000
_cell_angle_gamma   90.00000000
_symmetry_Int_Tables_number   1
_chemical_formula_structural   ZnH27C35NO4
_chemical_formula_sum   'Zn2 H54 C70 N2 O8'
_cell_volume   3115.65900165
_cell_formula_units_Z   2
loop_
 _symmetry_equiv_pos_site_id
 _symmetry_equiv_pos_as_xyz
  1  'x, y, z'
loop_
 _atom_site_type_symbol
 _atom_site_label
 _atom_site_symmetry_multiplicity
 _atom_site_fract_x
 _atom_site_fract_y
 _atom_site_fract_z
 _atom_site_occupancy
  Zn  Zn1  1  0.50208500  0.50392400  0.91530400  1
  Zn  Zn2  1  0.49799200  0.49895700  0.08406000  1
  H  H1  1  0.17877500  0.89459500  0.12104500  1
  H  H2  1  0.81872700  0.10816600  0.87550600  1
  H  H3  1  0.28157800  0.72464900  0.87962900  1
  H  H4  1  0.72095400  0.27877400  0.11848400  1
  H  H5  1  0.30617000  0.77034400  0.12102900  1
  H  H6  1  0.69110100  0.23155600  0.87770200  1
  H  H7  1  0.15396200  0.84673200  0.88112200  1
  H  H8  1  0.84921000  0.15762700  0.11478900  1
  H  H9  1  0.18645400  0.08292800  0.87971500  1
  H  H10  1  0.81996800  0.92267300  0.11485600  1
  H  H11  1  0.28514300  0.27866300  0.11304300  1
  H  H12  1  0.71193600  0.72664600  0.88544300  1
  H  H13  1  0.15508600  0.16421800  0.11361900  1
  H  H14  1  0.84156200  0.84079400  0.88194700  1
  H  H15  1  0.47021900  0.79325400  0.69016700  1
  H  H16  1  0.51036200  0.20720100  0.30960400  1
  H  H17  1  0.48303300  0.78929800  0.30664200  1
  H  H18  1  0.53823400  0.21757600  0.69222700  1
  H  H19  1  0.48582400  0.79803800  0.44069000  1
  H  H20  1  0.53835600  0.20962300  0.55805200  1
  H  H21  1  0.46671200  0.79686400  0.55600200  1
  H  H22  1  0.51160400  0.20356500  0.44388400  1
  H  H23  1  0.52371300  0.32337000  0.80827600  1
  H  H24  1  0.48592900  0.68114500  0.19069200  1
  H  H25  1  0.48434700  0.69010300  0.80751700  1
  H  H26  1  0.50626300  0.31162800  0.19198200  1
  H  H27  1  0.41065700  0.19671600  0.87183300  1
  H  H28  1  0.29488500  0.00630500  0.80872700  1
  H  H29  1  0.36573000  0.98501800  0.88947200  1
  H  H30  1  0.40757900  0.02891500  0.79818300  1
  H  H31  1  0.24502100  0.20517600  0.77770900  1
  H  H32  1  0.35240400  0.23001700  0.74441400  1
  H  H33  1  0.30381100  0.33266500  0.81039300  1
  H  H34  1  0.64387700  0.73862500  0.16339400  1
  H  H35  1  0.71550500  0.98166200  0.19725900  1
  H  H36  1  0.76381800  0.84027200  0.22358200  1
  H  H37  1  0.66137400  0.88130100  0.25965700  1
  H  H38  1  0.59642900  0.98438100  0.10142900  1
  H  H39  1  0.54148400  0.90855100  0.17740000  1
  H  H40  1  0.53887100  0.84971100  0.08225100  1
  H  H41  1  0.06854800  0.71309900  0.02813200  1
  H  H42  1  0.88895300  0.67941200  0.07582100  1
  H  H43  1  0.95810100  0.77469500  0.13206900  1
  H  H44  1  0.98822400  0.62479000  0.11124300  1
  H  H45  1  0.90862600  0.64737000  0.94957900  1
  H  H46  1  0.01574800  0.59421500  0.94262900  1
  H  H47  1  0.98729600  0.72927600  0.89502100  1
  H  H48  1  0.93195000  0.28926500  0.96315000  1
  H  H49  1  0.09031300  0.35686900  0.04414200  1
  H  H50  1  0.01008400  0.27662400  0.09786700  1
  H  H51  1  0.98318000  0.41074300  0.04843800  1
  H  H52  1  0.11269400  0.32266700  0.91833900  1
  H  H53  1  0.01423200  0.37721600  0.88112500  1
  H  H54  1  0.04446100  0.22693100  0.86154200  1
  C  C1  1  0.30310800  0.73870600  0.00028300  1
  C  C2  1  0.69683200  0.26396000  0.99832500  1
  C  C3  1  0.07666400  0.94146900  0.00152900  1
  C  C4  1  0.92379900  0.06223600  0.99297000  1
  C  C5  1  0.20261100  0.85913900  0.06789300  1
  C  C6  1  0.79612700  0.14383900  0.92902900  1
  C  C7  1  0.26084200  0.76294800  0.93296800  1
  C  C8  1  0.74065200  0.24023600  0.06489800  1
  C  C9  1  0.27416400  0.78809800  0.06772100  1
  C  C10  1  0.72438100  0.21437500  0.93046200  1
  C  C11  1  0.15907600  0.88011000  0.00084300  1
  C  C12  1  0.84144200  0.12374600  0.99520200  1
  C  C13  1  0.18870300  0.83224700  0.93349400  1
  C  C14  1  0.81318600  0.17165700  0.06306100  1
  C  C15  1  0.31423700  0.24603300  0.99494100  1
  C  C16  1  0.68716700  0.75579100  0.00479200  1
  C  C17  1  0.07701700  0.06358100  0.99457000  1
  C  C18  1  0.92345700  0.94007600  0.99953900  1
  C  C19  1  0.21050200  0.12560300  0.93041100  1
  C  C20  1  0.79242000  0.87769200  0.06668800  1
  C  C21  1  0.26661200  0.23414700  0.06110500  1
  C  C22  1  0.73222800  0.76981100  0.93731300  1
  C  C23  1  0.28908200  0.18228400  0.92994200  1
  C  C24  1  0.71450800  0.81806600  0.07024200  1
  C  C25  1  0.16044200  0.12325900  0.99508500  1
  C  C26  1  0.84001200  0.88053000  0.00064900  1
  C  C27  1  0.19181800  0.17055700  0.06165000  1
  C  C28  1  0.80671100  0.83362900  0.93489600  1
  C  C29  1  0.00032700  0.87759300  0.00504500  1
  C  C30  1  0.00014500  0.12596600  0.98876100  1
  C  C31  1  0.61588000  0.66929100  0.00334400  1
  C  C32  1  0.38471500  0.33322800  0.99615100  1
  C  C33  1  0.62468600  0.34624100  0.99912200  1
  C  C34  1  0.37532000  0.65652700  0.00016100  1
  C  C35  1  0.49287100  0.60819600  0.77675500  1
  C  C36  1  0.50210400  0.39423300  0.22270200  1
  C  C37  1  0.51504600  0.40463500  0.77719000  1
  C  C38  1  0.49077300  0.59949200  0.22200100  1
  C  C39  1  0.50320800  0.50477700  0.65804500  1
  C  C40  1  0.49769000  0.49888300  0.34127200  1
  C  C41  1  0.49235900  0.60820900  0.69799100  1
  C  C42  1  0.50265200  0.39443400  0.30146900  1
  C  C43  1  0.47992700  0.71158200  0.65935600  1
  C  C44  1  0.50781100  0.29002600  0.34026700  1
  C  C45  1  0.51513900  0.40261400  0.69858300  1
  C  C46  1  0.49141200  0.60187200  0.30059500  1
  C  C47  1  0.49241600  0.60745700  0.45922600  1
  C  C48  1  0.51156400  0.39686100  0.54002200  1
  C  C49  1  0.50705300  0.39486500  0.46021200  1
  C  C50  1  0.49121500  0.60855000  0.53916400  1
  C  C51  1  0.49901600  0.50040500  0.42056700  1
  C  C52  1  0.50204500  0.50341100  0.57874600  1
  C  C53  1  0.48759100  0.71101700  0.41640500  1
  C  C54  1  0.52607000  0.29483100  0.58261200  1
  C  C55  1  0.48682000  0.70764700  0.33821800  1
  C  C56  1  0.52741300  0.29815500  0.66079200  1
  C  C57  1  0.47898600  0.71224100  0.58109300  1
  C  C58  1  0.50966200  0.28965500  0.41851600  1
  C  C59  1  0.34472500  0.16797500  0.86037400  1
  C  C60  1  0.35303400  0.03872800  0.83795000  1
  C  C61  1  0.30900200  0.23834000  0.79402900  1
  C  C62  1  0.65997100  0.82716100  0.14183200  1
  C  C63  1  0.70372300  0.88689200  0.20916100  1
  C  C64  1  0.57911800  0.89648200  0.12444300  1
  C  C65  1  0.00319800  0.74398300  0.01710800  1
  C  C66  1  0.95580800  0.70405600  0.08822300  1
  C  C67  1  0.97616800  0.67510800  0.94663700  1
  C  C68  1  0.99720500  0.25926000  0.97563900  1
  C  C69  1  0.02262400  0.32958400  0.04598800  1
  C  C70  1  0.04603400  0.29811400  0.90504700  1
  N  N1  1  0.50300700  0.50655200  0.81527800  1
  N  N2  1  0.49711000  0.49649300  0.18407800  1
  O  O1  1  0.58850700  0.62322900  0.06733000  1
  O  O2  1  0.41141000  0.37975300  0.93190400  1
  O  O3  1  0.58713600  0.63338200  0.93669400  1
  O  O4  1  0.41313500  0.36928800  0.06279700  1
  O  O5  1  0.59715100  0.38787500  0.93403100  1
  O  O6  1  0.40276800  0.61483100  0.06531500  1
  O  O7  1  0.59250500  0.37856600  0.06490500  1
  O  O8  1  0.40770100  0.62440200  0.93450500  1
