# Generated by REPEAT Assigner based on pymatgen
data_DB0-m3_o540_o156_f0_fsc.sym.77
_audit_creation_date              2022-05-24
_audit_creation_method            REPEAT_Assigner
_cell_length_a                    17.484001
_cell_length_b                    8.562873
_cell_length_c                    23.327255
_cell_angle_alpha                 90.000000
_cell_angle_beta                  93.834536
_cell_angle_gamma                 90.000000
_cell_volume                      3484.581487
_symmetry_space_group_name_H-M    P1
_symmetry_Int_Tables_number       1
loop_
    _symmetry_equiv_pos_site_id
    _symmetry_equiv_pos_as_xyz
    1  x,y,z
loop_
    _atom_site_type_symbol
    _atom_site_label
    _atom_site_fract_x
    _atom_site_fract_y
    _atom_site_fract_z
    _atom_type_partial_charge
    C   C1   0.032530  0.133321  0.794769  0.464523
    C   C2   0.016994  0.880100  0.207832  0.393549
    C   C3   0.967470  0.133321  0.205231  0.464517
    C   C4   0.983006  0.880100  0.792169  0.393526
    O   O1   0.067556  0.252530  0.769819  -0.498513
    O   O2   0.049929  0.759822  0.236542  -0.403329
    O   O3   0.932444  0.252530  0.230181  -0.498504
    O   O4   0.950071  0.759822  0.763458  -0.403290
    N   N1   0.008948  0.005611  0.763737  -0.185978
    N   N2   0.991052  0.005611  0.236264  -0.186143
    C   C5   0.021844  0.863316  0.671999  -0.307981
    C   C6   0.996087  0.140455  0.330051  -0.296103
    C   C7   0.978155  0.863316  0.328002  -0.308098
    C   C8   0.003912  0.140455  0.669949  -0.295987
    C   C9   0.022451  0.863936  0.612873  0.124457
    C   C10  0.980770  0.141548  0.387339  0.054233
    C   C11  0.977549  0.863936  0.387127  0.124539
    C   C12  0.019230  0.141548  0.612662  0.054178
    C   C13  0.012075  0.002985  0.701856  0.310771
    C   C14  0.987925  0.002985  0.298145  0.310976
    C   C15  0.004322  0.008518  0.882117  0.131591
    C   C16  0.995678  0.008518  0.117883  0.131218
    C   C17  0.023473  0.140558  0.853304  -0.144779
    C   C18  0.012594  0.875504  0.148570  -0.120183
    C   C19  0.976526  0.140558  0.146697  -0.144655
    C   C20  0.987405  0.875504  0.851430  -0.120622
    C   C21  0.036163  0.277601  0.883689  -0.021554
    C   C22  0.028055  0.739367  0.119915  -0.036884
    C   C23  0.963837  0.277601  0.116311  -0.021601
    C   C24  0.971945  0.739367  0.880085  -0.036485
    C   C25  0.029375  0.003096  0.584685  -0.256345
    C   C26  0.970624  0.003096  0.415315  -0.256400
    H   H1   0.985985  0.248548  0.688629  0.166793
    H   H2   0.968521  0.752462  0.307000  0.148770
    H   H3   0.014015  0.248548  0.311371  0.166813
    H   H4   0.031479  0.752462  0.693000  0.148760
    H   H5   0.052484  0.383252  0.862306  0.110601
    H   H6   0.042966  0.633185  0.143071  0.103989
    H   H7   0.947516  0.383252  0.137694  0.110598
    H   H8   0.957034  0.633185  0.856930  0.103903
    C   C27  0.993559  0.148452  0.029145  0.041810
    C   C28  0.995511  0.870256  0.970229  0.039225
    C   C29  0.006441  0.148452  0.970855  0.041940
    C   C30  0.004489  0.870256  0.029771  0.038914
    C   C31  0.997916  0.009179  0.058873  0.028710
    C   C32  0.002084  0.009179  0.941127  0.028422
    C   C33  0.975612  0.283165  0.058369  -0.191061
    C   C34  0.979159  0.735131  0.939190  -0.179597
    C   C35  0.024388  0.283165  0.941631  -0.191131
    C   C36  0.020841  0.735132  0.060810  -0.179315
    H   H9   0.964960  0.392045  0.036190  0.126338
    H   H10  0.966166  0.627015  0.959988  0.122339
    H   H11  0.035040  0.392045  0.963810  0.126359
    H   H12  0.033834  0.627015  0.040012  0.122302
    H   H13  0.037182  0.003492  0.539351  0.165854
    H   H14  0.962817  0.003492  0.460650  0.165851
    O   O5   0.075339  0.670890  0.554022  -0.703449
    O   O6   0.925039  0.333227  0.446075  -0.701281
    O   O7   0.924661  0.670890  0.445979  -0.703474
    O   O8   0.074961  0.333227  0.553925  -0.701264
    O   O9   0.945071  0.665742  0.565090  -0.556433
    O   O10  0.055124  0.339769  0.434756  -0.636196
    O   O11  0.054929  0.665741  0.434910  -0.556450
    O   O12  0.944876  0.339769  0.565244  -0.636184
    C   C37  0.014552  0.720824  0.578343  0.690182
    C   C38  0.986433  0.283885  0.421874  0.756344
    C   C39  0.985448  0.720824  0.421658  0.690210
    C   C40  0.013567  0.283885  0.578126  0.756328
    Zn  Zn1  0.915437  0.502278  0.505362  1.023851
    Zn  Zn2  0.084563  0.502277  0.494638  1.023810
    C   C41  0.774811  0.506107  0.458734  -0.212696
    C   C42  0.225188  0.506107  0.541266  -0.212762
    N   N3   0.815663  0.501921  0.509786  0.002275
    N   N4   0.184337  0.501921  0.490214  0.002330
    C   C43  0.779837  0.490429  0.559203  0.245486
    C   C44  0.220163  0.490429  0.440797  0.245451
    C   C45  0.655081  0.499924  0.403106  -0.326222
    C   C46  0.344919  0.499924  0.596894  -0.326141
    C   C47  0.695973  0.500909  0.455798  0.200423
    C   C48  0.304026  0.500909  0.544202  0.200451
    C   C49  0.658234  0.494517  0.505520  -0.045662
    C   C50  0.341766  0.494517  0.494480  -0.045610
    C   C51  0.699977  0.487914  0.557770  0.080496
    C   C52  0.300023  0.487914  0.442230  0.080489
    C   C53  0.661009  0.477311  0.607548  -0.313861
    C   C54  0.338991  0.477311  0.392453  -0.313820
    C   C55  0.535074  0.487848  0.347749  -0.200781
    C   C56  0.464926  0.487848  0.652251  -0.200435
    C   C57  0.576103  0.493378  0.400311  0.218527
    C   C58  0.423897  0.493378  0.599689  0.218185
    C   C59  0.538084  0.491970  0.450193  -0.029392
    C   C60  0.461916  0.491970  0.549808  -0.029093
    C   C61  0.456167  0.480542  0.345170  -0.251325
    C   C62  0.543833  0.480543  0.654830  -0.251485
    C   C63  0.418039  0.482378  0.395119  0.246968
    C   C64  0.581961  0.482378  0.604881  0.247072
    C   C65  0.579126  0.492074  0.502759  0.033067
    C   C66  0.420873  0.492074  0.497242  0.032885
    C   C67  0.540971  0.489070  0.552481  -0.014442
    C   C68  0.459028  0.489070  0.447519  -0.014235
    H   H15  0.804189  0.510668  0.419478  0.191406
    H   H16  0.195811  0.510668  0.580522  0.191410
    H   H17  0.684929  0.502605  0.364003  0.155153
    H   H18  0.315070  0.502605  0.635997  0.155146
    H   H19  0.690597  0.465638  0.649199  0.134315
    H   H20  0.309402  0.465637  0.350801  0.134290
    H   H21  0.564508  0.488101  0.308444  0.137815
    H   H22  0.435492  0.488101  0.691556  0.137726
    H   H23  0.424485  0.475424  0.303799  0.149863
    H   H24  0.575515  0.475425  0.696201  0.149873
    N   N5   0.823731  0.472441  0.611689  -0.550086
    C   C69  0.818898  0.595200  0.647288  0.862568
    O   O13  0.804071  0.724686  0.627875  -0.611562
    C   C70  0.827410  0.570387  0.710600  -0.472076
    H   H25  0.818246  0.366442  0.631798  0.282494
    H   H26  0.885377  0.523610  0.722600  0.125282
    H   H27  0.784520  0.484497  0.723750  0.076665
    H   H28  0.817542  0.682337  0.732755  0.121222
    N   N6   0.176269  0.472441  0.388311  -0.550064
    C   C71  0.181101  0.595200  0.352712  0.862584
    O   O14  0.195929  0.724686  0.372125  -0.611580
    C   C72  0.172590  0.570386  0.289400  -0.472033
    H   H29  0.181754  0.366442  0.368202  0.282495
    H   H30  0.114623  0.523610  0.277401  0.125264
    H   H31  0.215479  0.484496  0.276251  0.076652
    H   H32  0.182458  0.682336  0.267245  0.121213
