# generated using pymatgen
data_Fe2H20(C3O)17
_symmetry_space_group_name_H-M   'P 1'
_cell_length_a   16.78003900
_cell_length_b   14.60006200
_cell_length_c   11.07373000
_cell_angle_alpha   94.29746100
_cell_angle_beta   108.46638000
_cell_angle_gamma   107.50835100
_symmetry_Int_Tables_number   1
_chemical_formula_structural   Fe2H20(C3O)17
_chemical_formula_sum   'Fe2 H20 C51 O17'
_cell_volume   2410.20194246
_cell_formula_units_Z   1
loop_
 _symmetry_equiv_pos_site_id
 _symmetry_equiv_pos_as_xyz
  1  'x, y, z'
loop_
 _atom_site_type_symbol
 _atom_site_label
 _atom_site_symmetry_multiplicity
 _atom_site_fract_x
 _atom_site_fract_y
 _atom_site_fract_z
 _atom_site_occupancy
  Fe  Fe1  1  0.49426900  0.99416200  0.26241200  1
  Fe  Fe2  1  0.51221600  0.01079200  0.74146700  1
  H  H1  1  0.22836200  0.99160300  0.08055500  1
  H  H2  1  0.06067300  0.98949600  0.69901600  1
  H  H3  1  0.17921800  0.98922500  0.61925600  1
  H  H4  1  0.94862600  0.01468900  0.29437700  1
  H  H5  1  0.77459600  0.01069800  0.92090300  1
  H  H6  1  0.95809100  0.89383100  0.78972300  1
  H  H7  1  0.84501600  0.90204200  0.87838500  1
  H  H8  1  0.04643200  0.11212300  0.20547600  1
  H  H9  1  0.15925200  0.10321000  0.11739800  1
  H  H10  1  0.59577200  0.34400700  0.84528400  1
  H  H11  1  0.62163900  0.50658000  0.94459100  1
  H  H12  1  0.41368700  0.21542600  0.19446900  1
  H  H13  1  0.37913700  0.33408500  0.06979200  1
  H  H14  1  0.61396600  0.66511000  0.93025600  1
  H  H15  1  0.58137300  0.78435200  0.80582600  1
  H  H16  1  0.36978300  0.49207200  0.05576700  1
  H  H17  1  0.39586400  0.65456600  0.15510100  1
  H  H18  1  0.81006500  0.95673900  0.45404900  1
  H  H19  1  0.82033600  0.08496500  0.46292700  1
  H  H20  1  0.95119900  0.11989800  0.54632700  1
  C  C1  1  0.28651600  0.99423500  0.93588700  1
  C  C2  1  0.21730300  0.99111000  0.97892400  1
  C  C3  1  0.13636000  0.99107000  0.89594900  1
  C  C4  1  0.12324000  0.98883600  0.76610500  1
  C  C5  1  0.19144000  0.98997400  0.72121100  1
  C  C6  1  0.27423500  0.99402800  0.80512200  1
  C  C7  1  0.97802300  0.94286900  0.88037500  1
  C  C8  1  0.91373600  0.94779300  0.93089000  1
  C  C9  1  0.93736200  0.00759500  0.04882400  1
  C  C10  1  0.02628400  0.06276000  0.11503200  1
  C  C11  1  0.09051500  0.05756400  0.06477700  1
  C  C12  1  0.06701600  0.99717200  0.94748000  1
  C  C13  1  0.88446400  0.01540700  0.23332100  1
  C  C14  1  0.81841700  0.01531200  0.28390800  1
  C  C15  1  0.73236000  0.00629800  0.20028700  1
  C  C16  1  0.71882900  0.00656900  0.06852800  1
  C  C17  1  0.78702500  0.01104600  0.02280900  1
  C  C18  1  0.86865700  0.01192600  0.10290800  1
  C  C19  1  0.65803100  0.99899900  0.25001800  1
  C  C20  1  0.48745400  0.81433700  0.33236500  1
  C  C21  1  0.37202300  0.00446100  0.03515100  1
  C  C22  1  0.46752300  0.14520600  0.39039900  1
  C  C23  1  0.53296900  0.85647300  0.61078300  1
  C  C24  1  0.63339700  0.99783600  0.96975900  1
  C  C25  1  0.51117400  0.18657500  0.66659700  1
  C  C26  1  0.34550400  0.99712100  0.75240700  1
  C  C27  1  0.48148800  0.24261200  0.45533400  1
  C  C28  1  0.51162900  0.26564500  0.58981100  1
  C  C29  1  0.53267600  0.36192200  0.64920000  1
  C  C30  1  0.57353800  0.39141100  0.78272900  1
  C  C31  1  0.59068900  0.48524300  0.84034400  1
  C  C32  1  0.42827400  0.28721100  0.24680900  1
  C  C33  1  0.46365400  0.31165400  0.38113800  1
  C  C34  1  0.47995000  0.40548100  0.44091200  1
  C  C35  1  0.40807000  0.35478800  0.17423700  1
  C  C36  1  0.42449800  0.44787500  0.23391400  1
  C  C37  1  0.51566800  0.43094400  0.57428300  1
  C  C38  1  0.53357300  0.52572900  0.63288900  1
  C  C39  1  0.56961000  0.55171000  0.76606500  1
  C  C40  1  0.58596300  0.64473800  0.82575000  1
  C  C41  1  0.46151300  0.47426800  0.36699900  1
  C  C42  1  0.47982700  0.56922300  0.42556400  1
  C  C43  1  0.51575000  0.59473100  0.55893100  1
  C  C44  1  0.53250000  0.68868800  0.61870200  1
  C  C45  1  0.56697000  0.71273600  0.75314800  1
  C  C46  1  0.40209900  0.51387200  0.15981800  1
  C  C47  1  0.41969900  0.60785100  0.21738300  1
  C  C48  1  0.46270600  0.63821200  0.35058400  1
  C  C49  1  0.48582800  0.73520100  0.40974500  1
  C  C50  1  0.51615000  0.75831200  0.54459100  1
  C  C51  1  0.84235400  0.02689800  0.42846100  1
  O  O1  1  0.58553100  0.01431500  0.18004100  1
  O  O2  1  0.50967800  0.80906200  0.22923200  1
  O  O3  1  0.66179000  0.97368200  0.36225200  1
  O  O4  1  0.47744500  0.89542000  0.37375700  1
  O  O5  1  0.37433400  0.94545700  0.11897200  1
  O  O6  1  0.44214800  0.08260400  0.05552200  1
  O  O7  1  0.53570600  0.12568800  0.37547700  1
  O  O8  1  0.38634000  0.08112600  0.33640200  1
  O  O9  1  0.46626200  0.87952100  0.62566600  1
  O  O10  1  0.61529600  0.91774600  0.66599300  1
  O  O11  1  0.63281700  0.05493600  0.88332500  1
  O  O12  1  0.56177600  0.92208100  0.95177000  1
  O  O13  1  0.33253400  0.00490800  0.63092000  1
  O  O14  1  0.53109800  0.11058100  0.63206000  1
  O  O15  1  0.42258100  0.99370200  0.82651800  1
  O  O16  1  0.48167100  0.18704500  0.76305000  1
  O  O17  1  0.93456800  0.05515500  0.49229600  1
