# generated using pymatgen
data_FeH8C23NO11
_symmetry_space_group_name_H-M   'P 1'
_cell_length_a   17.48735900
_cell_length_b   14.38470900
_cell_length_c   13.06079800
_cell_angle_alpha   86.97057000
_cell_angle_beta   81.84560500
_cell_angle_gamma   111.77111800
_symmetry_Int_Tables_number   1
_chemical_formula_structural   FeH8C23NO11
_chemical_formula_sum   'Fe2 H16 C46 N2 O22'
_cell_volume   3000.32188000
_cell_formula_units_Z   2
loop_
 _symmetry_equiv_pos_site_id
 _symmetry_equiv_pos_as_xyz
  1  'x, y, z'
loop_
 _atom_site_type_symbol
 _atom_site_label
 _atom_site_symmetry_multiplicity
 _atom_site_fract_x
 _atom_site_fract_y
 _atom_site_fract_z
 _atom_site_occupancy
  Fe  Fe1  1  0.50368500  0.00764200  0.22647500  1
  Fe  Fe2  1  0.49354300  0.99581700  0.77332800  1
  H  H1  1  0.10587300  0.96708400  0.29862200  1
  H  H2  1  0.24118500  0.00295700  0.79094400  1
  H  H3  1  0.11599100  0.00046700  0.75556000  1
  H  H4  1  0.90843200  0.06468200  0.21942800  1
  H  H5  1  0.99741900  0.97451900  0.73055600  1
  H  H6  1  0.77869900  0.05990900  0.18927600  1
  H  H7  1  0.73633600  0.98805200  0.76247300  1
  H  H8  1  0.48952900  0.36511500  0.31896500  1
  H  H9  1  0.55464100  0.14482600  0.46923100  1
  H  H10  1  0.45440600  0.86076400  0.52709100  1
  H  H11  1  0.26647000  0.06654400  0.27773000  1
  H  H12  1  0.57853000  0.42624100  0.66390900  1
  H  H13  1  0.47357900  0.59153100  0.73957900  1
  H  H14  1  0.44091000  0.58329600  0.33137800  1
  H  H15  1  0.97812900  0.00087200  0.33194700  1
  H  H16  1  0.84251000  0.90044400  0.67675000  1
  C  C1  1  0.23995900  0.99964900  0.15996400  1
  C  C2  1  0.09960600  0.98117200  0.21879200  1
  C  C3  1  0.30561200  0.01315700  0.08063900  1
  C  C4  1  0.29421000  0.01974700  0.97749400  1
  C  C5  1  0.16413900  0.99606200  0.13815700  1
  C  C6  1  0.15149000  0.00310400  0.03681100  1
  C  C7  1  0.21540200  0.01107800  0.95646900  1
  C  C8  1  0.19780100  0.00609500  0.85655900  1
  C  C9  1  0.02449300  0.98088200  0.19994500  1
  C  C10  1  0.01313800  0.99832900  0.09803600  1
  C  C11  1  0.07443200  0.00050200  0.01654700  1
  C  C12  1  0.05868200  0.99938700  0.91526400  1
  C  C13  1  0.12169500  0.00123300  0.83624900  1
  C  C14  1  0.88954600  0.03632200  0.14857500  1
  C  C15  1  0.94079900  0.00907900  0.07573900  1
  C  C16  1  0.92219100  0.00068500  0.97638700  1
  C  C17  1  0.98019700  0.99391700  0.89576600  1
  C  C18  1  0.95841700  0.98381300  0.79717200  1
  C  C19  1  0.81391500  0.03478200  0.13039500  1
  C  C20  1  0.78754800  0.00781500  0.03764900  1
  C  C21  1  0.84529300  0.99976200  0.95780400  1
  C  C22  1  0.82632700  0.99191400  0.85910500  1
  C  C23  1  0.70716500  0.99625800  0.02143900  1
  C  C24  1  0.69061200  0.99248100  0.92012900  1
  C  C25  1  0.88291800  0.98352500  0.77922100  1
  C  C26  1  0.75106500  0.99293100  0.84004200  1
  C  C27  1  0.64083100  0.98761000  0.10986700  1
  C  C28  1  0.47457400  0.81266200  0.33674000  1
  C  C29  1  0.38670400  0.02412300  0.10921700  1
  C  C30  1  0.51002400  0.19041900  0.29922200  1
  C  C31  1  0.49868900  0.81925300  0.69705400  1
  C  C32  1  0.60945900  0.98260500  0.89320900  1
  C  C33  1  0.53760200  0.19337300  0.65852500  1
  C  C34  1  0.36408200  0.03229300  0.89247100  1
  C  C35  1  0.52522500  0.25222000  0.38462500  1
  C  C36  1  0.50696700  0.33696900  0.38664800  1
  C  C37  1  0.51171600  0.38756200  0.47381300  1
  C  C38  1  0.52704600  0.34592600  0.56484000  1
  C  C39  1  0.54069800  0.25638000  0.56372900  1
  C  C40  1  0.54454500  0.21438600  0.47153500  1
  C  C41  1  0.50649900  0.67309100  0.61138500  1
  C  C42  1  0.48602200  0.75644600  0.61215500  1
  C  C43  1  0.46670700  0.79266300  0.52441400  1
  C  C44  1  0.47350600  0.75149200  0.43204700  1
  C  C45  1  0.48979700  0.66366300  0.43191600  1
  C  C46  1  0.50426200  0.62278200  0.52403500  1
  N  N1  1  0.49362700  0.47582300  0.46761000  1
  N  N2  1  0.52275900  0.53479700  0.53118700  1
  O  O1  1  0.58075400  0.01816600  0.09598100  1
  O  O2  1  0.47736100  0.78056600  0.24460400  1
  O  O3  1  0.63922500  0.94521800  0.20198400  1
  O  O4  1  0.48283400  0.90632500  0.34663800  1
  O  O5  1  0.38866500  0.96827700  0.19110400  1
  O  O6  1  0.45569700  0.09717200  0.06159200  1
  O  O7  1  0.55999800  0.14296100  0.27411200  1
  O  O8  1  0.43552500  0.15895300  0.27378300  1
  O  O9  1  0.44367300  0.85946000  0.72472500  1
  O  O10  1  0.57447000  0.86025100  0.71771500  1
  O  O11  1  0.60729500  0.04120300  0.81370500  1
  O  O12  1  0.54156700  0.90532400  0.93595700  1
  O  O13  1  0.37958000  0.09570500  0.80916900  1
  O  O14  1  0.51372600  0.09586700  0.65219300  1
  O  O15  1  0.41206200  0.98125100  0.90100100  1
  O  O16  1  0.54981800  0.22991300  0.74746100  1
  O  O17  1  0.25170000  0.99626200  0.26117800  1
  O  O18  1  0.52014900  0.38561800  0.65698600  1
  O  O19  1  0.52752300  0.63833900  0.69825600  1
  O  O20  1  0.49880000  0.62409500  0.34009700  1
  O  O21  1  0.95981800  0.95045500  0.28250700  1
  O  O22  1  0.86467000  0.97398200  0.68101200  1
