# generated using pymatgen
data_ZnH3C13(NO3)2
_symmetry_space_group_name_H-M   'P 1'
_cell_length_a   8.54812700
_cell_length_b   13.04140200
_cell_length_c   12.79842100
_cell_angle_alpha   90.65250000
_cell_angle_beta   93.61674300
_cell_angle_gamma   86.45455900
_symmetry_Int_Tables_number   1
_chemical_formula_structural   ZnH3C13(NO3)2
_chemical_formula_sum   'Zn2 H6 C26 N4 O12'
_cell_volume   1421.15528464
_cell_formula_units_Z   2
loop_
 _symmetry_equiv_pos_site_id
 _symmetry_equiv_pos_as_xyz
  1  'x, y, z'
loop_
 _atom_site_type_symbol
 _atom_site_label
 _atom_site_symmetry_multiplicity
 _atom_site_fract_x
 _atom_site_fract_y
 _atom_site_fract_z
 _atom_site_occupancy
  Zn  Zn1  1  0.55808900  0.49043000  0.88562300  1
  Zn  Zn2  1  0.56710300  0.50829900  0.11817600  1
  H  H1  1  0.62070000  0.99926500  0.04967100  1
  H  H2  1  0.06572200  0.42631000  0.05211200  1
  H  H3  1  0.23897700  0.00153000  0.96898900  1
  H  H4  1  0.72749600  0.16007400  0.05039200  1
  H  H5  1  0.27797200  0.84858200  0.99708000  1
  H  H6  1  0.05865800  0.57019200  0.96624400  1
  C  C1  1  0.02309800  0.86362200  0.99969400  1
  C  C2  1  0.89128000  0.80681600  0.00642700  1
  C  C3  1  0.74721500  0.85731900  0.02421600  1
  C  C4  1  0.73404300  0.96187400  0.03592400  1
  C  C5  1  0.85922800  0.01940000  0.02132000  1
  C  C6  1  0.00380400  0.97169700  0.00170200  1
  C  C7  1  0.83728300  0.12523700  0.02681800  1
  C  C8  1  0.95845100  0.18625700  0.01069000  1
  C  C9  1  0.10207000  0.14007100  0.98682600  1
  C  C10  1  0.12438200  0.03399400  0.98288700  1
  C  C11  1  0.94112400  0.29239300  0.02272000  1
  C  C12  1  0.07483700  0.34587500  0.03235500  1
  C  C13  1  0.21683500  0.30096400  0.00558800  1
  C  C14  1  0.22624900  0.20018400  0.97144300  1
  C  C15  1  0.17034100  0.81064500  0.99262100  1
  C  C16  1  0.18315700  0.70480200  0.98234700  1
  C  C17  1  0.04957800  0.65212300  0.97739200  1
  C  C18  1  0.90635100  0.70038600  0.99504400  1
  C  C19  1  0.34886100  0.36571400  0.00361000  1
  C  C20  1  0.33457700  0.64360200  0.98775100  1
  C  C21  1  0.77587700  0.63383300  0.99949700  1
  C  C22  1  0.78902000  0.35355700  0.01667300  1
  C  C23  1  0.55735800  0.48683500  0.65838100  1
  C  C24  1  0.56107900  0.49532100  0.54866700  1
  C  C25  1  0.56460000  0.50348100  0.45515200  1
  C  C26  1  0.56825600  0.51194800  0.34543200  1
  N  N1  1  0.55514700  0.48201000  0.74848900  1
  N  N2  1  0.57037600  0.51675600  0.25531700  1
  N  N3  1  0.60781400  0.80412600  0.02524300  1
  N  N4  1  0.35999000  0.15889200  0.91976100  1
  O  O1  1  0.40122800  0.40619100  0.09228500  1
  O  O2  1  0.39989600  0.38723600  0.91256300  1
  O  O3  1  0.38375900  0.60003400  0.90141000  1
  O  O4  1  0.39723600  0.61844100  0.08114500  1
  O  O5  1  0.72351600  0.59272500  0.91151700  1
  O  O6  1  0.72523900  0.61175800  0.09089900  1
  O  O7  1  0.74091900  0.39838200  0.10242000  1
  O  O8  1  0.72769000  0.38002600  0.92297400  1
  O  O9  1  0.54450900  0.77338200  0.93626600  1
  O  O10  1  0.52265100  0.81499000  0.10573400  1
  O  O11  1  0.33895100  0.09963900  0.83828300  1
  O  O12  1  0.49635600  0.19600900  0.93878400  1
