# Generated by REPEAT Assigner based on pymatgen
data_DB0-m9_o7_o13_f0_sra.sym.51_sqe
_audit_creation_date              2022-05-24
_audit_creation_method            REPEAT_Assigner
_cell_length_a                    6.322124
_cell_length_b                    20.584826
_cell_length_c                    21.516294
_cell_angle_alpha                 108.807253
_cell_angle_beta                  90.499259
_cell_angle_gamma                 90.517051
_cell_volume                      2650.315738
_symmetry_space_group_name_H-M    P1
_symmetry_Int_Tables_number       1
loop_
    _symmetry_equiv_pos_site_id
    _symmetry_equiv_pos_as_xyz
    1  x,y,z
loop_
    _atom_site_type_symbol
    _atom_site_label
    _atom_site_fract_x
    _atom_site_fract_y
    _atom_site_fract_z
    _atom_type_partial_charge
    O  O1   0.466612  0.426456  0.518963  -0.349573
    O  O2   0.262849  0.413549  0.442742  -0.472089
    O  O3   0.049961  0.519337  0.419133  -0.547274
    C  C1   0.385127  0.419663  0.394760  0.611822
    O  O4   0.177554  0.472238  0.578030  -0.565641
    O  O5   0.971704  0.577385  0.553959  -0.373111
    C  C2   0.350034  0.436907  0.571320  0.567403
    O  O6   0.546155  0.462921  0.405944  -0.518295
    O  O7   0.365491  0.551277  0.510435  -0.574414
    V  V1   0.089143  0.490227  0.496967  1.341566
    O  O8   0.681465  0.539966  0.593841  -0.539544
    C  C3   0.851728  0.577473  0.603272  0.568594
    O  O9   0.768327  0.576871  0.480657  -0.409348
    C  C4   0.885053  0.559929  0.426549  0.535152
    V  V2   0.589675  0.506922  0.500924  1.267421
    O  O10  0.861766  0.445700  0.485206  -0.581321
    C  C5   0.070971  0.797376  0.140551  -0.161151
    H  H1   0.180790  0.755562  0.132228  0.130197
    C  C6   0.076732  0.839024  0.101343  -0.146191
    H  H2   0.190621  0.829722  0.062347  0.116501
    C  C7   0.935620  0.892156  0.111835  -0.008907
    C  C8   0.790245  0.903588  0.161531  -0.048487
    H  H3   0.679373  0.945095  0.169658  0.157739
    C  C9   0.784558  0.862152  0.200579  -0.232156
    H  H4   0.669642  0.871263  0.239275  0.126024
    C  C10  0.924383  0.808889  0.190125  0.249347
    C  C11  0.915054  0.765606  0.230848  -0.142158
    C  C12  0.905266  0.729668  0.265358  -0.177269
    C  C13  0.034423  0.633129  0.295979  -0.221292
    H  H5   0.149337  0.623693  0.257253  0.133191
    C  C14  0.028077  0.591960  0.335289  -0.040350
    H  H6   0.138465  0.550345  0.327338  0.091545
    C  C15  0.882740  0.603839  0.385044  0.017356
    C  C16  0.742344  0.657132  0.395320  -0.152211
    H  H7   0.628541  0.666801  0.434371  0.121025
    C  C17  0.748765  0.698501  0.355860  -0.159446
    H  H8   0.639540  0.740455  0.364038  0.127325
    C  C18  0.895311  0.686565  0.306244  0.277046
    C  C19  0.857469  0.636011  0.663131  -0.025388
    C  C20  0.960587  0.862493  0.834374  -0.057407
    C  C21  0.115609  0.802956  0.731121  -0.285944
    C  C22  0.105610  0.860042  0.786195  -0.042323
    C  C23  0.824764  0.807988  0.827618  -0.242653
    C  C24  0.836198  0.750576  0.772799  0.220897
    C  C25  0.981879  0.747969  0.724628  0.250063
    C  C26  0.993285  0.690522  0.669806  -0.272547
    C  C27  0.712552  0.638509  0.711342  -0.042397
    C  C28  0.702510  0.695613  0.766361  -0.282287
    H  H9   0.104859  0.688933  0.631575  0.140646
    H  H10  0.604526  0.595879  0.705457  0.088620
    H  H11  0.229849  0.800973  0.693484  0.149643
    H  H12  0.588338  0.697620  0.804020  0.148326
    H  H13  0.213735  0.902659  0.792135  0.087747
    H  H14  0.713185  0.809533  0.865836  0.141732
    C  C29  0.401125  0.361852  0.334655  -0.064861
    C  C30  0.426968  0.131434  0.166094  -0.031585
    C  C31  0.272528  0.179620  0.271821  -0.215089
    C  C32  0.310918  0.123594  0.217528  -0.123706
    C  C33  0.511851  0.194620  0.170529  -0.242463
    C  C34  0.474822  0.250395  0.225262  0.246616
    C  C35  0.352494  0.243110  0.275458  0.222565
    C  C36  0.313248  0.299016  0.329909  -0.248533
    C  C37  0.524411  0.369056  0.284664  -0.009509
    C  C38  0.559010  0.313591  0.229555  -0.312207
    H  H15  0.220925  0.292953  0.369773  0.155819
    H  H16  0.595928  0.418268  0.289081  0.087159
    H  H17  0.180358  0.173648  0.311753  0.123866
    H  H18  0.655388  0.319351  0.190364  0.153668
    H  H19  0.601038  0.200967  0.130194  0.144339
    C  C39  0.577237  0.140356  0.798211  -0.216877
    H  H20  0.691699  0.135241  0.759944  0.131550
    C  C40  0.589484  0.099082  0.837340  -0.038902
    H  H21  0.713936  0.061742  0.829683  0.095783
    C  C41  0.444861  0.105421  0.886526  -0.003791
    C  C42  0.286429  0.153281  0.896384  -0.162426
    H  H22  0.172973  0.158631  0.934963  0.130449
    C  C43  0.274165  0.194769  0.857090  -0.145394
    H  H23  0.150701  0.232463  0.864954  0.123136
    C  C44  0.420065  0.188397  0.808040  0.264783
    C  C45  0.410711  0.231670  0.767245  -0.161280
    C  C46  0.404859  0.267674  0.732704  -0.157448
    C  C47  0.541936  0.304176  0.642722  -0.148622
    H  H24  0.665120  0.266404  0.634983  0.124823
    C  C48  0.530094  0.345456  0.603229  -0.139072
    H  H25  0.643580  0.339866  0.564615  0.115360
    C  C49  0.371959  0.393391  0.612896  -0.027019
    C  C50  0.227220  0.400028  0.662108  -0.025092
    H  H26  0.102962  0.437415  0.669599  0.093761
    C  C51  0.239059  0.358955  0.701445  -0.222236
    H  H27  0.124468  0.364277  0.739714  0.131791
    C  C52  0.395928  0.310826  0.691789  0.262334
    O  O11  0.270927  0.033772  0.092246  -0.410295
    O  O12  0.639681  0.026272  0.920797  -0.565560
    O  O13  0.845624  0.920438  0.943489  -0.424643
    C  C53  0.467159  0.061569  0.927761  0.567969
    O  O14  0.554241  0.083314  0.056279  -0.430736
    O  O15  0.767408  0.976933  0.078476  -0.615708
    C  C54  0.436846  0.075167  0.104423  0.540815
    O  O16  0.350839  0.071559  0.980082  -0.382711
    O  O17  0.451671  0.946140  0.987242  -0.577570
    V  V3   0.728162  0.007176  0.001314  1.369197
    O  O18  0.048850  0.920048  0.016571  -0.451757
    C  C55  0.932649  0.936485  0.070741  0.678832
    O  O19  0.136007  0.958452  0.904211  -0.554063
    C  C56  0.965915  0.920829  0.894398  0.621409
    V  V4   0.227537  0.990503  0.997167  1.325514
    O  O20  0.955478  0.051760  0.013506  -0.624461
    C  C57  0.229561  0.056262  0.215938  0.652976
    O  O21  0.287839  0.004297  0.174006  -0.471017
    O  O22  0.097865  0.051515  0.263144  -0.375611
    C  C58  0.025657  0.988510  0.262985  0.169582
    H  H28  0.850528  0.986662  0.259090  0.018678
    H  H29  0.075510  0.979851  0.309206  0.013892
    H  H30  0.092506  0.948013  0.220534  0.017822
