# generated using pymatgen
data_VH4(C2O)7
_symmetry_space_group_name_H-M   'P 1'
_cell_length_a   23.29560000
_cell_length_b   6.81800000
_cell_length_c   19.65320300
_cell_angle_alpha   90.00000000
_cell_angle_beta   92.66170100
_cell_angle_gamma   90.00000000
_symmetry_Int_Tables_number   1
_chemical_formula_structural   VH4(C2O)7
_chemical_formula_sum   'V4 H16 C56 O28'
_cell_volume   3118.13878723
_cell_formula_units_Z   4
loop_
 _symmetry_equiv_pos_site_id
 _symmetry_equiv_pos_as_xyz
  1  'x, y, z'
loop_
 _atom_site_type_symbol
 _atom_site_label
 _atom_site_symmetry_multiplicity
 _atom_site_fract_x
 _atom_site_fract_y
 _atom_site_fract_z
 _atom_site_occupancy
  V  V1  1  0.74999300  0.80062000  0.24070200  1
  V  V2  1  0.25000600  0.19938100  0.75929800  1
  V  V3  1  0.75000700  0.30062000  0.25929800  1
  V  V4  1  0.24999300  0.69937900  0.74070100  1
  H  H1  1  0.09429100  0.27600400  0.64133200  1
  H  H2  1  0.90570900  0.72399400  0.35866700  1
  H  H3  1  0.40570800  0.77601100  0.85866900  1
  H  H4  1  0.59429100  0.22399200  0.14133100  1
  H  H5  1  0.07466700  0.55267400  0.48037600  1
  H  H6  1  0.92533300  0.44732900  0.51962200  1
  H  H7  1  0.42533100  0.05267400  0.01962300  1
  H  H8  1  0.57466900  0.94732200  0.98037600  1
  H  H9  1  0.98924900  0.56050600  0.40439700  1
  H  H10  1  0.01075100  0.43949600  0.59560200  1
  H  H11  1  0.51075100  0.06050100  0.09560200  1
  H  H12  1  0.48924900  0.93949400  0.90439800  1
  H  H13  1  0.22498300  0.55212100  0.58029600  1
  H  H14  1  0.77501800  0.44788300  0.41970500  1
  H  H15  1  0.27501800  0.05211600  0.91970000  1
  H  H16  1  0.72498300  0.94788100  0.08029900  1
  C  C1  1  0.83371800  0.51950900  0.16717000  1
  C  C2  1  0.16628200  0.48049200  0.83282900  1
  C  C3  1  0.66628200  0.01950800  0.33282900  1
  C  C4  1  0.33371800  0.98049200  0.66717000  1
  C  C5  1  0.66895300  0.52007900  0.16329400  1
  C  C6  1  0.33104800  0.47992100  0.83670600  1
  C  C7  1  0.83104800  0.02008200  0.33670600  1
  C  C8  1  0.16895200  0.97991800  0.66329400  1
  C  C9  1  0.08520400  0.15229300  0.60815500  1
  C  C10  1  0.91479500  0.84770800  0.39184600  1
  C  C11  1  0.41479500  0.65229500  0.89184800  1
  C  C12  1  0.58520500  0.34770300  0.10815400  1
  C  C13  1  0.12058900  0.98945300  0.61180000  1
  C  C14  1  0.87941100  0.01054900  0.38820000  1
  C  C15  1  0.37941000  0.48945300  0.88820200  1
  C  C16  1  0.62059000  0.51054300  0.11179900  1
  C  C17  1  0.10775300  0.83032700  0.56950800  1
  C  C18  1  0.89224600  0.16967600  0.43049200  1
  C  C19  1  0.39224500  0.33032600  0.93049200  1
  C  C20  1  0.60775400  0.66966900  0.06950700  1
  C  C21  1  0.05948800  0.83462200  0.52485200  1
  C  C22  1  0.94051200  0.16537600  0.47514800  1
  C  C23  1  0.44051100  0.33462500  0.97514900  1
  C  C24  1  0.55948800  0.66537500  0.02485200  1
  C  C25  1  0.02409000  0.99738200  0.52225300  1
  C  C26  1  0.97591000  0.00261500  0.47774800  1
  C  C27  1  0.47591000  0.49738500  0.97774900  1
  C  C28  1  0.52409000  0.50261600  0.02225200  1
  C  C29  1  0.03708600  0.15551100  0.56395400  1
  C  C30  1  0.96291400  0.84448700  0.43604600  1
  C  C31  1  0.46291400  0.65551400  0.93604700  1
  C  C32  1  0.53708600  0.34448600  0.06395400  1
  C  C33  1  0.04692400  0.67895700  0.48141700  1
  C  C34  1  0.95307600  0.32104300  0.51858300  1
  C  C35  1  0.45307400  0.17895800  0.01858300  1
  C  C36  1  0.54692500  0.82104100  0.98141600  1
  C  C37  1  0.99872900  0.68349700  0.43776900  1
  C  C38  1  0.00127100  0.31650300  0.56223000  1
  C  C39  1  0.50127100  0.18349500  0.06223000  1
  C  C40  1  0.49872900  0.81650300  0.93777000  1
  C  C41  1  0.38565100  0.99059900  0.61481400  1
  C  C42  1  0.61435000  0.00940400  0.38518600  1
  C  C43  1  0.11435000  0.49059700  0.88518600  1
  C  C44  1  0.88565100  0.50940200  0.11481400  1
  C  C45  1  0.42784400  0.99485200  0.57242100  1
  C  C46  1  0.57215500  0.00514500  0.42757800  1
  C  C47  1  0.07215500  0.49485600  0.92757800  1
  C  C48  1  0.92784500  0.50514900  0.07242100  1
  C  C49  1  0.47889000  0.99857100  0.52118500  1
  C  C50  1  0.52111000  0.00143100  0.47881500  1
  C  C51  1  0.02111000  0.49857000  0.97881600  1
  C  C52  1  0.97889000  0.50143000  0.02118500  1
  C  C53  1  0.14597100  0.65915400  0.57113400  1
  C  C54  1  0.85402900  0.34084700  0.42886500  1
  C  C55  1  0.35402800  0.15915400  0.92886500  1
  C  C56  1  0.64597100  0.84084300  0.07113400  1
  O  O1  1  0.68709300  0.34966000  0.19065800  1
  O  O2  1  0.31290700  0.65034100  0.80934300  1
  O  O3  1  0.81290700  0.84966300  0.30934200  1
  O  O4  1  0.18709300  0.15033800  0.69065800  1
  O  O5  1  0.80856000  0.69774700  0.17908600  1
  O  O6  1  0.19144000  0.30225400  0.82091400  1
  O  O7  1  0.69143900  0.19774500  0.32091400  1
  O  O8  1  0.30856000  0.80225400  0.67908600  1
  O  O9  1  0.69123500  0.69818000  0.17405600  1
  O  O10  1  0.30876400  0.30182200  0.82594300  1
  O  O11  1  0.80876400  0.19818100  0.32594400  1
  O  O12  1  0.19123600  0.80181900  0.67405600  1
  O  O13  1  0.68742300  0.85063500  0.30400900  1
  O  O14  1  0.31257700  0.14936400  0.69599200  1
  O  O15  1  0.81257700  0.35063800  0.19599200  1
  O  O16  1  0.18742400  0.64936500  0.80400800  1
  O  O17  1  0.75026500  0.53096800  0.28879400  1
  O  O18  1  0.24973400  0.46903500  0.71120400  1
  O  O19  1  0.74973400  0.03096700  0.21120300  1
  O  O20  1  0.25026600  0.96903300  0.78879500  1
  O  O21  1  0.12634200  0.49481500  0.56272700  1
  O  O22  1  0.20505000  0.68394900  0.58094000  1
  O  O23  1  0.87366000  0.50518500  0.43727100  1
  O  O24  1  0.79495100  0.31605400  0.41906100  1
  O  O25  1  0.37366000  0.99481700  0.93727000  1
  O  O26  1  0.29495000  0.18394700  0.91905900  1
  O  O27  1  0.62634100  0.00518200  0.06272900  1
  O  O28  1  0.70504900  0.81605100  0.08094000  1
