# Generated by REPEAT Assigner based on pymatgen
data_DB0-m2_o20_o25_f0_nbo
_audit_creation_date              2022-05-24
_audit_creation_method            REPEAT_Assigner
_cell_length_a                    43.578680
_cell_length_b                    30.173248
_cell_length_c                    30.444492
_cell_angle_alpha                 90.000000
_cell_angle_beta                  134.992397
_cell_angle_gamma                 90.000000
_cell_volume                      28310.497723
_symmetry_space_group_name_H-M    P1
_symmetry_Int_Tables_number       1
loop_
    _symmetry_equiv_pos_site_id
    _symmetry_equiv_pos_as_xyz
    1  x,y,z
loop_
    _atom_site_type_symbol
    _atom_site_label
    _atom_site_fract_x
    _atom_site_fract_y
    _atom_site_fract_z
    _atom_type_partial_charge
    O   O1    0.508811  0.566886  0.546124  -0.633624
    O   O2    0.508811  0.433114  0.546124  -0.633628
    O   O3    0.008811  0.066886  0.546124  -0.633619
    O   O4    0.008811  0.933114  0.546124  -0.633618
    O   O5    0.507731  0.566829  0.470461  -0.635901
    O   O6    0.507731  0.433171  0.470461  -0.635905
    O   O7    0.007731  0.066829  0.470461  -0.635893
    O   O8    0.007731  0.933171  0.470461  -0.635893
    C   C1    0.507761  0.589496  0.507768  0.877785
    C   C2    0.507761  0.410504  0.507768  0.877793
    C   C3    0.007761  0.089496  0.507768  0.877721
    C   C4    0.007761  0.910504  0.507768  0.877726
    O   O9    0.445950  0.500000  0.483560  -0.625687
    O   O10   0.945950  0.000000  0.483560  -0.625673
    O   O11   0.444870  0.500000  0.407658  -0.597852
    O   O12   0.944870  0.000000  0.407658  -0.597850
    C   C5    0.424094  0.500000  0.424352  0.781373
    C   C6    0.924094  0.000000  0.424352  0.781409
    Cu  Cu1   0.509760  0.500000  0.552506  1.054840
    Cu  Cu2   0.009760  0.000000  0.552506  1.054838
    Cu  Cu3   0.508523  0.500000  0.465815  1.060177
    Cu  Cu4   0.008523  0.000000  0.465815  1.060152
    O   O13   0.573619  0.500000  0.610842  -0.600483
    O   O14   0.073619  0.000000  0.610842  -0.600488
    O   O15   0.572535  0.500000  0.534984  -0.629795
    O   O16   0.072535  0.000000  0.534984  -0.629793
    C   C7    0.594498  0.500000  0.594273  0.817533
    C   C8    0.094498  0.000000  0.594273  0.817575
    C   C9    0.233677  0.535741  0.254786  -0.161186
    C   C10   0.233677  0.464259  0.254786  -0.161191
    C   C11   0.733677  0.035741  0.254786  -0.161195
    C   C12   0.733677  0.964259  0.254786  -0.161193
    C   C13   0.261582  0.535740  0.241743  -0.190337
    C   C14   0.261582  0.464260  0.241743  -0.190338
    C   C15   0.761582  0.035740  0.241743  -0.190326
    C   C16   0.761582  0.964260  0.241743  -0.190321
    H   H1    0.273950  0.565553  0.237031  0.087928
    H   H2    0.273950  0.434447  0.237031  0.087929
    H   H3    0.773950  0.065553  0.237031  0.087926
    H   H4    0.773950  0.934447  0.237031  0.087925
    H   H5    0.221309  0.565554  0.259497  0.074288
    H   H6    0.221309  0.434446  0.259497  0.074289
    H   H7    0.721309  0.065554  0.259497  0.074289
    H   H8    0.721309  0.934446  0.259497  0.074289
    H   H9    0.219824  0.500000  0.145476  0.082967
    H   H10   0.719824  0.000000  0.145476  0.082967
    C   C17   0.377006  0.500000  0.377390  -0.077763
    C   C18   0.877006  0.000000  0.377390  -0.077813
    C   C19   0.118252  0.500000  0.118952  -0.010995
    C   C20   0.618252  0.000000  0.118952  -0.010972
    C   C21   0.262393  0.500000  0.303910  -0.186925
    C   C22   0.762393  0.000000  0.303910  -0.186919
    C   C23   0.289579  0.500000  0.290150  0.730212
    C   C24   0.789579  0.000000  0.290150  0.730183
    C   C25   0.205681  0.500000  0.206380  0.768324
    C   C26   0.705681  0.000000  0.206380  0.768334
    C   C27   0.232869  0.500000  0.192623  -0.174825
    C   C28   0.732869  0.000000  0.192623  -0.174833
    C   C29   0.337599  0.500000  0.338076  -0.402763
    C   C30   0.837599  0.000000  0.338076  -0.402720
    C   C31   0.157660  0.500000  0.158390  -0.457061
    C   C32   0.657660  0.000000  0.158390  -0.457083
    H   H11   0.275438  0.500000  0.351056  0.088604
    H   H12   0.775438  0.000000  0.351056  0.088603
    C   C33   0.506129  0.639231  0.506115  -0.244399
    C   C34   0.506129  0.360769  0.506115  -0.244403
    C   C35   0.006129  0.139231  0.506115  -0.244325
    C   C36   0.006129  0.860769  0.506115  -0.244329
    C   C37   0.504583  0.680446  0.504566  0.115499
    C   C38   0.504583  0.319554  0.504566  0.115505
    C   C39   0.004583  0.180446  0.504566  0.115461
    C   C40   0.004583  0.819554  0.504566  0.115467
    C   C41   0.502666  0.729312  0.502653  -0.030200
    C   C42   0.502666  0.270688  0.502653  -0.030207
    C   C43   0.002666  0.229312  0.502653  -0.030200
    C   C44   0.002666  0.770688  0.502653  -0.030208
    C   C45   0.501071  0.770527  0.501067  0.011576
    C   C46   0.501071  0.229473  0.501067  0.011583
    C   C47   0.001071  0.270527  0.501067  0.011586
    C   C48   0.001071  0.729473  0.501067  0.011594
    C   C49   0.499314  0.819399  0.499322  0.063348
    C   C50   0.499314  0.180601  0.499322  0.063343
    C   C51   0.999314  0.319399  0.499322  0.063334
    C   C52   0.999314  0.680601  0.499322  0.063328
    C   C53   0.498123  0.860627  0.498145  -0.169499
    C   C54   0.498123  0.139373  0.498145  -0.169495
    C   C55   0.998123  0.360627  0.498145  -0.169479
    C   C56   0.998123  0.639373  0.498145  -0.169475
    C   C57   0.641787  0.500000  0.641427  -0.203526
    C   C58   0.141787  0.000000  0.641427  -0.203606
    C   C59   0.681319  0.500000  0.680851  0.098838
    C   C60   0.181319  0.000000  0.680851  0.098956
    C   C61   0.727836  0.500000  0.727251  -0.023882
    C   C62   0.227836  0.000000  0.727251  -0.024003
    C   C63   0.767371  0.500000  0.766704  0.018904
    C   C64   0.267371  0.000000  0.766704  0.018997
    C   C65   0.813889  0.500000  0.813161  0.051519
    C   C66   0.313889  0.000000  0.813161  0.051458
    C   C67   0.853423  0.500000  0.852692  -0.134056
    C   C68   0.353423  0.000000  0.852692  -0.134014
    O   O17   0.987126  0.537579  0.053921  -0.629013
    O   O18   0.987126  0.462421  0.053921  -0.629029
    O   O19   0.487126  0.037579  0.053921  -0.628972
    O   O20   0.487126  0.962421  0.053921  -0.628964
    C   C69   0.987639  0.500000  0.077138  0.834301
    C   C70   0.487639  0.000000  0.077138  0.834228
    O   O21   0.049833  0.537731  0.050270  -0.582886
    O   O22   0.049833  0.462269  0.050270  -0.582875
    O   O23   0.549833  0.037731  0.050270  -0.582898
    O   O24   0.549833  0.962269  0.050270  -0.582890
    C   C71   0.071161  0.500000  0.071735  0.687290
    C   C72   0.571161  0.000000  0.071735  0.687286
    Cu  Cu5   0.986093  0.543019  0.986043  1.070348
    Cu  Cu6   0.986093  0.456981  0.986043  1.070342
    Cu  Cu7   0.486093  0.043019  0.986043  1.070344
    Cu  Cu8   0.486093  0.956981  0.986043  1.070332
    O   O25   0.986725  0.537577  0.919843  -0.626226
    O   O26   0.986725  0.462423  0.919843  -0.626226
    O   O27   0.486725  0.037577  0.919843  -0.626228
    O   O28   0.486725  0.962423  0.919843  -0.626220
    O   O29   0.922147  0.537709  0.921628  -0.585028
    O   O30   0.922147  0.462291  0.921628  -0.585023
    O   O31   0.422147  0.037709  0.921628  -0.585022
    O   O32   0.422147  0.962291  0.921628  -0.585015
    C   C73   0.987166  0.500000  0.897585  0.829102
    C   C74   0.487166  0.000000  0.897585  0.829103
    C   C75   0.900715  0.500000  0.900072  0.716525
    C   C76   0.400715  0.000000  0.900072  0.716491
    O   O33   0.459850  0.000000  0.392767  -0.612976
    O   O34   0.959850  0.500000  0.392767  -0.612969
    O   O35   0.533353  0.000000  0.466866  -0.633738
    O   O36   0.033353  0.500000  0.466866  -0.633700
    C   C77   0.496454  0.000000  0.406939  0.808028
    C   C78   0.996454  0.500000  0.406939  0.807994
    O   O37   0.460458  0.932868  0.460038  -0.596066
    O   O38   0.460458  0.067132  0.460038  -0.596066
    O   O39   0.960458  0.432868  0.460038  -0.596056
    O   O40   0.960458  0.567132  0.460038  -0.596053
    O   O41   0.534030  0.933249  0.534554  -0.594010
    O   O42   0.534030  0.066751  0.534554  -0.594011
    O   O43   0.034030  0.433249  0.534554  -0.593982
    O   O44   0.034030  0.566751  0.534554  -0.593979
    C   C79   0.497420  0.910384  0.497464  0.763186
    C   C80   0.497420  0.089616  0.497464  0.763181
    C   C81   0.997420  0.410384  0.497464  0.763143
    C   C82   0.997420  0.589616  0.497464  0.763136
    Cu  Cu9   0.455024  0.000000  0.454552  1.052689
    Cu  Cu10  0.955024  0.500000  0.454552  1.052674
    Cu  Cu11  0.538770  0.000000  0.539375  1.058886
    Cu  Cu12  0.038770  0.500000  0.539375  1.058851
    O   O45   0.459740  0.000000  0.526004  -0.627310
    O   O46   0.959740  0.500000  0.526004  -0.627286
    O   O47   0.533244  0.000000  0.600803  -0.617432
    O   O48   0.033244  0.500000  0.600803  -0.617398
    C   C83   0.496307  0.000000  0.585945  0.807226
    C   C84   0.996307  0.500000  0.585945  0.807166
    C   C85   0.989082  0.500000  0.128389  -0.233649
    C   C86   0.489082  0.000000  0.128389  -0.233644
    C   C87   0.990397  0.500000  0.170869  0.126154
    C   C88   0.490397  0.000000  0.170869  0.126150
    C   C89   0.992008  0.500000  0.221410  -0.027372
    C   C90   0.492008  0.000000  0.221410  -0.027361
    C   C91   0.493342  0.000000  0.263909  -0.014732
    C   C92   0.993342  0.500000  0.263909  -0.014714
    C   C93   0.494824  0.000000  0.314325  0.103246
    C   C94   0.994824  0.500000  0.314325  0.103222
    C   C95   0.495842  0.000000  0.356512  -0.204192
    C   C96   0.995842  0.500000  0.356512  -0.204165
    C   C97   0.988577  0.500000  0.849218  -0.235849
    C   C98   0.488577  0.000000  0.849218  -0.235851
    C   C99   0.989917  0.500000  0.809424  0.129798
    C   C100  0.489917  0.000000  0.809424  0.129803
    C   C101  0.991584  0.500000  0.762199  -0.028535
    C   C102  0.491584  0.000000  0.762199  -0.028544
    C   C103  0.492975  0.000000  0.722457  -0.015777
    C   C104  0.992975  0.500000  0.722457  -0.015786
    C   C105  0.494532  0.000000  0.675116  0.109470
    C   C106  0.994532  0.500000  0.675116  0.109472
    C   C107  0.495614  0.000000  0.635054  -0.209985
    C   C108  0.995614  0.500000  0.635054  -0.209975
