# generated using pymatgen
data_CuH7C9N2O5
_symmetry_space_group_name_H-M   'P 1'
_cell_length_a   11.81358900
_cell_length_b   11.05353800
_cell_length_c   9.56181900
_cell_angle_alpha   90.02052700
_cell_angle_beta   90.01151300
_cell_angle_gamma   89.99558500
_symmetry_Int_Tables_number   1
_chemical_formula_structural   CuH7C9N2O5
_chemical_formula_sum   'Cu2 H14 C18 N4 O10'
_cell_volume   1248.60090865
_cell_formula_units_Z   2
loop_
 _symmetry_equiv_pos_site_id
 _symmetry_equiv_pos_as_xyz
  1  'x, y, z'
loop_
 _atom_site_type_symbol
 _atom_site_label
 _atom_site_symmetry_multiplicity
 _atom_site_fract_x
 _atom_site_fract_y
 _atom_site_fract_z
 _atom_site_occupancy
  Cu  Cu1  1  0.49993900  0.49053400  0.65008100  1
  Cu  Cu2  1  0.49876600  0.49189700  0.37009300  1
  H  H1  1  0.49803200  0.87956500  0.30122700  1
  H  H2  1  0.53254900  0.89642000  0.61762500  1
  H  H3  1  0.39793000  0.63620600  0.87678100  1
  H  H4  1  0.56172700  0.43773200  0.90958100  1
  H  H5  1  0.43717800  0.66488500  0.13423700  1
  H  H6  1  0.49866800  0.40849300  0.11327200  1
  H  H7  1  0.65469800  0.07370200  0.27076700  1
  H  H8  1  0.62672100  0.21407800  0.03791200  1
  H  H9  1  0.50129200  0.15172700  0.95657900  1
  H  H10  1  0.61413700  0.05221800  0.01255300  1
  H  H11  1  0.41376100  0.11436500  0.71360600  1
  H  H12  1  0.25255100  0.02320200  0.79422800  1
  H  H13  1  0.18520800  0.91932900  0.67462000  1
  H  H14  1  0.14462600  0.07703200  0.67527100  1
  C  C1  1  0.49016600  0.25846200  0.50826100  1
  C  C2  1  0.28235800  0.49983600  0.51214000  1
  C  C3  1  0.50768200  0.72332500  0.51205200  1
  C  C4  1  0.71640600  0.48379500  0.50794800  1
  C  C5  1  0.16096600  0.49805000  0.51203700  1
  C  C6  1  0.05906100  0.49450800  0.51094700  1
  C  C7  1  0.93969700  0.48946200  0.50922900  1
  C  C8  1  0.83779400  0.48582500  0.50811600  1
  C  C9  1  0.50558300  0.92338500  0.40217500  1
  C  C10  1  0.51500500  0.85557400  0.51710200  1
  C  C11  1  0.51673000  0.05659700  0.40403100  1
  C  C12  1  0.47374200  0.12617300  0.50741400  1
  C  C13  1  0.44945400  0.56988800  0.93073600  1
  C  C14  1  0.46105300  0.58039600  0.08506500  1
  C  C15  1  0.51246200  0.12523500  0.17687800  1
  C  C16  1  0.56721300  0.13648900  0.03717400  1
  C  C17  1  0.30365900  0.03905400  0.57899900  1
  C  C18  1  0.21639400  0.01327200  0.68782500  1
  N  N1  1  0.50075900  0.48763100  0.85934100  1
  N  N2  1  0.49571300  0.49167800  0.16080600  1
  N  N3  1  0.57651500  0.11032300  0.29221800  1
  N  N4  1  0.40881700  0.07444400  0.61665200  1
  O  O1  1  0.48899200  0.31510200  0.62893600  1
  O  O2  1  0.48945200  0.31634200  0.38893900  1
  O  O3  1  0.33526500  0.49387900  0.63242400  1
  O  O4  1  0.33465400  0.50218400  0.39137900  1
  O  O5  1  0.50317100  0.66634700  0.63167600  1
  O  O6  1  0.50084200  0.66774600  0.39103800  1
  O  O7  1  0.66394700  0.47934300  0.62823800  1
  O  O8  1  0.66343000  0.49027300  0.38804400  1
  O  O9  1  0.40965500  0.12956200  0.18671100  1
  O  O10  1  0.27851000  0.02981600  0.45579000  1
