# generated using pymatgen
data_CuH37C31NO9
_symmetry_space_group_name_H-M   'P 1'
_cell_length_a   12.98621800
_cell_length_b   16.03320200
_cell_length_c   14.61795400
_cell_angle_alpha   90.00926900
_cell_angle_beta   95.52769800
_cell_angle_gamma   89.99665900
_symmetry_Int_Tables_number   1
_chemical_formula_structural   CuH37C31NO9
_chemical_formula_sum   'Cu2 H74 C62 N2 O18'
_cell_volume   3029.46018468
_cell_formula_units_Z   2
loop_
 _symmetry_equiv_pos_site_id
 _symmetry_equiv_pos_as_xyz
  1  'x, y, z'
loop_
 _atom_site_type_symbol
 _atom_site_label
 _atom_site_symmetry_multiplicity
 _atom_site_fract_x
 _atom_site_fract_y
 _atom_site_fract_z
 _atom_site_occupancy
  Cu  Cu1  1  0.50868900  0.49640000  0.59125800  1
  Cu  Cu2  1  0.51002500  0.49603300  0.40847500  1
  H  H1  1  0.83052500  0.50971300  0.38493000  1
  H  H2  1  0.18732100  0.49046700  0.61399900  1
  H  H3  1  0.57256700  0.61774300  0.92034600  1
  H  H4  1  0.44264000  0.37482100  0.07927100  1
  H  H5  1  0.88768200  0.34505600  0.65158700  1
  H  H6  1  0.75193900  0.34944300  0.66826000  1
  H  H7  1  0.92860000  0.37342000  0.82147000  1
  H  H8  1  0.79171000  0.36617700  0.83406200  1
  H  H9  1  0.79098600  0.22205300  0.76621500  1
  H  H10  1  0.87619400  0.23148100  0.87116800  1
  H  H11  1  0.92947900  0.22991800  0.76141200  1
  H  H12  1  0.29689600  0.63969700  0.34248200  1
  H  H13  1  0.16483500  0.66791200  0.35113000  1
  H  H14  1  0.27426100  0.63354400  0.17748200  1
  H  H15  1  0.13600600  0.64581600  0.17512000  1
  H  H16  1  0.15980200  0.78649000  0.24463000  1
  H  H17  1  0.22291600  0.77873300  0.14005200  1
  H  H18  1  0.29895700  0.77395400  0.25035600  1
  H  H19  1  0.00631700  0.66207200  0.27652400  1
  H  H20  1  0.90132700  0.63906900  0.34351800  1
  H  H21  1  0.90855000  0.60249900  0.13820700  1
  H  H22  1  0.80103200  0.58136700  0.20480100  1
  H  H23  1  0.78518500  0.73129500  0.23883600  1
  H  H24  1  0.77940400  0.71458400  0.11609000  1
  H  H25  1  0.89662600  0.75421100  0.17736600  1
  H  H26  1  0.96918300  0.56050500  0.78661000  1
  H  H27  1  0.03149800  0.60716300  0.69353400  1
  H  H28  1  0.13980900  0.52103700  0.86410000  1
  H  H29  1  0.20333300  0.56592000  0.77086000  1
  H  H30  1  0.12852800  0.70453300  0.80252400  1
  H  H31  1  0.20422800  0.66345500  0.90275100  1
  H  H32  1  0.06453300  0.65958200  0.89568300  1
  H  H33  1  0.55764800  0.17475000  0.68568100  1
  H  H34  1  0.60514700  0.07042800  0.70845200  1
  H  H35  1  0.44192200  0.16485100  0.80742600  1
  H  H36  1  0.48123900  0.05856600  0.83138900  1
  H  H37  1  0.66345400  0.10700600  0.86960400  1
  H  H38  1  0.57459800  0.15545700  0.94142700  1
  H  H39  1  0.62131800  0.21357600  0.84787500  1
  H  H40  1  0.71504100  0.83756000  0.39372200  1
  H  H41  1  0.72511900  0.94307800  0.43699800  1
  H  H42  1  0.72326300  0.89008900  0.23484300  1
  H  H43  1  0.73162800  0.99600500  0.27740500  1
  H  H44  1  0.89444900  0.96254100  0.37234300  1
  H  H45  1  0.90477000  0.93838100  0.25273900  1
  H  H46  1  0.88612500  0.85536800  0.33322500  1
  H  H47  1  0.56203300  0.93956400  0.77380600  1
  H  H48  1  0.63009100  0.90597000  0.67836000  1
  H  H49  1  0.49623800  0.79866400  0.79483100  1
  H  H50  1  0.55771800  0.76189800  0.69666200  1
  H  H51  1  0.72967800  0.80250900  0.77340400  1
  H  H52  1  0.66428200  0.72912600  0.84148800  1
  H  H53  1  0.66812200  0.83838800  0.87229100  1
  H  H54  1  0.45051100  0.15450600  0.29905400  1
  H  H55  1  0.42296500  0.04555800  0.31649700  1
  H  H56  1  0.56425700  0.11542400  0.17785000  1
  H  H57  1  0.53383000  0.00667800  0.19423400  1
  H  H58  1  0.34745900  0.03650700  0.15245100  1
  H  H59  1  0.42518100  0.06717300  0.06190700  1
  H  H60  1  0.37759200  0.14555600  0.13616900  1
  H  H61  1  0.48204200  0.69623000  0.17463500  1
  H  H62  1  0.43017800  0.66560500  0.06065400  1
  H  H63  1  0.60140300  0.79568800  0.10673700  1
  H  H64  1  0.54749700  0.76563400  0.99281100  1
  H  H65  1  0.37323400  0.81249400  0.03051500  1
  H  H66  1  0.46746000  0.89578300  0.04177600  1
  H  H67  1  0.42933900  0.84466100  0.14338900  1
  H  H68  1  0.30644400  0.38066100  0.80611100  1
  H  H69  1  0.30029300  0.42911600  0.91685200  1
  H  H70  1  0.29193700  0.24081200  0.87740000  1
  H  H71  1  0.28657700  0.28916700  0.98862600  1
  H  H72  1  0.12703500  0.36501900  0.93005000  1
  H  H73  1  0.11117900  0.25361200  0.91585600  1
  H  H74  1  0.13276100  0.31796700  0.81796300  1
  C  C1  1  0.50042100  0.33625400  0.49933100  1
  C  C2  1  0.51891400  0.65613700  0.50052400  1
  C  C3  1  0.31026400  0.50634000  0.48135600  1
  C  C4  1  0.70851300  0.48879200  0.51833400  1
  C  C5  1  0.82273600  0.48895600  0.52789000  1
  C  C6  1  0.19637600  0.51511200  0.47181500  1
  C  C7  1  0.03247100  0.53113500  0.38105200  1
  C  C8  1  0.98607200  0.48773600  0.61994500  1
  C  C9  1  0.14008300  0.53346200  0.38814000  1
  C  C10  1  0.87964600  0.47832500  0.61246700  1
  C  C11  1  0.14405300  0.50312500  0.54876900  1
  C  C12  1  0.87449800  0.50357600  0.45098800  1
  C  C13  1  0.03714200  0.50214700  0.54234400  1
  C  C14  1  0.98127500  0.51224000  0.45794300  1
  C  C15  1  0.49987800  0.95228600  0.58306700  1
  C  C16  1  0.54752700  0.04032200  0.42972200  1
  C  C17  1  0.52896700  0.91041900  0.50672500  1
  C  C18  1  0.51540000  0.08232400  0.50447500  1
  C  C19  1  0.55753200  0.95451600  0.43210700  1
  C  C20  1  0.49331300  0.03875800  0.58215700  1
  C  C21  1  0.52641500  0.82078800  0.50361100  1
  C  C22  1  0.50661900  0.17168700  0.50130200  1
  C  C23  1  0.50204500  0.24676900  0.49970100  1
  C  C24  1  0.52331000  0.74563600  0.50132800  1
  C  C25  1  0.54268400  0.56491800  0.95522800  1
  C  C26  1  0.46990800  0.42863300  0.04415600  1
  C  C27  1  0.50501400  0.49675600  0.90514000  1
  C  C28  1  0.50720700  0.49699600  0.09414700  1
  C  C29  1  0.46700900  0.42890500  0.94946000  1
  C  C30  1  0.54212600  0.56587400  0.04962000  1
  C  C31  1  0.50634400  0.49656900  0.80702800  1
  C  C32  1  0.50968800  0.49623200  0.19251000  1
  C  C33  1  0.82995500  0.37229700  0.69409400  1
  C  C34  1  0.85442800  0.34509600  0.79310000  1
  C  C35  1  0.86328300  0.25092500  0.79816100  1
  C  C36  1  0.21671800  0.63120100  0.31075300  1
  C  C37  1  0.21137500  0.66276300  0.21255700  1
  C  C38  1  0.22414100  0.75668600  0.21203600  1
  C  C39  1  0.94201200  0.61873900  0.28420200  1
  C  C40  1  0.86792200  0.62305000  0.19765000  1
  C  C41  1  0.82990500  0.71167700  0.18162100  1
  C  C42  1  0.03721800  0.55732900  0.74636300  1
  C  C43  1  0.13483900  0.57009300  0.81043400  1
  C  C44  1  0.13271700  0.65503600  0.85573800  1
  C  C45  1  0.53711500  0.11192000  0.70961200  1
  C  C46  1  0.50672200  0.11989200  0.80689300  1
  C  C47  1  0.59766600  0.15101100  0.87048600  1
  C  C48  1  0.69685000  0.90379500  0.37736400  1
  C  C49  1  0.75041200  0.93000000  0.29427600  1
  C  C50  1  0.86654500  0.92091000  0.31461800  1
  C  C51  1  0.56070500  0.89553600  0.71549400  1
  C  C52  1  0.56279600  0.80757400  0.75365600  1
  C  C53  1  0.66279400  0.79362700  0.81418300  1
  C  C54  1  0.48155800  0.09026000  0.29575000  1
  C  C55  1  0.50460400  0.07142800  0.19812500  1
  C  C56  1  0.40718100  0.08083400  0.13302300  1
  C  C57  1  0.50002000  0.68903300  0.10240700  1
  C  C58  1  0.53100900  0.77278200  0.06539300  1
  C  C59  1  0.44440300  0.83541500  0.07069400  1
  C  C60  1  0.32499400  0.37253900  0.88123400  1
  C  C61  1  0.26777800  0.29727900  0.91353900  1
  C  C62  1  0.15212900  0.30940500  0.89292900  1
  N  N1  1  0.51111000  0.49581200  0.27175900  1
  N  N2  1  0.50739700  0.49658500  0.72796500  1
  O  O1  1  0.50495900  0.37519400  0.57820400  1
  O  O2  1  0.51305600  0.61730900  0.42129500  1
  O  O3  1  0.49966300  0.37509500  0.42062800  1
  O  O4  1  0.52002100  0.61728100  0.57939200  1
  O  O5  1  0.35882200  0.50535000  0.56428700  1
  O  O6  1  0.66023800  0.49321000  0.43544800  1
  O  O7  1  0.35988900  0.50407000  0.40752600  1
  O  O8  1  0.65913800  0.49299000  0.59233700  1
  O  O9  1  0.83197300  0.45945500  0.68951500  1
  O  O10  1  0.18926700  0.54660700  0.31033800  1
  O  O11  1  0.97847800  0.53662600  0.29560400  1
  O  O12  1  0.04077000  0.47911500  0.70437100  1
  O  O13  1  0.45315100  0.08002800  0.65299100  1
  O  O14  1  0.58984200  0.91292200  0.35821400  1
  O  O15  1  0.47047900  0.90785300  0.65645700  1
  O  O16  1  0.57283900  0.08399200  0.35451700  1
  O  O17  1  0.58190700  0.63281600  0.09929900  1
  O  O18  1  0.43150100  0.36038700  0.90020500  1
