data_DB0-m3_o96_o159_f0_fsc.sym.27_repeat
_audit_creation_date              2024-02-23
_audit_creation_method            'Materials Studio'
_symmetry_space_group_name_H-M    'P1'
_symmetry_Int_Tables_number       1
_symmetry_cell_setting            triclinic
loop_
_symmetry_equiv_pos_as_xyz
  x,y,z
_cell_length_a                    13.3949
_cell_length_b                    13.3195
_cell_length_c                    16.2150
_cell_angle_alpha                 94.7361
_cell_angle_beta                  90.0465
_cell_angle_gamma                 90.6180
loop_
_atom_site_label
_atom_site_type_symbol
_atom_site_fract_x
_atom_site_fract_y
_atom_site_fract_z
_atom_site_U_iso_or_equiv
_atom_site_adp_type
_atom_site_occupancy
C1     C     0.82413   0.03065   0.21716   0.00000  Uiso   1.00
C2     C     0.76256   0.07030   0.16159   0.00000  Uiso   1.00
C3     C     0.81238   0.06951   0.08756   0.00000  Uiso   1.00
N1     N     0.90574   0.03466   0.09672   0.00000  Uiso   1.00
C4     C     0.91408   0.01253   0.17666   0.00000  Uiso   1.00
C5     C     0.76988   0.09218   0.01659   0.00000  Uiso   1.00
C6     C     0.81115   0.06939   0.93317   0.00000  Uiso   1.00
C7     C     0.75473   0.05542   0.86177   0.00000  Uiso   1.00
C8     C     0.81801   0.03225   0.79744   0.00000  Uiso   1.00
C9     C     0.91374   0.03359   0.83152   0.00000  Uiso   1.00
N2     N     0.90821   0.05771   0.91417   0.00000  Uiso   1.00
C10    C     0.00823   0.01771   0.78616   0.00000  Uiso   1.00
C11    C     0.09203   0.98739   0.82160   0.00000  Uiso   1.00
C12    C     0.18171   0.96950   0.78148   0.00000  Uiso   1.00
C13    C     0.24356   0.92993   0.83659   0.00000  Uiso   1.00
C14    C     0.19359   0.92980   0.91041   0.00000  Uiso   1.00
N3     N     0.10004   0.96450   0.90137   0.00000  Uiso   1.00
C15    C     0.23636   0.90711   0.98117   0.00000  Uiso   1.00
C16    C     0.19526   0.93085   0.06433   0.00000  Uiso   1.00
C17    C     0.25171   0.94618   0.13562   0.00000  Uiso   1.00
C18    C     0.18835   0.97047   0.19955   0.00000  Uiso   1.00
C19    C     0.09286   0.96854   0.16548   0.00000  Uiso   1.00
N4     N     0.09818   0.94285   0.08313   0.00000  Uiso   1.00
C20    C     0.99919   0.98433   0.21143   0.00000  Uiso   1.00
H1     H     0.69376   0.11761   0.01872   0.00000  Uiso   1.00
H2     H     0.00790   0.02658   0.72040   0.00000  Uiso   1.00
H3     H     0.31259   0.88193   0.97900   0.00000  Uiso   1.00
H4     H     0.00295   0.97834   0.27723   0.00000  Uiso   1.00
H5     H     0.96719   0.07264   0.95524   0.00000  Uiso   1.00
H6     H     0.03907   0.92705   0.04235   0.00000  Uiso   1.00
C21    C     0.35262   0.93835   0.14743   0.00000  Uiso   1.00
C22    C     0.38887   0.95440   0.22710   0.00000  Uiso   1.00
C23    C     0.32649   0.98198   0.29340   0.00000  Uiso   1.00
C24    C     0.22385   0.99033   0.28007   0.00000  Uiso   1.00
C25    C     0.78902   0.00974   0.29445   0.00000  Uiso   1.00
C26    C     0.69164   0.03658   0.31386   0.00000  Uiso   1.00
C27    C     0.63367   0.08531   0.25899   0.00000  Uiso   1.00
C28    C     0.66737   0.10006   0.18123   0.00000  Uiso   1.00
C29    C     0.65375   0.06343   0.85041   0.00000  Uiso   1.00
C30    C     0.61697   0.04838   0.77089   0.00000  Uiso   1.00
C31    C     0.67879   0.02147   0.70413   0.00000  Uiso   1.00
C32    C     0.78180   0.01327   0.71691   0.00000  Uiso   1.00
C33    C     0.21488   0.99089   0.70424   0.00000  Uiso   1.00
C34    C     0.31265   0.96620   0.68455   0.00000  Uiso   1.00
C35    C     0.37203   0.91821   0.73902   0.00000  Uiso   1.00
C36    C     0.33908   0.90185   0.81669   0.00000  Uiso   1.00
H7     H     0.40299   0.91782   0.09704   0.00000  Uiso   1.00
H8     H     0.17381   0.00886   0.33118   0.00000  Uiso   1.00
H9     H     0.55850   0.10762   0.27555   0.00000  Uiso   1.00
H10    H     0.61873   0.13393   0.13855   0.00000  Uiso   1.00
H11    H     0.60359   0.08312   0.90111   0.00000  Uiso   1.00
H12    H     0.83158   0.99524   0.66553   0.00000  Uiso   1.00
H13    H     0.16811   0.02652   0.66111   0.00000  Uiso   1.00
H14    H     0.44740   0.89722   0.72199   0.00000  Uiso   1.00
H15    H     0.38846   0.86838   0.85905   0.00000  Uiso   1.00
H16    H     0.46758   0.94478   0.23803   0.00000  Uiso   1.00
H17    H     0.53816   0.05800   0.76047   0.00000  Uiso   1.00
O1     O     0.39341   0.08113   0.41280   0.00000  Uiso   1.00
O2     O     0.41559   0.90982   0.39925   0.00000  Uiso   1.00
C37    C     0.37379   0.99126   0.37589   0.00000  Uiso   1.00
O3     O     0.62144   0.92589   0.40729   0.00000  Uiso   1.00
O4     O     0.59989   0.09782   0.42740   0.00000  Uiso   1.00
C38    C     0.64368   0.01890   0.39147   0.00000  Uiso   1.00
O5     O     0.60996   0.92199   0.58540   0.00000  Uiso   1.00
O6     O     0.58815   0.09371   0.59873   0.00000  Uiso   1.00
C39    C     0.63011   0.01208   0.62202   0.00000  Uiso   1.00
O7     O     0.38195   0.07709   0.59100   0.00000  Uiso   1.00
O8     O     0.40323   0.90562   0.57062   0.00000  Uiso   1.00
C40    C     0.35926   0.98422   0.60659   0.00000  Uiso   1.00
Zn1    Zn    0.51601   0.89044   0.48902   0.00000  Uiso   1.00
Zn2    Zn    0.48727   0.11277   0.50920   0.00000  Uiso   1.00
C41    C     0.56697   0.29497   0.53020   0.00000  Uiso   1.00
N5     N     0.47950   0.24459   0.51946   0.00000  Uiso   1.00
C42    C     0.39619   0.29430   0.50264   0.00000  Uiso   1.00
C43    C     0.39959   0.39686   0.49522   0.00000  Uiso   1.00
C44    C     0.48982   0.45012   0.50366   0.00000  Uiso   1.00
C45    C     0.57345   0.39722   0.52297   0.00000  Uiso   1.00
C46    C     0.42050   0.61151   0.47197   0.00000  Uiso   1.00
C47    C     0.49987   0.55325   0.49302   0.00000  Uiso   1.00
C48    C     0.59216   0.60085   0.50435   0.00000  Uiso   1.00
C49    C     0.67421   0.54652   0.52459   0.00000  Uiso   1.00
C50    C     0.66501   0.44507   0.53315   0.00000  Uiso   1.00
C51    C     0.43343   0.71293   0.46613   0.00000  Uiso   1.00
N6     N     0.52310   0.75851   0.47878   0.00000  Uiso   1.00
C52    C     0.60256   0.70370   0.49752   0.00000  Uiso   1.00
H18    H     0.32649   0.25360   0.49217   0.00000  Uiso   1.00
H19    H     0.67376   0.74068   0.51031   0.00000  Uiso   1.00
H20    H     0.74628   0.58311   0.53354   0.00000  Uiso   1.00
H21    H     0.73028   0.40318   0.54824   0.00000  Uiso   1.00
H22    H     0.32995   0.43100   0.48113   0.00000  Uiso   1.00
H23    H     0.34599   0.58254   0.46153   0.00000  Uiso   1.00
H24    H     0.63453   0.25449   0.54073   0.00000  Uiso   1.00
H25    H     0.36786   0.75611   0.45522   0.00000  Uiso   1.00
N7     N     0.84818   0.95998   0.35136   0.00000  Uiso   1.00
H26    H     0.81277   0.89217   0.36231   0.00000  Uiso   1.00
H27    H     0.85234   0.00576   0.40674   0.00000  Uiso   1.00
