# generated using pymatgen
data_ZnH9C14NO4
_symmetry_space_group_name_H-M   'P 1'
_cell_length_a   10.22006600
_cell_length_b   8.45544300
_cell_length_c   15.11587900
_cell_angle_alpha   90.00000000
_cell_angle_beta   98.68505200
_cell_angle_gamma   90.00000000
_symmetry_Int_Tables_number   1
_chemical_formula_structural   ZnH9C14NO4
_chemical_formula_sum   'Zn2 H18 C28 N2 O8'
_cell_volume   1291.26322954
_cell_formula_units_Z   2
loop_
 _symmetry_equiv_pos_site_id
 _symmetry_equiv_pos_as_xyz
  1  'x, y, z'
loop_
 _atom_site_type_symbol
 _atom_site_label
 _atom_site_symmetry_multiplicity
 _atom_site_fract_x
 _atom_site_fract_y
 _atom_site_fract_z
 _atom_site_occupancy
  Zn  Zn1  1  0.14566600  0.50007900  0.49880200  1
  Zn  Zn2  1  0.85433300  0.49992200  0.50119900  1
  H  H1  1  0.93275700  0.00165300  0.43247200  1
  H  H2  1  0.06724300  0.99834700  0.56752900  1
  H  H3  1  0.82512200  0.15299500  0.05593500  1
  H  H4  1  0.17487800  0.84700500  0.94406500  1
  H  H5  1  0.84024400  0.15288600  0.89570000  1
  H  H6  1  0.15975600  0.84711400  0.10430000  1
  H  H7  1  0.05202500  0.27908200  0.12894200  1
  H  H8  1  0.90275400  0.35414300  0.16545000  1
  H  H9  1  0.06223800  0.37348900  0.23492100  1
  H  H10  1  0.94797500  0.72091800  0.87105800  1
  H  H11  1  0.93776100  0.62651100  0.76507900  1
  H  H12  1  0.09724600  0.64585700  0.83455000  1
  H  H13  1  0.06635200  0.28803600  0.88654600  1
  H  H14  1  0.08608400  0.38312900  0.78416500  1
  H  H15  1  0.92115600  0.34344800  0.80726300  1
  H  H16  1  0.93364800  0.71196400  0.11345500  1
  H  H17  1  0.07884400  0.65655200  0.19273700  1
  H  H18  1  0.91391500  0.61687100  0.21583500  1
  C  C1  1  0.95729800  0.14203700  0.31977700  1
  C  C2  1  0.04270200  0.85796300  0.68022300  1
  C  C3  1  0.04282100  0.14057200  0.67948500  1
  C  C4  1  0.95717800  0.85942800  0.32051500  1
  C  C5  1  0.97728500  0.14218400  0.23134700  1
  C  C6  1  0.02271500  0.85781600  0.76865300  1
  C  C7  1  0.02640600  0.14260900  0.76848700  1
  C  C8  1  0.97359400  0.85739100  0.23151300  1
  C  C9  1  0.98022300  0.99941300  0.18590800  1
  C  C10  1  0.01977700  0.00058700  0.81409200  1
  C  C11  1  0.94354800  0.00108200  0.36259600  1
  C  C12  1  0.05645200  0.99891800  0.63740400  1
  C  C13  1  0.90266300  0.08656000  0.03154300  1
  C  C14  1  0.09733700  0.91344000  0.96845700  1
  C  C15  1  0.91151500  0.08703700  0.94141200  1
  C  C16  1  0.08848400  0.91296400  0.05858800  1
  C  C17  1  0.00918600  0.00078300  0.90964600  1
  C  C18  1  0.99081400  0.99921800  0.09035400  1
  C  C19  1  0.43064400  0.50008300  0.49870400  1
  C  C20  1  0.56935600  0.49991700  0.50129600  1
  C  C21  1  0.97018900  0.28515300  0.37465500  1
  C  C22  1  0.02981100  0.71484700  0.62534500  1
  C  C23  1  0.02985000  0.28341000  0.62433800  1
  C  C24  1  0.97015000  0.71659000  0.37566200  1
  C  C25  1  0.99934900  0.29576100  0.18710200  1
  C  C26  1  0.00065100  0.70423900  0.81289800  1
  C  C27  1  0.02395100  0.29795600  0.81487200  1
  C  C28  1  0.97604800  0.70204400  0.18512800  1
  N  N1  1  0.31706500  0.50022000  0.49697100  1
  N  N2  1  0.68293500  0.49978000  0.50302900  1
  O  O1  1  0.86434800  0.33964200  0.40399300  1
  O  O2  1  0.13565200  0.66035800  0.59600700  1
  O  O3  1  0.13571400  0.33849000  0.59533500  1
  O  O4  1  0.86428600  0.66151100  0.40466500  1
  O  O5  1  0.09041700  0.33364000  0.40550700  1
  O  O6  1  0.90958200  0.66636000  0.59449300  1
  O  O7  1  0.90963300  0.33237000  0.59382900  1
  O  O8  1  0.09036700  0.66763000  0.40617100  1
