# Generated by REPEAT Assigner based on pymatgen
data_DB0-m9_o20_o25_f0_sra.sym.45
_audit_creation_date              2022-05-24
_audit_creation_method            REPEAT_Assigner
_cell_length_a                    6.343706
_cell_length_b                    18.847050
_cell_length_c                    21.172530
_cell_angle_alpha                 90.635503
_cell_angle_beta                  89.928190
_cell_angle_gamma                 90.005148
_cell_volume                      2531.232937
_symmetry_space_group_name_H-M    P1
_symmetry_Int_Tables_number       1
loop_
    _symmetry_equiv_pos_site_id
    _symmetry_equiv_pos_as_xyz
    1  x,y,z
loop_
    _atom_site_type_symbol
    _atom_site_label
    _atom_site_fract_x
    _atom_site_fract_y
    _atom_site_fract_z
    _atom_type_partial_charge
    O  O1   0.634541  0.289928  0.655010  -0.592499
    O  O2   0.361603  0.713242  0.348033  -0.594819
    O  O3   0.259110  0.304096  0.826405  -0.598407
    O  O4   0.736889  0.696084  0.176825  -0.595045
    O  O5   0.051783  0.188095  0.779497  -0.372430
    O  O6   0.944345  0.812880  0.221937  -0.377350
    C  C1   0.434243  0.340883  0.828084  0.950886
    C  C2   0.561375  0.659521  0.175581  0.964519
    O  O7   0.354859  0.346928  0.702723  -0.447987
    O  O8   0.641221  0.655580  0.301130  -0.451757
    O  O9   0.140179  0.230237  0.656011  -0.583728
    O  O10  0.856023  0.773036  0.346141  -0.588104
    C  C3   0.465109  0.329937  0.651876  0.861068
    C  C4   0.532375  0.673963  0.351869  0.853900
    O  O11  0.555849  0.344314  0.777478  -0.465802
    O  O12  0.440267  0.656769  0.226335  -0.464845
    O  O13  0.449679  0.209929  0.742465  -0.566320
    O  O14  0.546397  0.791740  0.259445  -0.541104
    V  V1   0.175432  0.272932  0.740638  1.168225
    V  V2   0.820713  0.728819  0.262125  1.178415
    O  O15  0.850398  0.178136  0.705567  -0.521727
    O  O16  0.145555  0.824172  0.295834  -0.510202
    C  C5   0.977677  0.185542  0.655348  0.848310
    C  C6   0.019257  0.817402  0.346334  0.849576
    O  O17  0.765903  0.232879  0.828099  -0.695890
    O  O18  0.230365  0.767089  0.174106  -0.651831
    C  C7   0.945372  0.200380  0.830652  0.848012
    C  C8   0.051324  0.799730  0.170997  0.776477
    V  V3   0.675453  0.255865  0.741573  1.404469
    V  V4   0.320613  0.745817  0.261003  1.387456
    O  O19  0.950007  0.318723  0.737422  -0.522856
    O  O20  0.046064  0.683055  0.266018  -0.525284
    C  C9   0.090738  0.019438  0.052641  0.008374
    C  C10  0.913184  0.978443  0.946648  -0.218255
    C  C11  0.891398  0.050847  0.026076  -0.125490
    C  C12  0.110747  0.946503  0.973022  -0.067663
    C  C13  0.969317  0.151902  0.879852  -0.311714
    C  C14  0.029338  0.847456  0.121105  -0.213805
    C  C15  0.198174  0.019718  0.988692  -0.080329
    C  C16  0.804867  0.977563  0.010180  -0.006683
    C  C17  0.998516  0.050780  0.962705  0.449844
    C  C18  0.004604  0.946959  0.036730  0.398723
    C  C19  0.985054  0.107511  0.918781  -0.122503
    C  C20  0.016915  0.891146  0.081406  -0.216444
    C  C21  0.016258  0.874736  0.393713  -0.328141
    C  C22  0.982015  0.128573  0.607621  -0.313309
    C  C23  0.011089  0.922280  0.433511  0.153299
    C  C24  0.987871  0.081199  0.567669  0.137239
    C  C25  0.003258  0.978121  0.480563  -0.042629
    C  C26  0.996090  0.025445  0.520542  -0.031965
    C  C27  0.461132  0.391587  0.880460  -0.416980
    C  C28  0.533411  0.608511  0.123497  -0.447184
    C  C29  0.476929  0.432552  0.925435  0.193620
    C  C30  0.517241  0.567425  0.078624  0.224678
    C  C31  0.491372  0.479948  0.979171  -0.042748
    C  C32  0.502670  0.519976  0.024930  -0.070272
    C  C33  0.468043  0.380574  0.603566  -0.321177
    C  C34  0.531950  0.624880  0.401442  -0.301476
    C  C35  0.477470  0.425731  0.564937  0.154961
    C  C36  0.524289  0.580694  0.440982  0.135425
    C  C37  0.493889  0.480071  0.521676  -0.039800
    C  C38  0.509072  0.526952  0.484866  -0.021067
    C  C39  0.798156  0.119915  0.051163  -0.227831
    C  C40  0.655842  0.107809  0.107421  0.368469
    C  C41  0.513379  0.171780  0.115872  -0.362176
    H  H1   0.611766  0.220323  0.119071  0.086595
    H  H2   0.406237  0.176163  0.074734  0.072486
    H  H3   0.421145  0.166949  0.160168  0.076282
    H  H4   0.563776  0.058689  0.099558  -0.131779
    H  H5   0.749834  0.102101  0.150976  -0.016047
    H  H6   0.928493  0.155739  0.065682  0.054387
    H  H7   0.709944  0.146680  0.013240  0.052393
    C  C42  0.197232  0.877040  0.946879  -0.059781
    C  C43  0.302762  0.887664  0.883675  0.157574
    C  C44  0.466987  0.830441  0.873078  -0.402236
    H  H8   0.587162  0.833477  0.911003  0.084394
    H  H9   0.389944  0.777634  0.873763  0.102588
    H  H10  0.544067  0.838230  0.826620  0.083661
    H  H11  0.182916  0.883842  0.845724  0.038991
    H  H12  0.378368  0.940452  0.883151  -0.021777
    H  H13  0.307049  0.853280  0.980777  0.037054
    H  H14  0.064722  0.839274  0.940453  0.013727
    C  C45  0.168441  0.043055  0.117535  -0.204356
    C  C46  0.277085  0.984360  0.153591  0.236932
    C  C47  0.322444  0.010507  0.220064  -0.422122
    H  H15  0.428150  0.057304  0.218195  0.081623
    H  H16  0.172528  0.025649  0.243604  0.101572
    H  H17  0.399888  0.967725  0.247086  0.095640
    H  H18  0.170619  0.937918  0.156329  0.058889
    H  H19  0.427910  0.969059  0.131226  -0.007947
    H  H20  0.270950  0.089936  0.112837  0.101564
    H  H21  0.030856  0.059187  0.146084  0.035458
    C  C48  0.827841  0.961143  0.881424  0.023756
    C  C49  0.961975  0.997418  0.832016  0.010175
    C  C50  0.905375  0.968776  0.767135  -0.383252
    H  H22  0.935269  0.910821  0.765237  0.074920
    H  H23  0.736296  0.979066  0.757651  0.082412
    H  H24  0.003091  0.995441  0.730988  0.118107
    H  H25  0.932595  0.055369  0.833762  0.105329
    H  H26  0.131150  0.987989  0.841368  0.006640
    H  H27  0.830696  0.902879  0.873564  0.070188
    H  H28  0.665071  0.980913  0.876771  0.043216
    C  C51  0.603492  0.937111  0.022380  0.206309
    C  C52  0.651678  0.878543  0.069220  -0.128878
    C  C53  0.458050  0.837704  0.087951  -0.062449
    H  H29  0.329149  0.875592  0.095349  0.039868
    H  H30  0.418165  0.797456  0.051387  0.017439
    H  H31  0.491080  0.809951  0.132741  0.020473
    H  H32  0.761032  0.839762  0.046989  0.060265
    H  H33  0.716654  0.902994  0.112907  0.026978
    H  H34  0.478249  0.973113  0.039936  -0.072869
    H  H35  0.556743  0.912761  0.976817  -0.035047
    C  C54  0.403705  0.054771  0.970905  0.151909
    C  C55  0.362546  0.106733  0.918149  -0.124915
    C  C56  0.568246  0.133145  0.890858  -0.245305
    H  H36  0.642073  0.171751  0.923866  0.109282
    H  H37  0.676039  0.087801  0.882684  0.071004
    H  H38  0.536003  0.159619  0.845383  0.107486
    H  H39  0.271656  0.079558  0.880274  0.008427
    H  H40  0.271963  0.152717  0.936798  0.049476
    H  H41  0.463584  0.083645  0.012771  0.003711
    H  H42  0.519530  0.014769  0.954751  0.021264
