# generated using pymatgen
data_ZnH14C24(NO3)2
_symmetry_space_group_name_H-M   'P 1'
_cell_length_a   19.43239600
_cell_length_b   18.26228800
_cell_length_c   11.00907200
_cell_angle_alpha   90.00000000
_cell_angle_beta   90.00636200
_cell_angle_gamma   90.00000000
_symmetry_Int_Tables_number   1
_chemical_formula_structural   ZnH14C24(NO3)2
_chemical_formula_sum   'Zn2 H28 C48 N4 O12'
_cell_volume   3906.89958249
_cell_formula_units_Z   2
loop_
 _symmetry_equiv_pos_site_id
 _symmetry_equiv_pos_as_xyz
  1  'x, y, z'
loop_
 _atom_site_type_symbol
 _atom_site_label
 _atom_site_symmetry_multiplicity
 _atom_site_fract_x
 _atom_site_fract_y
 _atom_site_fract_z
 _atom_site_occupancy
  Zn  Zn1  1  0.49999700  0.58571700  0.49999700  1
  Zn  Zn2  1  0.49999700  0.41963900  0.50000200  1
  H  H1  1  0.50274400  0.38835900  0.10953600  1
  H  H2  1  0.49720000  0.38836300  0.89046100  1
  H  H3  1  0.56183200  0.64020200  0.19246000  1
  H  H4  1  0.43823600  0.64024700  0.80755600  1
  H  H5  1  0.53325700  0.75368700  0.09496200  1
  H  H6  1  0.46687400  0.75371100  0.90506200  1
  H  H7  1  0.72025500  0.41169100  0.62566100  1
  H  H8  1  0.27974000  0.41168900  0.37434000  1
  H  H9  1  0.84507200  0.41246500  0.62023500  1
  H  H10  1  0.15492200  0.41246300  0.37976700  1
  H  H11  1  0.71417800  0.59021400  0.37852400  1
  H  H12  1  0.28581600  0.59021600  0.62147200  1
  H  H13  1  0.93777100  0.61716300  0.50077100  1
  H  H14  1  0.06222400  0.61716200  0.49922500  1
  H  H15  1  0.06206300  0.38305600  0.50855400  1
  H  H16  1  0.93793100  0.38305600  0.49144800  1
  H  H17  1  0.57353700  0.70181700  0.63995400  1
  H  H18  1  0.42645700  0.70181900  0.36003500  1
  H  H19  1  0.57550100  0.83527200  0.64142300  1
  H  H20  1  0.42449400  0.83527300  0.35856900  1
  H  H21  1  0.49409800  0.93644200  0.30601700  1
  H  H22  1  0.50589700  0.93643900  0.69397900  1
  H  H23  1  0.49413800  0.06887300  0.30600000  1
  H  H24  1  0.50585700  0.06887000  0.69400200  1
  H  H25  1  0.57516700  0.17010200  0.64200100  1
  H  H26  1  0.42482700  0.17010300  0.35800600  1
  H  H27  1  0.57314200  0.30354000  0.64060400  1
  H  H28  1  0.42685200  0.30354100  0.35940500  1
  C  C1  1  0.36543300  0.50271400  0.49149200  1
  C  C2  1  0.63456100  0.50271400  0.50850600  1
  C  C3  1  0.50673100  0.50324700  0.26124100  1
  C  C4  1  0.49326500  0.50325200  0.73875800  1
  C  C5  1  0.53160000  0.63732800  0.11061800  1
  C  C6  1  0.46846900  0.63735100  0.88939400  1
  C  C7  1  0.51802600  0.70256500  0.05340100  1
  C  C8  1  0.48207900  0.70257700  0.94661700  1
  C  C9  1  0.48979400  0.57101600  0.93959700  1
  C  C10  1  0.51024000  0.57100900  0.06040700  1
  C  C11  1  0.50940300  0.50519000  0.12621100  1
  C  C12  1  0.49059700  0.50519800  0.87379000  1
  C  C13  1  0.50249100  0.44029800  0.06255300  1
  C  C14  1  0.49748000  0.44030100  0.93744600  1
  C  C15  1  0.74654100  0.45082800  0.56844800  1
  C  C16  1  0.25345300  0.45082700  0.43155300  1
  C  C17  1  0.81738100  0.45077400  0.56363300  1
  C  C18  1  0.18261300  0.45077300  0.43636800  1
  C  C19  1  0.85241900  0.49981600  0.49008000  1
  C  C20  1  0.14757500  0.49981600  0.50992000  1
  C  C21  1  0.81469000  0.54940400  0.42022900  1
  C  C22  1  0.18530500  0.54940500  0.57976900  1
  C  C23  1  0.74388700  0.55235000  0.43272700  1
  C  C24  1  0.25610800  0.55235000  0.56727000  1
  C  C25  1  0.70974300  0.50266300  0.50515000  1
  C  C26  1  0.29025100  0.50266300  0.49484800  1
  C  C27  1  0.96453800  0.56532400  0.49880400  1
  C  C28  1  0.03545600  0.56532400  0.50119400  1
  C  C29  1  0.07161300  0.50013300  0.50670100  1
  C  C30  1  0.92838100  0.50013300  0.49329900  1
  C  C31  1  0.03542800  0.43492500  0.50387500  1
  C  C32  1  0.96456600  0.43492500  0.49612600  1
  C  C33  1  0.54077500  0.73176000  0.57808200  1
  C  C34  1  0.45921900  0.73176100  0.42190700  1
  C  C35  1  0.54133000  0.80726400  0.57947500  1
  C  C36  1  0.45866500  0.80726500  0.42051600  1
  C  C37  1  0.49999800  0.84594400  0.49999600  1
  C  C38  1  0.49571700  0.96491100  0.39200800  1
  C  C39  1  0.50427800  0.96490900  0.60798900  1
  C  C40  1  0.49573200  0.04042100  0.39200600  1
  C  C41  1  0.50426300  0.04042000  0.60799500  1
  C  C42  1  0.49999700  0.07882600  0.50000100  1
  C  C43  1  0.49999800  0.92651300  0.49999800  1
  C  C44  1  0.54113400  0.19809200  0.57979900  1
  C  C45  1  0.45886000  0.19809200  0.42020900  1
  C  C46  1  0.54056100  0.27359600  0.57843600  1
  C  C47  1  0.45943300  0.27359700  0.42157300  1
  C  C48  1  0.49999700  0.15940500  0.50000300  1
  N  N1  1  0.49999700  0.69524700  0.49999400  1
  N  N2  1  0.49999700  0.31010900  0.50000500  1
  N  N3  1  0.84657800  0.59400300  0.32945700  1
  N  N4  1  0.15341700  0.59400400  0.67054000  1
  O  O1  1  0.39749000  0.56575700  0.49554300  1
  O  O2  1  0.60250400  0.56575600  0.50445000  1
  O  O3  1  0.39757600  0.43964700  0.49079500  1
  O  O4  1  0.60241900  0.43964600  0.50920800  1
  O  O5  1  0.50262300  0.56542800  0.31951600  1
  O  O6  1  0.49737000  0.56543100  0.68047800  1
  O  O7  1  0.50533800  0.43985000  0.31877400  1
  O  O8  1  0.49465600  0.43985300  0.68122900  1
  O  O9  1  0.89549000  0.56703400  0.26233000  1
  O  O10  1  0.81698100  0.65454400  0.29574500  1
  O  O11  1  0.10450400  0.56703600  0.73766700  1
  O  O12  1  0.18301300  0.65454600  0.70425100  1
