# generated using pymatgen
data_Zn6H44C71O25
_symmetry_space_group_name_H-M   'P 1'
_cell_length_a   18.59042600
_cell_length_b   18.98087800
_cell_length_c   18.97981000
_cell_angle_alpha   109.79599300
_cell_angle_beta   109.39801600
_cell_angle_gamma   108.77881000
_symmetry_Int_Tables_number   1
_chemical_formula_structural   Zn6H44C71O25
_chemical_formula_sum   'Zn6 H44 C71 O25'
_cell_volume   5183.10529934
_cell_formula_units_Z   1
loop_
 _symmetry_equiv_pos_site_id
 _symmetry_equiv_pos_as_xyz
  1  'x, y, z'
loop_
 _atom_site_type_symbol
 _atom_site_label
 _atom_site_symmetry_multiplicity
 _atom_site_fract_x
 _atom_site_fract_y
 _atom_site_fract_z
 _atom_site_occupancy
  Zn  Zn1  1  0.50858500  0.44318600  0.42586800  1
  Zn  Zn2  1  0.50158700  0.57439000  0.56445200  1
  Zn  Zn3  1  0.93559400  0.43742400  0.98876800  1
  Zn  Zn4  1  0.07136900  0.57661300  0.98688500  1
  Zn  Zn5  1  0.08445700  0.00409000  0.55764000  1
  Zn  Zn6  1  0.93481300  0.00698800  0.43316400  1
  H  H1  1  0.63807700  0.36626200  0.59761500  1
  H  H2  1  0.60438800  0.38966900  0.67754100  1
  H  H3  1  0.70915900  0.36772400  0.75294400  1
  H  H4  1  0.75847500  0.37076100  0.68571500  1
  H  H5  1  0.76185400  0.48410700  0.61533800  1
  H  H6  1  0.87942200  0.50728000  0.72468100  1
  H  H7  1  0.64759500  0.53802300  0.77627000  1
  H  H8  1  0.73174000  0.50382700  0.85714100  1
  H  H9  1  0.82390500  0.60408100  0.89512800  1
  H  H10  1  0.79338100  0.59450000  0.67953100  1
  H  H11  1  0.89418600  0.60745000  0.79818300  1
  H  H12  1  0.37489900  0.37011300  0.61505300  1
  H  H13  1  0.25912300  0.30337800  0.32184700  1
  H  H14  1  0.13558300  0.18255600  0.18755100  1
  H  H15  1  0.03610900  0.05834900  0.18454800  1
  H  H16  1  0.05865700  0.05617700  0.31598500  1
  H  H17  1  0.26729400  0.25474500  0.61390000  1
  H  H18  1  0.25146000  0.38592000  0.23252100  1
  H  H19  1  0.46479200  0.68088200  0.43092100  1
  H  H20  1  0.47014600  0.81463000  0.44956600  1
  H  H21  1  0.34685100  0.81626200  0.35051900  1
  H  H22  1  0.21975200  0.68427700  0.23117900  1
  H  H23  1  0.13819900  0.38764600  0.12370200  1
  H  H24  1  0.62983100  0.65777100  0.37862500  1
  H  H25  1  0.75273100  0.70023300  0.66174200  1
  H  H26  1  0.88798000  0.80442100  0.79430800  1
  H  H27  1  0.99868800  0.92323300  0.80063200  1
  H  H28  1  0.97479100  0.93661100  0.67513200  1
  H  H29  1  0.74224600  0.76904500  0.38051500  1
  H  H30  1  0.00245600  0.37134200  0.73048400  1
  H  H31  1  0.06315200  0.31970700  0.96602100  1
  H  H32  1  0.08280100  0.20952500  0.99097400  1
  H  H33  1  0.07331100  0.08921600  0.87814300  1
  H  H34  1  0.04666300  0.08073700  0.74252600  1
  H  H35  1  0.00455700  0.25918200  0.62210300  1
  H  H36  1  0.12588200  0.76633600  0.23410200  1
  H  H37  1  0.82332200  0.57403700  0.02781200  1
  H  H38  1  0.68922500  0.55603200  0.02788400  1
  H  H39  1  0.69190500  0.65174500  0.15497600  1
  H  H40  1  0.82826300  0.76737800  0.28009300  1
  H  H41  1  0.12788000  0.87441100  0.34984900  1
  H  H42  1  0.71885100  0.67112600  0.76047800  1
  H  H43  1  0.82148500  0.68291400  0.82393000  1
  H  H44  1  0.69886200  0.70689500  0.86204000  1
  C  C1  1  0.37686000  0.38684800  0.48404100  1
  C  C2  1  0.62073400  0.50313700  0.61526700  1
  C  C3  1  0.63289800  0.63052700  0.50577700  1
  C  C4  1  0.39162400  0.51667100  0.37578600  1
  C  C5  1  0.65999800  0.41029400  0.66554700  1
  C  C6  1  0.73423500  0.40455400  0.72397900  1
  C  C7  1  0.77352400  0.53179800  0.67720400  1
  C  C8  1  0.70981700  0.55848800  0.77475000  1
  C  C9  1  0.69063500  0.50230000  0.68314500  1
  C  C10  1  0.80758200  0.49467500  0.79317100  1
  C  C11  1  0.84606100  0.53881200  0.75077800  1
  C  C12  1  0.76976100  0.54263000  0.83680000  1
  C  C13  1  0.21779400  0.25009800  0.32393800  1
  C  C14  1  0.14678500  0.18194000  0.24693700  1
  C  C15  1  0.09081300  0.11270300  0.24532100  1
  C  C16  1  0.10365900  0.11274200  0.32100000  1
  C  C17  1  0.17319800  0.18252700  0.39974900  1
  C  C18  1  0.23341700  0.24999600  0.40077400  1
  C  C19  1  0.30709600  0.31734700  0.47873000  1
  C  C20  1  0.31779200  0.31826200  0.55443200  1
  C  C21  1  0.25771400  0.25240100  0.55360400  1
  C  C22  1  0.18498900  0.18477000  0.47718200  1
  C  C23  1  0.40852000  0.67800000  0.38607300  1
  C  C24  1  0.41292900  0.75488700  0.39665100  1
  C  C25  1  0.34423500  0.75581100  0.34088200  1
  C  C26  1  0.27252300  0.67993900  0.27205300  1
  C  C27  1  0.26849600  0.60165600  0.25827200  1
  C  C28  1  0.33500000  0.60059400  0.31884200  1
  C  C29  1  0.32810300  0.52233700  0.31012300  1
  C  C30  1  0.25739600  0.44677700  0.23954700  1
  C  C31  1  0.19274100  0.44782100  0.17870900  1
  C  C32  1  0.19786700  0.52443500  0.18655000  1
  C  C33  1  0.79909700  0.75149300  0.66150700  1
  C  C34  1  0.87634000  0.81014700  0.73732300  1
  C  C35  1  0.93833000  0.87637100  0.74073600  1
  C  C36  1  0.92424200  0.88286400  0.66790900  1
  C  C37  1  0.84766800  0.82274500  0.58977500  1
  C  C38  1  0.78301700  0.75804700  0.58776300  1
  C  C39  1  0.70388200  0.69925200  0.51167000  1
  C  C40  1  0.69098300  0.70373600  0.43802200  1
  C  C41  1  0.75441500  0.76734000  0.43954100  1
  C  C42  1  0.83324500  0.82697600  0.51432400  1
  C  C43  1  0.01614800  0.38977900  0.87863600  1
  C  C44  1  0.87796800  0.49416600  0.85996900  1
  C  C45  1  0.99091200  0.62455200  0.09716500  1
  C  C46  1  0.12885500  0.52041300  0.11634200  1
  C  C47  1  0.02165300  0.12834000  0.62375000  1
  C  C48  1  0.12199200  0.11878500  0.48212800  1
  C  C49  1  0.99596600  0.88095500  0.36753000  1
  C  C50  1  0.89718800  0.89229400  0.50892100  1
  C  C51  1  0.05759000  0.26780500  0.91416000  1
  C  C52  1  0.06989200  0.20578300  0.92955900  1
  C  C53  1  0.06497100  0.13878300  0.86662700  1
  C  C54  1  0.05039100  0.13499600  0.78918300  1
  C  C55  1  0.04039800  0.19844400  0.77313000  1
  C  C56  1  0.04048600  0.26366600  0.83536000  1
  C  C57  1  0.02491000  0.32486800  0.81887900  1
  C  C58  1  0.01427500  0.32360600  0.74319800  1
  C  C59  1  0.01454800  0.25964600  0.68173600  1
  C  C60  1  0.02722200  0.19662900  0.69533800  1
  C  C61  1  0.82806700  0.61737700  0.08545600  1
  C  C62  1  0.75096900  0.60727900  0.08421400  1
  C  C63  1  0.75245700  0.66122000  0.15502700  1
  C  C64  1  0.83085100  0.72812300  0.22563800  1
  C  C65  1  0.90929300  0.74195200  0.22628500  1
  C  C66  1  0.90804300  0.68254400  0.15765700  1
  C  C67  1  0.98662100  0.69035800  0.16141300  1
  C  C68  1  0.06462900  0.75983500  0.23045100  1
  C  C69  1  0.06580700  0.82011800  0.29671500  1
  C  C70  1  0.98904800  0.81233600  0.29543000  1
  C  C71  1  0.75218900  0.65538300  0.80789600  1
  O  O1  1  0.40994400  0.36694800  0.43387700  1
  O  O2  1  0.40636700  0.46605400  0.54197100  1
  O  O3  1  0.59703400  0.45661300  0.53395300  1
  O  O4  1  0.58728300  0.55163800  0.63935500  1
  O  O5  1  0.60289200  0.55143600  0.44732000  1
  O  O6  1  0.60107400  0.65068400  0.55733600  1
  O  O7  1  0.42166100  0.46473000  0.35060300  1
  O  O8  1  0.41414500  0.56216600  0.45675100  1
  O  O9  1  0.95911400  0.36418500  0.90307100  1
  O  O10  1  0.06556500  0.47066000  0.90484500  1
  O  O11  1  0.85567100  0.44302800  0.89025500  1
  O  O12  1  0.95940200  0.55050400  0.89085800  1
  O  O13  1  0.94184800  0.54352300  0.07106400  1
  O  O14  1  0.04798200  0.64993700  0.07272600  1
  O  O15  1  0.04754900  0.46303200  0.08448200  1
  O  O16  1  0.15115800  0.57080700  0.08526200  1
  O  O17  1  0.07752100  0.09988300  0.63949000  1
  O  O18  1  0.96111600  0.09992000  0.54551000  1
  O  O19  1  0.15265200  0.08985400  0.53207000  1
  O  O20  1  0.03852600  0.09466600  0.44046000  1
  O  O21  1  0.05888100  0.91167000  0.44535500  1
  O  O22  1  0.94234100  0.91174300  0.35136100  1
  O  O23  1  0.98068400  0.91620400  0.55010400  1
  O  O24  1  0.86678000  0.92128400  0.45883100  1
  O  O25  1  0.74841800  0.69596000  0.88203800  1
