# Generated by REPEAT Assigner based on pymatgen
data_DB0-m3_o20_o21_f0_pcu.sym.5_sqe
_audit_creation_date              2022-05-24
_audit_creation_method            REPEAT_Assigner
_cell_length_a                    13.389545
_cell_length_b                    14.534921
_cell_length_c                    14.099663
_cell_angle_alpha                 90.000000
_cell_angle_beta                  85.735071
_cell_angle_gamma                 90.000000
_cell_volume                      2736.420976
_symmetry_space_group_name_H-M    P1
_symmetry_Int_Tables_number       1
loop_
    _symmetry_equiv_pos_site_id
    _symmetry_equiv_pos_as_xyz
    1  x,y,z
loop_
    _atom_site_type_symbol
    _atom_site_label
    _atom_site_fract_x
    _atom_site_fract_y
    _atom_site_fract_z
    _atom_type_partial_charge
    O   O1   0.413698  0.637069  0.499681  -0.667722
    O   O2   0.586308  0.362913  0.500330  -0.667718
    O   O3   0.586286  0.637070  0.500559  -0.663197
    O   O4   0.413710  0.362913  0.499452  -0.663156
    C   C1   0.499991  0.679775  0.500132  0.890911
    C   C2   0.500011  0.320215  0.499871  0.890972
    O   O5   0.402042  0.499879  0.641263  -0.665374
    O   O6   0.597962  0.500113  0.358728  -0.665130
    O   O7   0.574611  0.499879  0.642123  -0.668322
    O   O8   0.425376  0.500114  0.357864  -0.668293
    C   C3   0.484620  0.499838  0.685838  0.872223
    C   C4   0.515380  0.500173  0.314156  0.871642
    Zn  Zn1  0.386271  0.499992  0.499469  1.067607
    Zn  Zn2  0.613727  0.499993  0.500525  1.067509
    C   C5   0.524050  0.500390  0.212118  -0.245974
    C   C6   0.475981  0.499617  0.787885  -0.246878
    C   C7   0.540784  0.500773  0.024154  0.270323
    C   C8   0.459224  0.499216  0.975854  0.267015
    C   C9   0.468480  0.499416  0.873581  -0.067056
    C   C10  0.531554  0.500584  0.126425  -0.067792
    C   C11  0.499989  0.778506  0.500072  -0.271679
    C   C12  0.499998  0.221502  0.499940  -0.271768
    C   C13  0.499989  0.861412  0.500018  0.098942
    C   C14  0.499991  0.138604  0.499985  0.099039
    C   C15  0.500007  0.958559  0.499995  -0.028908
    C   C16  0.500007  0.041462  0.499997  -0.028874
    N   N1   0.763054  0.499993  0.501053  -0.086411
    N   N2   0.236942  0.499994  0.498953  -0.086394
    C   C17  0.849487  0.499998  0.500756  0.235960
    C   C18  0.150508  0.499999  0.499244  0.235924
    C   C19  0.954980  0.500002  0.500244  0.052612
    C   C20  0.045013  0.500002  0.499752  0.052637
    O   O9   0.366299  0.497657  0.023422  -0.481735
    H   H1   0.344047  0.562628  0.024080  0.360843
    O   O10  0.633695  0.502327  0.976560  -0.482320
    H   H2   0.655279  0.437162  0.974561  0.360542
