data_DB0-m3_o12_o29_f0_pcu.sym.54_repeat
_audit_creation_date              2024-02-23
_audit_creation_method            'Materials Studio'
_symmetry_space_group_name_H-M    'P1'
_symmetry_Int_Tables_number       1
_symmetry_cell_setting            triclinic
loop_
_symmetry_equiv_pos_as_xyz
  x,y,z
_cell_length_a                    10.0022
_cell_length_b                    11.2500
_cell_length_c                    27.6275
_cell_angle_alpha                 89.9794
_cell_angle_beta                  80.7758
_cell_angle_gamma                 92.4454
loop_
_atom_site_label
_atom_site_type_symbol
_atom_site_fract_x
_atom_site_fract_y
_atom_site_fract_z
_atom_site_U_iso_or_equiv
_atom_site_adp_type
_atom_site_occupancy
O1     O     0.40226   0.68748   0.50586   0.00000  Uiso   1.00
O2     O     0.55182   0.30608   0.49681   0.00000  Uiso   1.00
O3     O     0.63181   0.65631   0.49161   0.00000  Uiso   1.00
O4     O     0.32225   0.33725   0.51078   0.00000  Uiso   1.00
C1     C     0.52930   0.72675   0.49796   0.00000  Uiso   1.00
C2     C     0.42477   0.26681   0.50457   0.00000  Uiso   1.00
O5     O     0.36484   0.51232   0.58028   0.00000  Uiso   1.00
O6     O     0.58913   0.48084   0.42227   0.00000  Uiso   1.00
O7     O     0.59432   0.48145   0.56621   0.00000  Uiso   1.00
O8     O     0.35983   0.51250   0.43631   0.00000  Uiso   1.00
C3     C     0.48017   0.49696   0.59588   0.00000  Uiso   1.00
C4     C     0.47393   0.49656   0.40665   0.00000  Uiso   1.00
Zn1    Zn    0.32575   0.51747   0.51057   0.00000  Uiso   1.00
Zn2    Zn    0.62832   0.47609   0.49196   0.00000  Uiso   1.00
C5     C     0.50676   0.60369   0.82251   0.00000  Uiso   1.00
C6     C     0.48171   0.38741   0.17783   0.00000  Uiso   1.00
O9     O     0.52443   0.70201   0.79437   0.00000  Uiso   1.00
O10    O     0.48358   0.28844   0.20473   0.00000  Uiso   1.00
N1     N     0.48501   0.49991   0.80036   0.00000  Uiso   1.00
N2     N     0.47210   0.49162   0.20178   0.00000  Uiso   1.00
C7     C     0.46370   0.39745   0.82562   0.00000  Uiso   1.00
C8     C     0.46423   0.59428   0.17796   0.00000  Uiso   1.00
C9     C     0.60377   0.49478   0.71665   0.00000  Uiso   1.00
C10    C     0.58682   0.46420   0.27185   0.00000  Uiso   1.00
C11    C     0.60280   0.49347   0.66679   0.00000  Uiso   1.00
C12    C     0.58769   0.46606   0.32168   0.00000  Uiso   1.00
C13    C     0.36135   0.50196   0.68149   0.00000  Uiso   1.00
C14    C     0.35777   0.52413   0.33503   0.00000  Uiso   1.00
C15    C     0.36270   0.50220   0.73132   0.00000  Uiso   1.00
C16    C     0.35772   0.52345   0.28509   0.00000  Uiso   1.00
C17    C     0.48382   0.49898   0.74893   0.00000  Uiso   1.00
C18    C     0.47203   0.49299   0.25339   0.00000  Uiso   1.00
C19    C     0.48554   0.50115   0.89977   0.00000  Uiso   1.00
C20    C     0.47750   0.49005   0.10191   0.00000  Uiso   1.00
C21    C     0.50820   0.60746   0.87327   0.00000  Uiso   1.00
C22    C     0.48572   0.38357   0.12677   0.00000  Uiso   1.00
C23    C     0.53230   0.71228   0.89862   0.00000  Uiso   1.00
C24    C     0.49894   0.27836   0.09942   0.00000  Uiso   1.00
C25    C     0.46417   0.39651   0.87543   0.00000  Uiso   1.00
C26    C     0.46707   0.59493   0.12795   0.00000  Uiso   1.00
C27    C     0.48148   0.49739   0.64891   0.00000  Uiso   1.00
C28    C     0.47298   0.49567   0.35361   0.00000  Uiso   1.00
H1     H     0.26512   0.50470   0.66856   0.00000  Uiso   1.00
H2     H     0.26691   0.54787   0.35914   0.00000  Uiso   1.00
H3     H     0.26852   0.50548   0.75660   0.00000  Uiso   1.00
H4     H     0.26722   0.54572   0.27090   0.00000  Uiso   1.00
C29    C     0.48082   0.60070   0.02680   0.00000  Uiso   1.00
C30    C     0.47008   0.39057   0.97552   0.00000  Uiso   1.00
C31    C     0.48061   0.38817   0.02544   0.00000  Uiso   1.00
C32    C     0.49546   0.60290   0.97555   0.00000  Uiso   1.00
C33    C     0.47960   0.49292   0.05136   0.00000  Uiso   1.00
C34    C     0.48373   0.49825   0.95030   0.00000  Uiso   1.00
C35    C     0.46530   0.70415   0.05420   0.00000  Uiso   1.00
C36    C     0.44416   0.28745   0.95032   0.00000  Uiso   1.00
C37    C     0.45834   0.70089   0.10408   0.00000  Uiso   1.00
C38    C     0.44112   0.29079   0.90098   0.00000  Uiso   1.00
O11    O     0.45647   0.69667   0.20309   0.00000  Uiso   1.00
O12    O     0.44243   0.29595   0.80185   0.00000  Uiso   1.00
C39    C     0.52488   0.70787   0.94894   0.00000  Uiso   1.00
C40    C     0.49547   0.28284   0.04969   0.00000  Uiso   1.00
H5     H     0.67902   0.44323   0.33513   0.00000  Uiso   1.00
H6     H     0.69813   0.49020   0.64219   0.00000  Uiso   1.00
H7     H     0.67704   0.44104   0.24721   0.00000  Uiso   1.00
H8     H     0.69887   0.49213   0.73041   0.00000  Uiso   1.00
H9     H     0.44604   0.78353   0.12386   0.00000  Uiso   1.00
H10    H     0.42030   0.20845   0.88294   0.00000  Uiso   1.00
H11    H     0.45214   0.78969   0.03859   0.00000  Uiso   1.00
H12    H     0.41954   0.20220   0.96794   0.00000  Uiso   1.00
H13    H     0.55166   0.78863   0.96650   0.00000  Uiso   1.00
H14    H     0.51390   0.20171   0.02971   0.00000  Uiso   1.00
H15    H     0.59926   0.09179   0.49374   0.00000  Uiso   1.00
H16    H     0.35482   0.90177   0.50886   0.00000  Uiso   1.00
C41    C     0.55919   0.85552   0.49612   0.00000  Uiso   1.00
C42    C     0.39488   0.13804   0.50642   0.00000  Uiso   1.00
C43    C     0.46030   0.93262   0.50230   0.00000  Uiso   1.00
C44    C     0.49377   0.06094   0.50027   0.00000  Uiso   1.00
H17    H     0.28995   0.10544   0.51289   0.00000  Uiso   1.00
H18    H     0.66412   0.88813   0.48960   0.00000  Uiso   1.00
H19    H     0.09406   0.42522   0.47015   0.00000  Uiso   1.00
H20    H     0.86002   0.56838   0.53237   0.00000  Uiso   1.00
N3     N     0.82705   0.44831   0.47948   0.00000  Uiso   1.00
N4     N     0.12702   0.54526   0.52305   0.00000  Uiso   1.00
C45    C     0.90382   0.50596   0.50506   0.00000  Uiso   1.00
C46    C     0.05026   0.48762   0.49746   0.00000  Uiso   1.00
H21    H     0.07954   0.60330   0.54828   0.00000  Uiso   1.00
H22    H     0.87453   0.39026   0.45426   0.00000  Uiso   1.00
C47    C     0.56944   0.83251   0.87512   0.00000  Uiso   1.00
C48    C     0.71737   0.83925   0.85087   0.00000  Uiso   1.00
C49    C     0.74901   0.95589   0.82293   0.00000  Uiso   1.00
C50    C     0.89746   0.96466   0.80018   0.00000  Uiso   1.00
H23    H     0.55774   0.90245   0.90351   0.00000  Uiso   1.00
H24    H     0.49948   0.85690   0.84990   0.00000  Uiso   1.00
H25    H     0.74024   0.76412   0.82545   0.00000  Uiso   1.00
H26    H     0.78216   0.83452   0.87978   0.00000  Uiso   1.00
H27    H     0.72677   0.03136   0.84835   0.00000  Uiso   1.00
H28    H     0.68597   0.96034   0.79346   0.00000  Uiso   1.00
H29    H     0.96161   0.96138   0.82934   0.00000  Uiso   1.00
H30    H     0.91932   0.05006   0.77980   0.00000  Uiso   1.00
H31    H     0.92072   0.88994   0.77446   0.00000  Uiso   1.00
C51    C     0.52067   0.15769   0.11973   0.00000  Uiso   1.00
C52    C     0.66642   0.14913   0.12844   0.00000  Uiso   1.00
C53    C     0.68277   0.03186   0.15357   0.00000  Uiso   1.00
C54    C     0.82879   0.02151   0.16093   0.00000  Uiso   1.00
H32    H     0.50328   0.08800   0.09285   0.00000  Uiso   1.00
H33    H     0.44564   0.13397   0.15259   0.00000  Uiso   1.00
H34    H     0.69581   0.22361   0.15127   0.00000  Uiso   1.00
H35    H     0.73435   0.15357   0.09252   0.00000  Uiso   1.00
H36    H     0.65449   0.95702   0.13059   0.00000  Uiso   1.00
H37    H     0.61625   0.02746   0.18979   0.00000  Uiso   1.00
H38    H     0.89628   0.02484   0.12491   0.00000  Uiso   1.00
H39    H     0.83948   0.93561   0.17934   0.00000  Uiso   1.00
H40    H     0.85798   0.09553   0.18415   0.00000  Uiso   1.00
