# generated using pymatgen
data_ZnH7C16NO6
_symmetry_space_group_name_H-M   'P 1'
_cell_length_a   10.84558200
_cell_length_b   13.42754100
_cell_length_c   8.54527500
_cell_angle_alpha   90.00000000
_cell_angle_beta   90.01480100
_cell_angle_gamma   90.00000000
_symmetry_Int_Tables_number   1
_chemical_formula_structural   ZnH7C16NO6
_chemical_formula_sum   'Zn2 H14 C32 N2 O12'
_cell_volume   1244.44405823
_cell_formula_units_Z   2
loop_
 _symmetry_equiv_pos_site_id
 _symmetry_equiv_pos_as_xyz
  1  'x, y, z'
loop_
 _atom_site_type_symbol
 _atom_site_label
 _atom_site_symmetry_multiplicity
 _atom_site_fract_x
 _atom_site_fract_y
 _atom_site_fract_z
 _atom_site_occupancy
  Zn  Zn1  1  0.90997800  0.89032100  0.45344300  1
  Zn  Zn2  1  0.92167800  0.11015200  0.45369900  1
  H  H1  1  0.52697800  0.00170800  0.56438200  1
  H  H2  1  0.30441400  0.99705200  0.56434900  1
  H  H3  1  0.32371700  0.01705800  0.20848100  1
  H  H4  1  0.50791800  0.98331200  0.20852000  1
  H  H5  1  0.82950900  0.03458300  0.95075600  1
  H  H6  1  0.00173200  0.96655500  0.95087900  1
  H  H7  1  0.11610800  0.24958800  0.44978400  1
  H  H8  1  0.10095600  0.75749000  0.44754000  1
  H  H9  1  0.61038400  0.58256200  0.46469600  1
  H  H10  1  0.61521600  0.40845700  0.46431300  1
  H  H11  1  0.12273800  0.42738700  0.44976700  1
  H  H12  1  0.11773600  0.58085700  0.44756800  1
  H  H13  1  0.53831300  0.79759700  0.58814500  1
  H  H14  1  0.54955500  0.19987500  0.58193000  1
  C  C1  1  0.48026700  0.00017400  0.95663700  1
  C  C2  1  0.54348900  0.00190700  0.81460100  1
  C  C3  1  0.47911300  0.00047700  0.67521700  1
  C  C4  1  0.35228100  0.99870300  0.67519900  1
  C  C5  1  0.28790700  0.99786100  0.81456500  1
  C  C6  1  0.35116100  0.99987100  0.95663200  1
  C  C7  1  0.16011200  0.99224700  0.81374900  1
  C  C8  1  0.09864300  0.98092200  0.95223500  1
  C  C9  1  0.15747800  0.99351500  0.09204100  1
  C  C10  1  0.28328000  0.00488700  0.09534400  1
  C  C11  1  0.54823300  0.99550600  0.09534100  1
  C  C12  1  0.67397700  0.00727300  0.09192300  1
  C  C13  1  0.73266800  0.01990400  0.95217300  1
  C  C14  1  0.67125100  0.00790300  0.81385300  1
  C  C15  1  0.08398500  0.99648500  0.67214100  1
  C  C16  1  0.74744000  0.00366500  0.67249100  1
  C  C17  1  0.74921300  0.00365600  0.23335200  1
  C  C18  1  0.08246400  0.99706300  0.23375400  1
  C  C19  1  0.81513900  0.29226200  0.45698500  1
  C  C20  1  0.80263400  0.70539900  0.45752800  1
  C  C21  1  0.03034500  0.29056700  0.45179000  1
  C  C22  1  0.01737800  0.71372100  0.45013600  1
  C  C23  1  0.03303600  0.39352600  0.45179600  1
  C  C24  1  0.02621100  0.61131800  0.45050300  1
  C  C25  1  0.92401500  0.44826000  0.45464000  1
  C  C26  1  0.92063600  0.55301600  0.45439400  1
  C  C27  1  0.81442900  0.39556700  0.45778100  1
  C  C28  1  0.80795700  0.60200100  0.45802500  1
  C  C29  1  0.70003400  0.54772300  0.46182600  1
  C  C30  1  0.70315400  0.44597200  0.46150500  1
  C  C31  1  0.68272400  0.75550400  0.46263400  1
  C  C32  1  0.69648400  0.23995100  0.45945700  1
  N  N1  1  0.92266500  0.24096400  0.45402800  1
  N  N2  1  0.90715000  0.75962700  0.45328400  1
  O  O1  1  0.04925700  0.08446200  0.61953500  1
  O  O2  1  0.03664800  0.91254500  0.62129400  1
  O  O3  1  0.78220100  0.91629100  0.61940900  1
  O  O4  1  0.79504500  0.08700800  0.62170700  1
  O  O5  1  0.78252300  0.91618400  0.28733200  1
  O  O6  1  0.79563100  0.08751000  0.28488400  1
  O  O7  1  0.04915600  0.08477700  0.28774900  1
  O  O8  1  0.03604000  0.91288200  0.28491600  1
  O  O9  1  0.62745800  0.77267700  0.34135200  1
  O  O10  1  0.62306100  0.76803200  0.60542100  1
  O  O11  1  0.64066000  0.22661600  0.33736000  1
  O  O12  1  0.63471900  0.22817500  0.60101700  1
