# generated using pymatgen
data_CuH26C48(N2O9)2
_symmetry_space_group_name_H-M   'P 1'
_cell_length_a   32.92132600
_cell_length_b   33.00671700
_cell_length_c   21.86632800
_cell_angle_alpha   90.00000000
_cell_angle_beta   90.00000000
_cell_angle_gamma   90.00000000
_symmetry_Int_Tables_number   1
_chemical_formula_structural   CuH26C48(N2O9)2
_chemical_formula_sum   'Cu4 H104 C192 N16 O72'
_cell_volume   23760.49626966
_cell_formula_units_Z   4
loop_
 _symmetry_equiv_pos_site_id
 _symmetry_equiv_pos_as_xyz
  1  'x, y, z'
loop_
 _atom_site_type_symbol
 _atom_site_label
 _atom_site_symmetry_multiplicity
 _atom_site_fract_x
 _atom_site_fract_y
 _atom_site_fract_z
 _atom_site_occupancy
  Cu  Cu1  1  0.00017100  0.49996400  0.56338200  1
  Cu  Cu2  1  0.99999700  0.49999600  0.44116200  1
  Cu  Cu3  1  0.50034600  0.00000000  0.56343700  1
  Cu  Cu4  1  0.50001900  0.00002500  0.44118500  1
  H  H1  1  0.00882400  0.56318900  0.34375700  1
  H  H2  1  0.00713200  0.56331900  0.66015200  1
  H  H3  1  0.99001900  0.43709400  0.34449900  1
  H  H4  1  0.99427700  0.43646000  0.66060000  1
  H  H5  1  0.50901800  0.06327900  0.34376800  1
  H  H6  1  0.50649800  0.06337400  0.66013600  1
  H  H7  1  0.49010600  0.93715500  0.34438600  1
  H  H8  1  0.49321600  0.93656000  0.66077200  1
  H  H9  1  0.29372200  0.65353200  0.52420900  1
  H  H10  1  0.70592200  0.34725500  0.48462200  1
  H  H11  1  0.70688900  0.65227500  0.48648200  1
  H  H12  1  0.29291100  0.34730800  0.52050100  1
  H  H13  1  0.79367700  0.15351500  0.52449100  1
  H  H14  1  0.20591000  0.84721900  0.48403100  1
  H  H15  1  0.20685800  0.15219800  0.48777700  1
  H  H16  1  0.79291800  0.84722500  0.52144700  1
  H  H17  1  0.86630800  0.34914000  0.59850100  1
  H  H18  1  0.15210200  0.63381500  0.59680500  1
  H  H19  1  0.13246500  0.34735400  0.40640500  1
  H  H20  1  0.84858400  0.63348000  0.40723000  1
  H  H21  1  0.36635700  0.84899000  0.59839700  1
  H  H22  1  0.65209100  0.13376400  0.59689500  1
  H  H23  1  0.63221700  0.84754800  0.40595600  1
  H  H24  1  0.34881000  0.13401300  0.40757400  1
  H  H25  1  0.91819100  0.40188300  0.59861600  1
  H  H26  1  0.09992300  0.58137300  0.59803300  1
  H  H27  1  0.08023600  0.39978200  0.40603500  1
  H  H28  1  0.90093800  0.58151100  0.40667200  1
  H  H29  1  0.41826900  0.90180500  0.59880100  1
  H  H30  1  0.60009200  0.08131600  0.59789700  1
  H  H31  1  0.58048600  0.90022400  0.40574100  1
  H  H32  1  0.40134900  0.08192700  0.40687800  1
  H  H33  1  0.89975800  0.41919200  0.40646300  1
  H  H34  1  0.08194900  0.59811200  0.40569000  1
  H  H35  1  0.09930700  0.41825200  0.59782900  1
  H  H36  1  0.92004500  0.60036100  0.59831500  1
  H  H37  1  0.39993500  0.91925600  0.40663200  1
  H  H38  1  0.58225100  0.09813700  0.40546100  1
  H  H39  1  0.59933000  0.91826300  0.59760800  1
  H  H40  1  0.41978100  0.10016500  0.59880700  1
  H  H41  1  0.84783600  0.36676000  0.40743200  1
  H  H42  1  0.13400400  0.65078600  0.40573300  1
  H  H43  1  0.15170600  0.36604600  0.59684700  1
  H  H44  1  0.86768500  0.65271100  0.59782900  1
  H  H45  1  0.34803900  0.86675000  0.40745800  1
  H  H46  1  0.63414400  0.15083400  0.40568900  1
  H  H47  1  0.65134000  0.86566700  0.59680700  1
  H  H48  1  0.36739600  0.15259700  0.59814400  1
  H  H49  1  0.00845700  0.56373200  0.23153100  1
  H  H50  1  0.00700500  0.56422500  0.77233500  1
  H  H51  1  0.98858900  0.43628800  0.23219000  1
  H  H52  1  0.99339700  0.43590300  0.77283700  1
  H  H53  1  0.50865400  0.06398600  0.23186400  1
  H  H54  1  0.50572500  0.06454400  0.77206100  1
  H  H55  1  0.48846500  0.93657200  0.23193200  1
  H  H56  1  0.49186600  0.93632800  0.77335400  1
  H  H57  1  0.92340300  0.17588800  0.55550000  1
  H  H58  1  0.93428200  0.15745100  0.47922100  1
  H  H59  1  0.91066800  0.12428200  0.53483100  1
  H  H60  1  0.07432000  0.82685800  0.48897300  1
  H  H61  1  0.07211200  0.83790500  0.40791800  1
  H  H62  1  0.09009400  0.87603800  0.46096700  1
  H  H63  1  0.07506600  0.17134700  0.49548500  1
  H  H64  1  0.09097800  0.12201300  0.46824700  1
  H  H65  1  0.07212000  0.15945300  0.41475400  1
  H  H66  1  0.92319100  0.82640500  0.54973400  1
  H  H67  1  0.90983500  0.87766100  0.52808400  1
  H  H68  1  0.93314100  0.84406700  0.47277400  1
  H  H69  1  0.42335700  0.67588800  0.55564900  1
  H  H70  1  0.43447600  0.65751200  0.47943600  1
  H  H71  1  0.41074800  0.62428800  0.53485700  1
  H  H72  1  0.57441100  0.32678800  0.48905000  1
  H  H73  1  0.57222500  0.33782600  0.40798300  1
  H  H74  1  0.59015400  0.37598700  0.46105500  1
  H  H75  1  0.57503400  0.67129300  0.49340900  1
  H  H76  1  0.59107300  0.62212700  0.46570000  1
  H  H77  1  0.57226100  0.65977900  0.41254400  1
  H  H78  1  0.42329300  0.32652700  0.54787000  1
  H  H79  1  0.40983200  0.37774600  0.52609400  1
  H  H80  1  0.43292500  0.34402200  0.47071400  1
  H  H81  1  0.82057300  0.49870400  0.89370300  1
  H  H82  1  0.81783300  0.55350100  0.89129100  1
  H  H83  1  0.79909300  0.52633000  0.95752400  1
  H  H84  1  0.17759600  0.51286100  0.11036900  1
  H  H85  1  0.17684800  0.56773100  0.11233800  1
  H  H86  1  0.19712200  0.54155200  0.04620200  1
  H  H87  1  0.17867700  0.50170100  0.89687200  1
  H  H88  1  0.18103600  0.44692200  0.89304600  1
  H  H89  1  0.19957800  0.47321400  0.96025000  1
  H  H90  1  0.82016900  0.48734000  0.10727500  1
  H  H91  1  0.82127300  0.43250600  0.11046300  1
  H  H92  1  0.80119100  0.45791800  0.04350300  1
  H  H93  1  0.32059200  0.99920700  0.89383800  1
  H  H94  1  0.31816500  0.05403100  0.89153800  1
  H  H95  1  0.29932700  0.02691500  0.95775600  1
  H  H96  1  0.67783000  0.01273400  0.11032700  1
  H  H97  1  0.67675500  0.06759800  0.11256300  1
  H  H98  1  0.69714800  0.04170300  0.04628400  1
  H  H99  1  0.67868900  0.00190200  0.89669400  1
  H  H100  1  0.68112400  0.94714800  0.89262600  1
  H  H101  1  0.69978800  0.97334400  0.95983700  1
  H  H102  1  0.32028500  0.98763300  0.10741100  1
  H  H103  1  0.32103000  0.93279000  0.11033900  1
  H  H104  1  0.30105300  0.95847800  0.04353800  1
  C  C1  1  0.00454600  0.53523500  0.31902800  1
  C  C2  1  0.00418000  0.53520100  0.68518900  1
  C  C3  1  0.99383900  0.46510500  0.31946500  1
  C  C4  1  0.99687300  0.46461600  0.68540500  1
  C  C5  1  0.50474500  0.03526200  0.31909200  1
  C  C6  1  0.50360400  0.03529400  0.68513900  1
  C  C7  1  0.49396800  0.96513100  0.31936600  1
  C  C8  1  0.49603800  0.96475200  0.68555300  1
  C  C9  1  0.05473200  0.44435100  0.50215100  1
  C  C10  1  0.94552000  0.55561900  0.50239800  1
  C  C11  1  0.94427300  0.44558500  0.50211600  1
  C  C12  1  0.05581800  0.55453600  0.50239900  1
  C  C13  1  0.55477000  0.94440900  0.50177800  1
  C  C14  1  0.44556700  0.05567700  0.50286200  1
  C  C15  1  0.44441100  0.94551300  0.50253800  1
  C  C16  1  0.55591600  0.05451400  0.50205800  1
  C  C17  1  0.16545800  0.71524000  0.49307500  1
  C  C18  1  0.83446400  0.28508600  0.50980700  1
  C  C19  1  0.83494800  0.71595700  0.50847100  1
  C  C20  1  0.16503200  0.28380400  0.49469000  1
  C  C21  1  0.66549400  0.21529100  0.49341700  1
  C  C22  1  0.33449400  0.78512400  0.50955700  1
  C  C23  1  0.33496000  0.21599000  0.50817500  1
  C  C24  1  0.66502300  0.78383300  0.49424000  1
  C  C25  1  0.21566800  0.66605200  0.50914600  1
  C  C26  1  0.78418600  0.33441800  0.49527500  1
  C  C27  1  0.78509200  0.66601100  0.49562700  1
  C  C28  1  0.21485200  0.33371500  0.50818600  1
  C  C29  1  0.71568800  0.16609500  0.50947700  1
  C  C30  1  0.28420800  0.83444800  0.49501000  1
  C  C31  1  0.28507300  0.16599000  0.49604600  1
  C  C32  1  0.71480700  0.83369000  0.50848900  1
  C  C33  1  0.24551000  0.69544600  0.50871300  1
  C  C34  1  0.75441200  0.30498100  0.49444200  1
  C  C35  1  0.75497400  0.69512100  0.49493300  1
  C  C36  1  0.24500300  0.30466100  0.50767700  1
  C  C37  1  0.74550800  0.19546000  0.50899300  1
  C  C38  1  0.25440900  0.80499200  0.49417600  1
  C  C39  1  0.25495500  0.19508900  0.49545800  1
  C  C40  1  0.74498000  0.80465000  0.50792700  1
  C  C41  1  0.23505000  0.73547800  0.50081500  1
  C  C42  1  0.76493000  0.26488800  0.50136800  1
  C  C43  1  0.76510200  0.73536500  0.50110000  1
  C  C44  1  0.23489900  0.26443300  0.50106900  1
  C  C45  1  0.73505500  0.23548200  0.50104900  1
  C  C46  1  0.26492200  0.76489900  0.50118900  1
  C  C47  1  0.26509500  0.23536000  0.50126100  1
  C  C48  1  0.73489400  0.76445400  0.50087900  1
  C  C49  1  0.19462900  0.74583300  0.49306900  1
  C  C50  1  0.80533500  0.25449600  0.50912600  1
  C  C51  1  0.80546900  0.74622600  0.50787600  1
  C  C52  1  0.19452100  0.25353400  0.49471000  1
  C  C53  1  0.69464400  0.24586100  0.49339300  1
  C  C54  1  0.30534500  0.75451900  0.50893400  1
  C  C55  1  0.30547400  0.24626500  0.50759600  1
  C  C56  1  0.69452000  0.75358700  0.49417000  1
  C  C57  1  0.28573200  0.68478400  0.51607400  1
  C  C58  1  0.71419500  0.31566100  0.48719500  1
  C  C59  1  0.71480700  0.68397300  0.48853000  1
  C  C60  1  0.28516800  0.31585900  0.51357800  1
  C  C61  1  0.78570200  0.18477400  0.51630000  1
  C  C62  1  0.21417800  0.81564600  0.48681500  1
  C  C63  1  0.21477800  0.18389600  0.48954000  1
  C  C64  1  0.78515200  0.81580600  0.51418300  1
  C  C65  1  0.81587800  0.21387400  0.51523800  1
  C  C66  1  0.18415600  0.78635700  0.48525300  1
  C  C67  1  0.18441500  0.21282200  0.48813800  1
  C  C68  1  0.81563100  0.78700500  0.51293600  1
  C  C69  1  0.31590800  0.71389700  0.51500400  1
  C  C70  1  0.68418100  0.28637900  0.48557000  1
  C  C71  1  0.68443400  0.71290700  0.48713300  1
  C  C72  1  0.31563500  0.28706500  0.51233500  1
  C  C73  1  0.87365500  0.36467800  0.55638300  1
  C  C74  1  0.13668600  0.62581600  0.55490500  1
  C  C75  1  0.12497800  0.36293600  0.44839900  1
  C  C76  1  0.86426600  0.62617200  0.44923400  1
  C  C77  1  0.37367800  0.86462600  0.55639600  1
  C  C78  1  0.63669100  0.12582100  0.55493100  1
  C  C79  1  0.62488900  0.86299300  0.44816000  1
  C  C80  1  0.36443500  0.12639700  0.44948100  1
  C  C81  1  0.90290200  0.39456800  0.55628100  1
  C  C82  1  0.10710200  0.59629200  0.55543400  1
  C  C83  1  0.09560500  0.39269200  0.44836500  1
  C  C84  1  0.89399900  0.59682300  0.44908900  1
  C  C85  1  0.40294700  0.89450900  0.55646700  1
  C  C86  1  0.60714800  0.09628600  0.55530800  1
  C  C87  1  0.59566800  0.89287100  0.44814700  1
  C  C88  1  0.39425400  0.09710100  0.44931000  1
  C  C89  1  0.91273800  0.41431600  0.50247300  1
  C  C90  1  0.08729300  0.58589000  0.50196300  1
  C  C91  1  0.08595300  0.41275300  0.50198700  1
  C  C92  1  0.91419600  0.58711900  0.50253000  1
  C  C93  1  0.41279600  0.91432700  0.50273900  1
  C  C94  1  0.58731900  0.08596300  0.50178900  1
  C  C95  1  0.58593900  0.91279800  0.50172200  1
  C  C96  1  0.41425700  0.08721400  0.50292300  1
  C  C97  1  0.89276000  0.40417200  0.44905000  1
  C  C98  1  0.09717400  0.60554100  0.44805500  1
  C  C99  1  0.10613300  0.40288500  0.55542600  1
  C  C100  1  0.90450400  0.60725700  0.55604200  1
  C  C101  1  0.39286900  0.90420100  0.44919300  1
  C  C102  1  0.59729800  0.10559300  0.44794200  1
  C  C103  1  0.60605200  0.90285600  0.55523500  1
  C  C104  1  0.40438500  0.10722200  0.55644000  1
  C  C105  1  0.86320800  0.37465700  0.44945300  1
  C  C106  1  0.12643600  0.63543600  0.44789200  1
  C  C107  1  0.13585400  0.37349300  0.55506900  1
  C  C108  1  0.87508700  0.63699900  0.55587800  1
  C  C109  1  0.36331300  0.87468100  0.44948100  1
  C  C110  1  0.62652900  0.13549700  0.44789800  1
  C  C111  1  0.63562500  0.87332700  0.55494600  1
  C  C112  1  0.37489900  0.13693500  0.55623100  1
  C  C113  1  0.85366400  0.35479200  0.50299000  1
  C  C114  1  0.14627400  0.64554900  0.50128800  1
  C  C115  1  0.14516900  0.35335300  0.50168500  1
  C  C116  1  0.85480300  0.64637900  0.50253600  1
  C  C117  1  0.35368300  0.85482600  0.50295300  1
  C  C118  1  0.64627200  0.14562800  0.50139700  1
  C  C119  1  0.64505100  0.85330500  0.50151300  1
  C  C120  1  0.35476300  0.14639900  0.50279500  1
  C  C121  1  0.99884000  0.49997000  0.22442900  1
  C  C122  1  0.99995100  0.50005700  0.78007100  1
  C  C123  1  0.49861600  0.00018300  0.22444500  1
  C  C124  1  0.49981500  0.00024300  0.78012300  1
  C  C125  1  0.03520700  0.50155700  0.87527400  1
  C  C126  1  0.96347000  0.49755700  0.12926200  1
  C  C127  1  0.96411600  0.49863100  0.87479600  1
  C  C128  1  0.03443200  0.50281000  0.12962000  1
  C  C129  1  0.53529400  0.00157800  0.87531100  1
  C  C130  1  0.46330900  0.99744600  0.12917800  1
  C  C131  1  0.46420400  0.99868100  0.87483900  1
  C  C132  1  0.53427600  0.00264400  0.12976300  1
  C  C133  1  0.96314300  0.49877500  0.93840700  1
  C  C134  1  0.03534800  0.50265200  0.06602200  1
  C  C135  1  0.03577200  0.50155800  0.93889000  1
  C  C136  1  0.96281600  0.49785700  0.06561100  1
  C  C137  1  0.46323400  0.99872500  0.93840900  1
  C  C138  1  0.53532400  0.00238800  0.06616700  1
  C  C139  1  0.53586500  0.00146800  0.93896900  1
  C  C140  1  0.46278800  0.99764700  0.06554400  1
  C  C141  1  0.99935900  0.50021900  0.97053300  1
  C  C142  1  0.99916500  0.50025100  0.03393100  1
  C  C143  1  0.49943100  0.00015900  0.97057200  1
  C  C144  1  0.49917900  0.00012100  0.03397000  1
  C  C145  1  0.92659300  0.49805500  0.97012700  1
  C  C146  1  0.07182300  0.50500500  0.03430200  1
  C  C147  1  0.07211900  0.50233900  0.97106700  1
  C  C148  1  0.92651600  0.49536700  0.03341500  1
  C  C149  1  0.42666800  0.99802200  0.97003000  1
  C  C150  1  0.57185000  0.00478000  0.03453800  1
  C  C151  1  0.57220000  0.00221300  0.97124800  1
  C  C152  1  0.42653200  0.99526600  0.03326900  1
  C  C153  1  0.00442400  0.53558900  0.25601800  1
  C  C154  1  0.00404000  0.53581600  0.74820100  1
  C  C155  1  0.99316200  0.46449400  0.25642000  1
  C  C156  1  0.99633000  0.46423200  0.74839600  1
  C  C157  1  0.50461400  0.03572500  0.25611200  1
  C  C158  1  0.50339200  0.03601900  0.74810700  1
  C  C159  1  0.49319100  0.96465600  0.25633600  1
  C  C160  1  0.49549600  0.96448000  0.74860300  1
  C  C161  1  0.87184600  0.16960900  0.49737200  1
  C  C162  1  0.91266800  0.15592000  0.51804900  1
  C  C163  1  0.13157200  0.82781100  0.44340700  1
  C  C164  1  0.08932900  0.84312900  0.45078900  1
  C  C165  1  0.13182900  0.17040500  0.44858400  1
  C  C166  1  0.08981400  0.15480200  0.45732600  1
  C  C167  1  0.87098200  0.83162000  0.49271000  1
  C  C168  1  0.91191000  0.84586300  0.51204600  1
  C  C169  1  0.37194000  0.66961900  0.49723600  1
  C  C170  1  0.41273700  0.65594100  0.51811200  1
  C  C171  1  0.63165300  0.32780400  0.44359000  1
  C  C172  1  0.58940500  0.34308600  0.45087200  1
  C  C173  1  0.63193200  0.67065000  0.44681700  1
  C  C174  1  0.58989200  0.65496400  0.45514100  1
  C  C175  1  0.37087600  0.33160300  0.49131800  1
  C  C176  1  0.41186200  0.34590900  0.51019000  1
  C  C177  1  0.86354000  0.52940200  0.94995300  1
  C  C178  1  0.82264100  0.52683000  0.92126300  1
  C  C179  1  0.13265000  0.54059000  0.05411900  1
  C  C180  1  0.17368200  0.54070600  0.08260200  1
  C  C181  1  0.13517000  0.47079100  0.95173100  1
  C  C182  1  0.17625600  0.47328200  0.92365800  1
  C  C183  1  0.86563000  0.45949500  0.05224100  1
  C  C184  1  0.82442100  0.45926800  0.08017400  1
  C  C185  1  0.36377400  0.02964000  0.95004000  1
  C  C186  1  0.32284100  0.02730700  0.92144100  1
  C  C187  1  0.63265000  0.04038900  0.05433900  1
  C  C188  1  0.67372700  0.04061500  0.08271200  1
  C  C189  1  0.63532800  0.97081100  0.95162100  1
  C  C190  1  0.67636500  0.97343700  0.92338400  1
  C  C191  1  0.36550000  0.95960400  0.05210300  1
  C  C192  1  0.32432900  0.95958600  0.08015500  1
  N  N1  1  0.00006000  0.50015500  0.34970600  1
  N  N2  1  0.00020400  0.49987000  0.65485700  1
  N  N3  1  0.49973800  0.00022400  0.34970400  1
  N  N4  1  0.50079500  0.99982400  0.65488800  1
  N  N5  1  0.17653100  0.67634900  0.50117200  1
  N  N6  1  0.82334000  0.32405700  0.50296000  1
  N  N7  1  0.82418900  0.67682800  0.50242700  1
  N  N8  1  0.17575800  0.32289200  0.50152900  1
  N  N9  1  0.67655800  0.17640500  0.50146100  1
  N  N10  1  0.32336600  0.82409200  0.50272500  1
  N  N11  1  0.32417800  0.17684800  0.50245800  1
  N  N12  1  0.67571200  0.82288800  0.50145400  1
  N  N13  1  0.99975300  0.50007800  0.84510600  1
  N  N14  1  0.99891100  0.49991900  0.15938300  1
  N  N15  1  0.49980700  0.00030000  0.84515000  1
  N  N16  1  0.49868900  0.00006800  0.15940500  1
  O  O1  1  0.04254000  0.45895000  0.55475300  1
  O  O2  1  0.95773700  0.54108600  0.44979600  1
  O  O3  1  0.95983300  0.54296000  0.55486200  1
  O  O4  1  0.04024400  0.45688400  0.44971100  1
  O  O5  1  0.95672000  0.45989900  0.44950500  1
  O  O6  1  0.04333000  0.54017800  0.55495100  1
  O  O7  1  0.04120200  0.54212300  0.45001600  1
  O  O8  1  0.95904500  0.45774500  0.55459400  1
  O  O9  1  0.54277200  0.95895800  0.55450700  1
  O  O10  1  0.45767400  0.04116000  0.45014600  1
  O  O11  1  0.46005100  0.04295300  0.55518100  1
  O  O12  1  0.54020700  0.95698200  0.44940800  1
  O  O13  1  0.45675300  0.95991200  0.44995000  1
  O  O14  1  0.54354400  0.04017100  0.55468500  1
  O  O15  1  0.54121000  0.04216000  0.44967800  1
  O  O16  1  0.45925500  0.95774500  0.55490200  1
  O  O17  1  0.12582100  0.72376500  0.48602600  1
  O  O18  1  0.87413000  0.27648400  0.51611200  1
  O  O19  1  0.87457100  0.72502500  0.51392400  1
  O  O20  1  0.12542200  0.27477500  0.48894400  1
  O  O21  1  0.62587700  0.22380300  0.48626600  1
  O  O22  1  0.37417300  0.77654700  0.51592100  1
  O  O23  1  0.37459300  0.22504900  0.51360900  1
  O  O24  1  0.62544200  0.77483400  0.48805500  1
  O  O25  1  0.22556700  0.62683400  0.51628500  1
  O  O26  1  0.77426000  0.37368000  0.48896500  1
  O  O27  1  0.77555700  0.62660500  0.49009300  1
  O  O28  1  0.22437200  0.37310700  0.51421800  1
  O  O29  1  0.72560400  0.12688000  0.51653400  1
  O  O30  1  0.27428600  0.87371600  0.48871500  1
  O  O31  1  0.27553100  0.12655500  0.49094600  1
  O  O32  1  0.72432900  0.87305700  0.51476900  1
  O  O33  1  0.06968600  0.50325100  0.84248800  1
  O  O34  1  0.92902900  0.49569500  0.16210100  1
  O  O35  1  0.92984400  0.49706100  0.84153600  1
  O  O36  1  0.06872500  0.50494800  0.16278700  1
  O  O37  1  0.56977000  0.00320900  0.84252200  1
  O  O38  1  0.42880400  0.99557300  0.16188000  1
  O  O39  1  0.42992700  0.99707600  0.84158600  1
  O  O40  1  0.56850300  0.00472000  0.16307600  1
  O  O41  1  0.85504700  0.20292000  0.52286300  1
  O  O42  1  0.85534100  0.15242500  0.45469100  1
  O  O43  1  0.14483000  0.79730100  0.47944300  1
  O  O44  1  0.15270800  0.84090900  0.40208500  1
  O  O45  1  0.14516400  0.20137700  0.48364000  1
  O  O46  1  0.15262500  0.15714700  0.40698000  1
  O  O47  1  0.85476700  0.79841300  0.51935000  1
  O  O48  1  0.85381000  0.84828800  0.45015900  1
  O  O49  1  0.35510600  0.70298800  0.52252800  1
  O  O50  1  0.35547700  0.65234700  0.45460400  1
  O  O51  1  0.64487200  0.29734800  0.47975300  1
  O  O52  1  0.65282100  0.34085700  0.40226500  1
  O  O53  1  0.64518400  0.70147100  0.48227200  1
  O  O54  1  0.65287400  0.65752300  0.40528700  1
  O  O55  1  0.35477700  0.29850100  0.51837700  1
  O  O56  1  0.35356700  0.34807700  0.44872600  1
  O  O57  1  0.89107500  0.49988600  0.93957900  1
  O  O58  1  0.87232600  0.55865000  0.98135500  1
  O  O59  1  0.10711100  0.50940300  0.06483900  1
  O  O60  1  0.12194600  0.56909800  0.02251500  1
  O  O61  1  0.10781200  0.50041200  0.94101200  1
  O  O62  1  0.12610000  0.44158200  0.98303300  1
  O  O63  1  0.89108900  0.49067500  0.06354300  1
  O  O64  1  0.87657100  0.43105200  0.02069000  1
  O  O65  1  0.39118100  0.00004800  0.93943700  1
  O  O66  1  0.37269900  0.05874000  0.98166600  1
  O  O67  1  0.60711500  0.00921200  0.06517600  1
  O  O68  1  0.62185700  0.06888600  0.02279400  1
  O  O69  1  0.60792200  0.00044700  0.94122600  1
  O  O70  1  0.62629900  0.94142200  0.98256700  1
  O  O71  1  0.39106200  0.99071200  0.06329200  1
  O  O72  1  0.37629500  0.93110200  0.02055400  1
