# generated using pymatgen
data_Cu6H35C66(ClO8)3
_symmetry_space_group_name_H-M   'P 1'
_cell_length_a   18.85054600
_cell_length_b   18.62835200
_cell_length_c   18.64622100
_cell_angle_alpha   109.20656000
_cell_angle_beta   109.69376800
_cell_angle_gamma   109.71165700
_symmetry_Int_Tables_number   1
_chemical_formula_structural   Cu6H35C66(ClO8)3
_chemical_formula_sum   'Cu6 H35 C66 Cl3 O24'
_cell_volume   5027.95793776
_cell_formula_units_Z   1
loop_
 _symmetry_equiv_pos_site_id
 _symmetry_equiv_pos_as_xyz
  1  'x, y, z'
loop_
 _atom_site_type_symbol
 _atom_site_label
 _atom_site_symmetry_multiplicity
 _atom_site_fract_x
 _atom_site_fract_y
 _atom_site_fract_z
 _atom_site_occupancy
  Cu  Cu1  1  0.49691300  0.43553800  0.43597700  1
  Cu  Cu2  1  0.50177400  0.55768800  0.55995800  1
  Cu  Cu3  1  0.94273000  0.43574900  0.99731700  1
  Cu  Cu4  1  0.05949300  0.55771200  0.99464400  1
  Cu  Cu5  1  0.06001200  0.99463900  0.55455200  1
  Cu  Cu6  1  0.93733200  0.99425800  0.43607800  1
  H  H1  1  0.54145500  0.19326600  0.53916700  1
  H  H2  1  0.72086900  0.65613600  0.70936800  1
  H  H3  1  0.84355800  0.79171300  0.83486900  1
  H  H4  1  0.95262400  0.79168400  0.95269400  1
  H  H5  1  0.93926300  0.65608700  0.94335400  1
  H  H6  1  0.77922900  0.32867900  0.77658600  1
  H  H7  1  0.65412400  0.19314400  0.65299500  1
  H  H8  1  0.55241800  0.32890300  0.55056600  1
  H  H9  1  0.23475800  0.37580000  0.49614500  1
  H  H10  1  0.11897800  0.26070100  0.49244400  1
  H  H11  1  0.31402900  0.11968300  0.55455500  1
  H  H12  1  0.25287300  0.05802600  0.43047400  1
  H  H13  1  0.42658700  0.23281300  0.55680200  1
  H  H14  1  0.36789100  0.17095500  0.43259800  1
  H  H15  1  0.36667200  0.64231600  0.39197500  1
  H  H16  1  0.07975800  0.29941600  0.10524900  1
  H  H17  1  0.15012800  0.32169700  0.05449100  1
  H  H18  1  0.26148100  0.31769100  0.16587000  1
  H  H19  1  0.76681500  0.75898100  0.64093800  1
  H  H20  1  0.88176900  0.87062100  0.64069500  1
  H  H21  1  0.67809300  0.73535900  0.30263100  1
  H  H22  1  0.73821700  0.67235900  0.30061300  1
  H  H23  1  0.56619600  0.62247700  0.30316800  1
  H  H24  1  0.62583800  0.55901000  0.30037400  1
  H  H25  1  0.14426300  0.37764100  0.87284500  1
  H  H26  1  0.14381700  0.26258400  0.76049200  1
  H  H27  1  0.80876200  0.05554400  0.62679900  1
  H  H28  1  0.80702500  0.22920400  0.67901100  1
  H  H29  1  0.81016500  0.16832900  0.74250200  1
  H  H30  1  0.99370000  0.75832300  0.11378700  1
  H  H31  1  0.99039500  0.86989700  0.22561400  1
  H  H32  1  0.06508200  0.73807200  0.43084000  1
  H  H33  1  0.94206900  0.67395400  0.37120300  1
  H  H34  1  0.06415600  0.62532300  0.31747600  1
  H  H35  1  0.94116700  0.56072900  0.25819900  1
  C  C1  1  0.38054300  0.37974200  0.49682800  1
  C  C2  1  0.61501600  0.49276700  0.61302900  1
  C  C3  1  0.61793700  0.61324800  0.49876900  1
  C  C4  1  0.38447700  0.50121800  0.38316600  1
  C  C5  1  0.76624700  0.65180100  0.75894000  1
  C  C6  1  0.83665800  0.73012200  0.83032900  1
  C  C7  1  0.89773800  0.73010400  0.89598300  1
  C  C8  1  0.88955700  0.65176000  0.88947400  1
  C  C9  1  0.81961800  0.57175400  0.81682500  1
  C  C10  1  0.75592800  0.57179500  0.75203600  1
  C  C11  1  0.81229300  0.49240900  0.80959100  1
  C  C12  1  0.74011500  0.41311800  0.73787000  1
  C  C13  1  0.67623600  0.41317300  0.67321200  1
  C  C14  1  0.68368100  0.49250800  0.68038600  1
  C  C15  1  0.73142000  0.33310700  0.72933700  1
  C  C16  1  0.66025200  0.25483500  0.65860100  1
  C  C17  1  0.59723500  0.25489800  0.59492800  1
  C  C18  1  0.60465000  0.33323300  0.60214500  1
  C  C19  1  0.31138400  0.23779800  0.49190000  1
  C  C20  1  0.31054300  0.31189400  0.49452100  1
  C  C21  1  0.23971500  0.31932200  0.49492100  1
  C  C22  1  0.17339900  0.25342400  0.49215000  1
  C  C23  1  0.17860300  0.18072000  0.49193300  1
  C  C24  1  0.24983500  0.17670900  0.49216000  1
  C  C25  1  0.29143500  0.12195900  0.49262100  1
  C  C26  1  0.36441300  0.19439400  0.49354900  1
  C  C27  1  0.25281500  0.42988100  0.23813300  1
  C  C28  1  0.31807800  0.50394300  0.31687400  1
  C  C29  1  0.31751100  0.58169600  0.33089100  1
  C  C30  1  0.25420000  0.58337700  0.26657100  1
  C  C31  1  0.18920700  0.50615900  0.18723900  1
  C  C32  1  0.19138700  0.43089300  0.17771700  1
  C  C33  1  0.14555600  0.33524700  0.11482600  1
  C  C34  1  0.21740600  0.33391800  0.18610400  1
  C  C35  1  0.68420500  0.67649600  0.42437100  1
  C  C36  1  0.68747100  0.68054700  0.50022400  1
  C  C37  1  0.76002100  0.75227200  0.57880900  1
  C  C38  1  0.82585000  0.81562700  0.57869600  1
  C  C39  1  0.81841900  0.80978300  0.50003600  1
  C  C40  1  0.74513900  0.73849700  0.42431400  1
  C  C41  1  0.70105200  0.69612800  0.32712400  1
  C  C42  1  0.62912200  0.62346900  0.32721400  1
  C  C43  1  0.00322900  0.37967200  0.88068900  1
  C  C44  1  0.88131300  0.49259500  0.87706700  1
  C  C45  1  0.99905700  0.61357600  0.11138500  1
  C  C46  1  0.12053200  0.50297700  0.11711500  1
  C  C47  1  0.00208800  0.11224100  0.61507600  1
  C  C48  1  0.11247400  0.11233300  0.49283000  1
  C  C49  1  0.99582900  0.87722500  0.37560600  1
  C  C50  1  0.88477200  0.87689700  0.49806100  1
  C  C51  1  0.92981800  0.23691400  0.74447700  1
  C  C52  1  0.00489900  0.31189900  0.81447500  1
  C  C53  1  0.08264900  0.32045900  0.81894200  1
  C  C54  1  0.08242000  0.25462200  0.75513000  1
  C  C55  1  0.00431100  0.18100200  0.68406000  1
  C  C56  1  0.92933300  0.17622900  0.68171800  1
  C  C57  1  0.83288300  0.12020400  0.62979400  1
  C  C58  1  0.83357200  0.19190000  0.70304000  1
  C  C59  1  0.99786200  0.67770700  0.24988400  1
  C  C60  1  0.99711600  0.68104900  0.17731800  1
  C  C61  1  0.99496300  0.75216000  0.16978700  1
  C  C62  1  0.99251000  0.81547900  0.23325800  1
  C  C63  1  0.99545300  0.81027400  0.30675000  1
  C  C64  1  0.99892500  0.73967600  0.31190500  1
  C  C65  1  0.00247500  0.69809500  0.36757800  1
  C  C66  1  0.00178100  0.62551200  0.29488600  1
  Cl  Cl1  1  0.25573300  0.68347100  0.29136200  1
  Cl  Cl2  1  0.17450800  0.27657600  0.23469200  1
  Cl  Cl3  1  0.78760800  0.11846900  0.52828600  1
  O  O1  1  0.42593300  0.35662100  0.46297200  1
  O  O2  1  0.39462800  0.46094600  0.53203000  1
  O  O3  1  0.60206900  0.45977700  0.53217000  1
  O  O4  1  0.56978700  0.52678000  0.63651100  1
  O  O5  1  0.56861400  0.53370400  0.42848700  1
  O  O6  1  0.60807500  0.63513700  0.56825500  1
  O  O7  1  0.39259800  0.43061500  0.35929300  1
  O  O8  1  0.43314700  0.56944900  0.46393200  1
  O  O9  1  0.93489700  0.35656600  0.89175300  1
  O  O10  1  0.07017400  0.46097400  0.92634400  1
  O  O11  1  0.86147300  0.45952700  0.92504500  1
  O  O12  1  0.96039300  0.52638100  0.88717700  1
  O  O13  1  0.96901000  0.53412800  0.10249900  1
  O  O14  1  0.03043700  0.63518200  0.06339800  1
  O  O15  1  0.04242500  0.43144500  0.06948000  1
  O  O16  1  0.14008000  0.57008200  0.10268800  1
  O  O17  1  0.07082900  0.10172600  0.63484100  1
  O  O18  1  0.93147400  0.06395800  0.53606500  1
  O  O19  1  0.13534000  0.06452000  0.52409800  1
  O  O20  1  0.03314900  0.10155700  0.46252400  1
  O  O21  1  0.02980800  0.88754900  0.45546600  1
  O  O22  1  0.96279400  0.92468800  0.35495600  1
  O  O23  1  0.96516100  0.92474000  0.56620400  1
  O  O24  1  0.86094100  0.88705600  0.42843300  1
