# generated using pymatgen
data_VH18C40N4O11
_symmetry_space_group_name_H-M   'P 1'
_cell_length_a   6.24419100
_cell_length_b   34.96558600
_cell_length_c   41.81575000
_cell_angle_alpha   90.00000000
_cell_angle_beta   90.00000000
_cell_angle_gamma   90.00000000
_symmetry_Int_Tables_number   1
_chemical_formula_structural   VH18C40N4O11
_chemical_formula_sum   'V4 H72 C160 N16 O44'
_cell_volume   9129.70785759
_cell_formula_units_Z   4
loop_
 _symmetry_equiv_pos_site_id
 _symmetry_equiv_pos_as_xyz
  1  'x, y, z'
loop_
 _atom_site_type_symbol
 _atom_site_label
 _atom_site_symmetry_multiplicity
 _atom_site_fract_x
 _atom_site_fract_y
 _atom_site_fract_z
 _atom_site_occupancy
  V  V1  1  0.07918000  0.76013200  0.25000000  1
  V  V2  1  0.92082000  0.23986700  0.75000000  1
  V  V3  1  0.57918000  0.73986700  0.25000000  1
  V  V4  1  0.42082000  0.26013300  0.75000000  1
  H  H1  1  0.19409900  0.66486000  0.38895100  1
  H  H2  1  0.80590000  0.33514000  0.61104900  1
  H  H3  1  0.80590100  0.33514000  0.88895100  1
  H  H4  1  0.19410000  0.66486000  0.11104900  1
  H  H5  1  0.69410000  0.83514000  0.11104900  1
  H  H6  1  0.30590000  0.16486000  0.88895100  1
  H  H7  1  0.30590000  0.16486000  0.61104900  1
  H  H8  1  0.69410000  0.83514000  0.38895100  1
  H  H9  1  0.12274700  0.63165100  0.48574100  1
  H  H10  1  0.87725300  0.36834900  0.51425900  1
  H  H11  1  0.87725300  0.36834900  0.98574100  1
  H  H12  1  0.12274700  0.63165100  0.01425900  1
  H  H13  1  0.62274700  0.86834900  0.01425900  1
  H  H14  1  0.37725300  0.13165100  0.98574100  1
  H  H15  1  0.37725300  0.13165100  0.51425900  1
  H  H16  1  0.62274700  0.86834900  0.48574100  1
  H  H17  1  0.33263100  0.36139800  0.69548900  1
  H  H18  1  0.66736900  0.63860200  0.30451100  1
  H  H19  1  0.66736900  0.63860200  0.19548900  1
  H  H20  1  0.33263100  0.36139800  0.80451200  1
  H  H21  1  0.83263100  0.13860200  0.80451100  1
  H  H22  1  0.16736900  0.86139800  0.19548800  1
  H  H23  1  0.16736900  0.86139800  0.30451100  1
  H  H24  1  0.83263100  0.13860200  0.69548800  1
  H  H25  1  0.29108900  0.40640800  0.65132800  1
  H  H26  1  0.70891000  0.59359200  0.34867200  1
  H  H27  1  0.70891000  0.59359200  0.15132800  1
  H  H28  1  0.29109000  0.40640800  0.84867200  1
  H  H29  1  0.79109000  0.09359200  0.84867200  1
  H  H30  1  0.20891000  0.90640800  0.15132800  1
  H  H31  1  0.20891000  0.90640800  0.34867200  1
  H  H32  1  0.79109000  0.09359200  0.65132800  1
  H  H33  1  0.14156300  0.51097000  0.61008800  1
  H  H34  1  0.85843600  0.48903000  0.38991200  1
  H  H35  1  0.85843700  0.48903000  0.11008800  1
  H  H36  1  0.14156400  0.51097000  0.88991200  1
  H  H37  1  0.64156300  0.98903000  0.88991200  1
  H  H38  1  0.35843600  0.01097000  0.11008800  1
  H  H39  1  0.35843700  0.01097000  0.38991200  1
  H  H40  1  0.64156400  0.98903000  0.61008800  1
  H  H41  1  0.13541200  0.55531900  0.56648600  1
  H  H42  1  0.86458800  0.44468100  0.43351400  1
  H  H43  1  0.86458800  0.44468100  0.06648600  1
  H  H44  1  0.13541200  0.55531900  0.93351400  1
  H  H45  1  0.63541200  0.94468100  0.93351400  1
  H  H46  1  0.36458800  0.05531900  0.06648600  1
  H  H47  1  0.36458800  0.05531900  0.43351400  1
  H  H48  1  0.63541200  0.94468100  0.56648600  1
  H  H49  1  0.13271600  0.58966500  0.53093800  1
  H  H50  1  0.86728400  0.41033500  0.46906200  1
  H  H51  1  0.86728400  0.41033500  0.03093800  1
  H  H52  1  0.13271600  0.58966500  0.96906200  1
  H  H53  1  0.63271600  0.91033500  0.96906200  1
  H  H54  1  0.36728400  0.08966500  0.03093800  1
  H  H55  1  0.36728400  0.08966500  0.46906200  1
  H  H56  1  0.63271600  0.91033500  0.53093800  1
  H  H57  1  0.20208400  0.77575400  0.33339100  1
  H  H58  1  0.95787100  0.75731500  0.32741500  1
  H  H59  1  0.79791600  0.22424600  0.66666667  1
  H  H60  1  0.04212900  0.24268500  0.67258500  1
  H  H61  1  0.79791600  0.22424600  0.83339100  1
  H  H62  1  0.04212900  0.24268500  0.82741500  1
  H  H63  1  0.20208400  0.77575400  0.16660900  1
  H  H64  1  0.95787100  0.75731500  0.17258500  1
  H  H65  1  0.70208400  0.72424600  0.16660900  1
  H  H66  1  0.45787100  0.74268500  0.17258500  1
  H  H67  1  0.29791600  0.27575400  0.83339100  1
  H  H68  1  0.54212900  0.25731500  0.82741500  1
  H  H69  1  0.29791600  0.27575400  0.66666667  1
  H  H70  1  0.54212900  0.25731500  0.67258500  1
  H  H71  1  0.70208400  0.72424600  0.33339100  1
  H  H72  1  0.45787100  0.74268500  0.32741500  1
  C  C1  1  0.37296000  0.79674600  0.29505000  1
  C  C2  1  0.62704000  0.20325400  0.70495000  1
  C  C3  1  0.62704000  0.20325400  0.79505000  1
  C  C4  1  0.37296000  0.79674600  0.20495000  1
  C  C5  1  0.87296000  0.70325400  0.20495000  1
  C  C6  1  0.12704000  0.29674600  0.79505000  1
  C  C7  1  0.12704000  0.29674600  0.70495000  1
  C  C8  1  0.87296000  0.70325400  0.29505000  1
  C  C9  1  0.02937900  0.61273300  0.42696300  1
  C  C10  1  0.97062000  0.38726700  0.57303700  1
  C  C11  1  0.97062100  0.38726700  0.92696300  1
  C  C12  1  0.02938000  0.61273300  0.07303700  1
  C  C13  1  0.52937900  0.88726700  0.07303700  1
  C  C14  1  0.47062000  0.11273300  0.92696300  1
  C  C15  1  0.47062100  0.11273300  0.57303700  1
  C  C16  1  0.52938000  0.88726700  0.42696300  1
  C  C17  1  0.93532900  0.56228100  0.39314300  1
  C  C18  1  0.06467000  0.43771900  0.60685700  1
  C  C19  1  0.06467100  0.43771900  0.89314300  1
  C  C20  1  0.93533000  0.56228100  0.10685700  1
  C  C21  1  0.43532900  0.93771900  0.10685700  1
  C  C22  1  0.56467000  0.06228100  0.89314300  1
  C  C23  1  0.56467100  0.06228100  0.60685700  1
  C  C24  1  0.43533000  0.93771900  0.39314300  1
  C  C25  1  0.81040700  0.61855500  0.34763000  1
  C  C26  1  0.18959300  0.38144500  0.65237000  1
  C  C27  1  0.18959300  0.38144500  0.84763000  1
  C  C28  1  0.81040700  0.61855500  0.15237000  1
  C  C29  1  0.31040700  0.88144500  0.15237000  1
  C  C30  1  0.68959300  0.11855500  0.84763000  1
  C  C31  1  0.68959300  0.11855500  0.65237000  1
  C  C32  1  0.31040700  0.88144500  0.34763000  1
  C  C33  1  0.78452200  0.64419400  0.32296000  1
  C  C34  1  0.21547800  0.35580600  0.67704000  1
  C  C35  1  0.21547800  0.35580600  0.82296000  1
  C  C36  1  0.78452200  0.64419400  0.17704000  1
  C  C37  1  0.28452200  0.85580600  0.17704000  1
  C  C38  1  0.71547800  0.14419400  0.82296000  1
  C  C39  1  0.71547800  0.14419400  0.67704000  1
  C  C40  1  0.28452200  0.85580600  0.32296000  1
  C  C41  1  0.05297800  0.68461900  0.34568500  1
  C  C42  1  0.94702200  0.31538100  0.65431500  1
  C  C43  1  0.94702200  0.31538100  0.84568500  1
  C  C44  1  0.05297800  0.68461900  0.15431500  1
  C  C45  1  0.55297800  0.81538100  0.15431500  1
  C  C46  1  0.44702200  0.18461900  0.84568500  1
  C  C47  1  0.44702200  0.18461900  0.65431500  1
  C  C48  1  0.55297800  0.81538100  0.34568500  1
  C  C49  1  0.07872000  0.65879000  0.37040600  1
  C  C50  1  0.92128000  0.34121000  0.62959400  1
  C  C51  1  0.92128000  0.34121000  0.87040600  1
  C  C52  1  0.07872000  0.65879000  0.12959400  1
  C  C53  1  0.57872000  0.84121000  0.12959400  1
  C  C54  1  0.42128000  0.15879000  0.87040600  1
  C  C55  1  0.42128000  0.15879000  0.62959400  1
  C  C56  1  0.57872000  0.84121000  0.37040600  1
  C  C57  1  0.95779900  0.62569000  0.37145900  1
  C  C58  1  0.04220000  0.37431000  0.62854100  1
  C  C59  1  0.04220100  0.37431000  0.87145900  1
  C  C60  1  0.95780000  0.62569000  0.12854100  1
  C  C61  1  0.45779900  0.87431000  0.12854100  1
  C  C62  1  0.54220000  0.12569000  0.87145900  1
  C  C63  1  0.54220100  0.12569000  0.62854100  1
  C  C64  1  0.45780000  0.87431000  0.37145900  1
  C  C65  1  0.99271700  0.54988500  0.44857500  1
  C  C66  1  0.00728300  0.45011500  0.55142500  1
  C  C67  1  0.00728300  0.45011500  0.94857500  1
  C  C68  1  0.99271700  0.54988500  0.05142500  1
  C  C69  1  0.49271700  0.95011500  0.05142500  1
  C  C70  1  0.50728300  0.04988500  0.94857500  1
  C  C71  1  0.50728300  0.04988500  0.55142500  1
  C  C72  1  0.49271700  0.95011500  0.44857500  1
  C  C73  1  0.03768200  0.58800000  0.45264500  1
  C  C74  1  0.96231700  0.41200000  0.54735500  1
  C  C75  1  0.96231800  0.41200000  0.95264500  1
  C  C76  1  0.03768300  0.58800000  0.04735500  1
  C  C77  1  0.53768200  0.91200000  0.04735500  1
  C  C78  1  0.46231700  0.08800000  0.95264500  1
  C  C79  1  0.46231800  0.08800000  0.54735500  1
  C  C80  1  0.53768300  0.91200000  0.45264500  1
  C  C81  1  0.08772100  0.60162800  0.48247000  1
  C  C82  1  0.91227800  0.39837200  0.51753000  1
  C  C83  1  0.91227900  0.39837200  0.98247000  1
  C  C84  1  0.08772200  0.60162800  0.01753000  1
  C  C85  1  0.58772100  0.89837200  0.01753000  1
  C  C86  1  0.41227800  0.10162800  0.98247000  1
  C  C87  1  0.41227900  0.10162800  0.51753000  1
  C  C88  1  0.58772200  0.89837200  0.48247000  1
  C  C89  1  0.94230800  0.53709500  0.41848700  1
  C  C90  1  0.05769100  0.46290500  0.58151200  1
  C  C91  1  0.05769200  0.46290500  0.91848700  1
  C  C92  1  0.94230800  0.53709500  0.08151200  1
  C  C93  1  0.44230800  0.96290500  0.08151200  1
  C  C94  1  0.55769100  0.03709500  0.91848800  1
  C  C95  1  0.55769200  0.03709500  0.58151200  1
  C  C96  1  0.44230900  0.96290500  0.41848800  1
  C  C97  1  0.90713400  0.67690800  0.32158800  1
  C  C98  1  0.09286600  0.32309200  0.67841200  1
  C  C99  1  0.09286600  0.32309200  0.82158800  1
  C  C100  1  0.90713400  0.67690800  0.17841200  1
  C  C101  1  0.40713400  0.82309200  0.17841200  1
  C  C102  1  0.59286600  0.17690800  0.82158800  1
  C  C103  1  0.59286600  0.17690800  0.67841200  1
  C  C104  1  0.40713400  0.82309200  0.32158800  1
  C  C105  1  0.04972200  0.51347200  0.53042000  1
  C  C106  1  0.95027700  0.48652800  0.46958000  1
  C  C107  1  0.95027800  0.48652800  0.03042000  1
  C  C108  1  0.04972300  0.51347200  0.96958000  1
  C  C109  1  0.54972200  0.98652800  0.96958000  1
  C  C110  1  0.45027700  0.01347200  0.03042000  1
  C  C111  1  0.45027800  0.01347200  0.46958000  1
  C  C112  1  0.54972300  0.98652800  0.53042000  1
  C  C113  1  0.95332400  0.46145100  0.49546700  1
  C  C114  1  0.04667500  0.53854900  0.50453300  1
  C  C115  1  0.04667600  0.53854900  0.99546700  1
  C  C116  1  0.95332500  0.46145100  0.00453300  1
  C  C117  1  0.45332400  0.03854900  0.00453300  1
  C  C118  1  0.54667500  0.96145100  0.99546700  1
  C  C119  1  0.54667600  0.96145100  0.50453300  1
  C  C120  1  0.45332500  0.03854900  0.49546700  1
  C  C121  1  0.00315600  0.47509700  0.52570000  1
  C  C122  1  0.99684300  0.52490300  0.47430000  1
  C  C123  1  0.99684400  0.52490300  0.02570000  1
  C  C124  1  0.00315700  0.47509700  0.97430000  1
  C  C125  1  0.50315600  0.02490300  0.97430000  1
  C  C126  1  0.49684300  0.97509700  0.02570000  1
  C  C127  1  0.49684400  0.97509700  0.47430000  1
  C  C128  1  0.50315700  0.02490300  0.52570000  1
  C  C129  1  0.09855400  0.52604100  0.56111000  1
  C  C130  1  0.90144500  0.47395900  0.43889000  1
  C  C131  1  0.90144600  0.47395900  0.06111000  1
  C  C132  1  0.09855500  0.52604100  0.93889000  1
  C  C133  1  0.59855400  0.97395900  0.93889000  1
  C  C134  1  0.40144500  0.02604100  0.06111000  1
  C  C135  1  0.40144600  0.02604100  0.43889000  1
  C  C136  1  0.59855500  0.97395900  0.56111000  1
  C  C137  1  0.10231500  0.50085500  0.58637200  1
  C  C138  1  0.89768400  0.49914500  0.41362700  1
  C  C139  1  0.89768500  0.49914500  0.08637200  1
  C  C140  1  0.10231600  0.50085500  0.91362800  1
  C  C141  1  0.60231500  0.99914500  0.91362800  1
  C  C142  1  0.39768400  0.00085600  0.08637200  1
  C  C143  1  0.39768500  0.00085500  0.41362800  1
  C  C144  1  0.60231600  0.99914400  0.58637200  1
  C  C145  1  0.09257900  0.57721100  0.50826200  1
  C  C146  1  0.90742000  0.42278900  0.49173800  1
  C  C147  1  0.90742100  0.42278900  0.00826200  1
  C  C148  1  0.09258000  0.57721100  0.99173800  1
  C  C149  1  0.59257900  0.92278900  0.99173800  1
  C  C150  1  0.40742000  0.07721100  0.00826200  1
  C  C151  1  0.40742100  0.07721100  0.49173800  1
  C  C152  1  0.59258000  0.92278900  0.50826200  1
  C  C153  1  0.16948100  0.72102500  0.34712800  1
  C  C154  1  0.83051900  0.27897500  0.65287200  1
  C  C155  1  0.83051900  0.27897500  0.84712800  1
  C  C156  1  0.16948100  0.72102500  0.15287200  1
  C  C157  1  0.66948100  0.77897500  0.15287200  1
  C  C158  1  0.33051900  0.22102500  0.84712800  1
  C  C159  1  0.33051900  0.22102500  0.65287200  1
  C  C160  1  0.66948100  0.77897500  0.34712800  1
  N  N1  1  0.97733600  0.59972000  0.39762000  1
  N  N2  1  0.02266400  0.40028000  0.60238000  1
  N  N3  1  0.02266400  0.40028000  0.89762000  1
  N  N4  1  0.97733600  0.59972000  0.10238000  1
  N  N5  1  0.47733600  0.90028000  0.10238000  1
  N  N6  1  0.52266400  0.09972000  0.89762000  1
  N  N7  1  0.52266400  0.09972000  0.60238000  1
  N  N8  1  0.47733600  0.90028000  0.39762000  1
  N  N9  1  0.12093100  0.75139900  0.32550700  1
  N  N10  1  0.87906900  0.24860100  0.67449300  1
  N  N11  1  0.87906900  0.24860100  0.82550700  1
  N  N12  1  0.12093100  0.75139900  0.17449300  1
  N  N13  1  0.62093100  0.74860100  0.17449300  1
  N  N14  1  0.37906900  0.25139900  0.82550700  1
  N  N15  1  0.37906900  0.25139900  0.67449300  1
  N  N16  1  0.62093100  0.74860100  0.32550700  1
  O  O1  1  0.54263700  0.77757500  0.21534800  1
  O  O2  1  0.45736300  0.22242500  0.78465200  1
  O  O3  1  0.45736300  0.22242500  0.71534800  1
  O  O4  1  0.54263700  0.77757500  0.28465200  1
  O  O5  1  0.04263700  0.72242500  0.28465200  1
  O  O6  1  0.95736300  0.27757500  0.71534800  1
  O  O7  1  0.95736300  0.27757500  0.78465200  1
  O  O8  1  0.04263700  0.72242500  0.21534800  1
  O  O9  1  0.17797000  0.79681900  0.28270600  1
  O  O10  1  0.82203000  0.20318100  0.71729400  1
  O  O11  1  0.82203000  0.20318100  0.78270600  1
  O  O12  1  0.17797000  0.79681900  0.21729400  1
  O  O13  1  0.67797000  0.70318100  0.21729400  1
  O  O14  1  0.32203000  0.29681900  0.78270600  1
  O  O15  1  0.32203000  0.29681900  0.71729400  1
  O  O16  1  0.67797000  0.70318100  0.28270600  1
  O  O17  1  0.32393200  0.72570100  0.25000000  1
  O  O18  1  0.67606800  0.27429900  0.75000000  1
  O  O19  1  0.82393200  0.77429900  0.25000000  1
  O  O20  1  0.17606800  0.22570100  0.75000000  1
  O  O21  1  0.06576100  0.65015600  0.43164000  1
  O  O22  1  0.93423800  0.34984400  0.56836000  1
  O  O23  1  0.93423900  0.34984400  0.93164000  1
  O  O24  1  0.06576200  0.65015600  0.06836000  1
  O  O25  1  0.56576100  0.84984400  0.06836000  1
  O  O26  1  0.43423800  0.15015600  0.93164000  1
  O  O27  1  0.43423900  0.15015600  0.56836000  1
  O  O28  1  0.56576200  0.84984400  0.43164000  1
  O  O29  1  0.11048400  0.45089100  0.63622800  1
  O  O30  1  0.88951500  0.54910900  0.36377200  1
  O  O31  1  0.88951600  0.54910900  0.13622800  1
  O  O32  1  0.11048500  0.45089100  0.86377200  1
  O  O33  1  0.61048400  0.04910900  0.86377200  1
  O  O34  1  0.38951500  0.95089100  0.13622800  1
  O  O35  1  0.38951600  0.95089100  0.36377200  1
  O  O36  1  0.61048500  0.04910900  0.63622800  1
  O  O37  1  0.30071600  0.72613400  0.36828500  1
  O  O38  1  0.69928400  0.27386600  0.63171500  1
  O  O39  1  0.69928300  0.27386600  0.86828500  1
  O  O40  1  0.30071600  0.72613400  0.13171500  1
  O  O41  1  0.80071600  0.77386600  0.13171500  1
  O  O42  1  0.19928400  0.22613400  0.86828500  1
  O  O43  1  0.19928400  0.22613400  0.63171500  1
  O  O44  1  0.80071600  0.77386600  0.36828500  1
