# generated using pymatgen
data_ZnH13C21NO10
_symmetry_space_group_name_H-M   'P 1'
_cell_length_a   13.44213000
_cell_length_b   8.55245200
_cell_length_c   19.28492400
_cell_angle_alpha   90.00000000
_cell_angle_beta   91.04528300
_cell_angle_gamma   90.00000000
_symmetry_Int_Tables_number   1
_chemical_formula_structural   ZnH13C21NO10
_chemical_formula_sum   'Zn2 H26 C42 N2 O20'
_cell_volume   2216.68708597
_cell_formula_units_Z   2
loop_
 _symmetry_equiv_pos_site_id
 _symmetry_equiv_pos_as_xyz
  1  'x, y, z'
loop_
 _atom_site_type_symbol
 _atom_site_label
 _atom_site_symmetry_multiplicity
 _atom_site_fract_x
 _atom_site_fract_y
 _atom_site_fract_z
 _atom_site_occupancy
  Zn  Zn1  1  0.88910600  0.50297500  0.50239900  1
  Zn  Zn2  1  0.11089500  0.50297500  0.49760000  1
  H  H1  1  0.03768600  0.00240000  0.54894600  1
  H  H2  1  0.96231500  0.00240000  0.45105400  1
  H  H3  1  0.98736300  0.25359700  0.73431800  1
  H  H4  1  0.01424600  0.75282700  0.26552600  1
  H  H5  1  0.01263700  0.25359600  0.26568200  1
  H  H6  1  0.98575400  0.75282600  0.73447300  1
  H  H7  1  0.12347000  0.84013700  0.04479900  1
  H  H8  1  0.11810200  0.16214000  0.95378100  1
  H  H9  1  0.87653100  0.84013700  0.95520100  1
  H  H10  1  0.88189900  0.16214000  0.04621900  1
  H  H11  1  0.40610200  0.52733800  0.67082500  1
  H  H12  1  0.53518200  0.68795700  0.37313500  1
  H  H13  1  0.59389900  0.52733800  0.32917500  1
  H  H14  1  0.46481800  0.68795700  0.62686400  1
  H  H15  1  0.20284000  0.89385300  0.18442300  1
  H  H16  1  0.18329800  0.11266400  0.81249800  1
  H  H17  1  0.79716000  0.89385300  0.81557700  1
  H  H18  1  0.81670200  0.11266400  0.18750200  1
  H  H19  1  0.25004400  0.63581000  0.63398000  1
  H  H20  1  0.74995600  0.63581000  0.36602000  1
  H  H21  1  0.56412300  0.28113400  0.67776000  1
  H  H22  1  0.38126200  0.63288800  0.32329300  1
  H  H23  1  0.43587800  0.28113400  0.32224000  1
  H  H24  1  0.61873900  0.63288800  0.67670700  1
  H  H25  1  0.24964700  0.36147000  0.36317700  1
  H  H26  1  0.75035300  0.36147000  0.63682300  1
  C  C1  1  0.00848900  0.14241900  0.63668500  1
  C  C2  1  0.99272400  0.86335600  0.36320100  1
  C  C3  1  0.99151100  0.14241900  0.36331500  1
  C  C4  1  0.00727600  0.86335600  0.63679900  1
  C  C5  1  0.99466200  0.14358100  0.70729500  1
  C  C6  1  0.00863000  0.86284600  0.29271400  1
  C  C7  1  0.00533800  0.14358100  0.29270500  1
  C  C8  1  0.99137100  0.86284600  0.70728600  1
  C  C9  1  0.99052400  0.00339000  0.74316200  1
  C  C10  1  0.00947700  0.00339000  0.25683800  1
  C  C11  1  0.02143700  0.00269400  0.60318700  1
  C  C12  1  0.97856400  0.00269400  0.39681300  1
  C  C13  1  0.07166000  0.91127000  0.07317700  1
  C  C14  1  0.06344100  0.09223100  0.92607200  1
  C  C15  1  0.92834100  0.91127000  0.92682300  1
  C  C16  1  0.93656000  0.09223100  0.07392800  1
  C  C17  1  0.07475600  0.91151000  0.14477200  1
  C  C18  1  0.05900000  0.09556000  0.85466900  1
  C  C19  1  0.92524500  0.91151000  0.85522800  1
  C  C20  1  0.94100000  0.09556000  0.14533100  1
  C  C21  1  0.00967100  0.00450600  0.18102400  1
  C  C22  1  0.99032900  0.00450600  0.81897600  1
  C  C23  1  0.00189100  0.00043200  0.03780400  1
  C  C24  1  0.99810900  0.00043200  0.96219600  1
  C  C25  1  0.00489200  0.72117000  0.59482500  1
  C  C26  1  0.99466900  0.28445900  0.40531900  1
  C  C27  1  0.99510800  0.72117000  0.40517400  1
  C  C28  1  0.00533100  0.28445900  0.59468100  1
  C  C29  1  0.29113800  0.49229800  0.43631000  1
  C  C30  1  0.70886300  0.49229800  0.56369000  1
  C  C31  1  0.29160400  0.51846900  0.55741500  1
  C  C32  1  0.70839700  0.51846900  0.44258500  1
  C  C33  1  0.39427000  0.52576800  0.55921000  1
  C  C34  1  0.60573100  0.52576800  0.44079000  1
  C  C35  1  0.44576400  0.51437000  0.49872400  1
  C  C36  1  0.55423700  0.51437000  0.50127600  1
  C  C37  1  0.39462200  0.49789800  0.43643400  1
  C  C38  1  0.60537900  0.49789800  0.56356600  1
  C  C39  1  0.44983100  0.56049100  0.62496600  1
  C  C40  1  0.55016900  0.56049100  0.37503300  1
  C  C41  1  0.54751200  0.47195700  0.62830100  1
  C  C42  1  0.45248800  0.47195700  0.37169900  1
  N  N1  1  0.24150600  0.50321100  0.49640500  1
  N  N2  1  0.75849400  0.50321100  0.50359500  1
  O  O1  1  0.08849800  0.67318500  0.56798100  1
  O  O2  1  0.91093400  0.33453200  0.43115000  1
  O  O3  1  0.91150300  0.67318500  0.43201900  1
  O  O4  1  0.08906600  0.33453200  0.56885000  1
  O  O5  1  0.91756700  0.66524800  0.57597700  1
  O  O6  1  0.08226400  0.33845300  0.42500300  1
  O  O7  1  0.08243300  0.66524800  0.42402300  1
  O  O8  1  0.91773700  0.33845300  0.57499700  1
  O  O9  1  0.14452500  0.82378600  0.17942100  1
  O  O10  1  0.12606700  0.18352900  0.81930700  1
  O  O11  1  0.85547500  0.82378600  0.82057800  1
  O  O12  1  0.87393400  0.18352900  0.18069200  1
  O  O13  1  0.24060200  0.52670500  0.61794000  1
  O  O14  1  0.75939900  0.52670500  0.38206000  1
  O  O15  1  0.52765800  0.31273400  0.63495100  1
  O  O16  1  0.39893600  0.52289300  0.31326600  1
  O  O17  1  0.47234200  0.31273400  0.36504800  1
  O  O18  1  0.60106500  0.52289300  0.68673400  1
  O  O19  1  0.23880000  0.47246900  0.37557100  1
  O  O20  1  0.76120000  0.47246900  0.62442900  1
