# generated using pymatgen
data_ZnH14C18NO4
_symmetry_space_group_name_H-M   'P 1'
_cell_length_a   8.53499500
_cell_length_b   11.01549700
_cell_length_c   14.24910000
_cell_angle_alpha   90.85525500
_cell_angle_beta   90.08486000
_cell_angle_gamma   102.64605500
_symmetry_Int_Tables_number   1
_chemical_formula_structural   ZnH14C18NO4
_chemical_formula_sum   'Zn2 H28 C36 N2 O8'
_cell_volume   1307.00085108
_cell_formula_units_Z   2
loop_
 _symmetry_equiv_pos_site_id
 _symmetry_equiv_pos_as_xyz
  1  'x, y, z'
loop_
 _atom_site_type_symbol
 _atom_site_label
 _atom_site_symmetry_multiplicity
 _atom_site_fract_x
 _atom_site_fract_y
 _atom_site_fract_z
 _atom_site_occupancy
  Zn  Zn1  1  0.50536900  0.51661400  0.89611200  1
  Zn  Zn2  1  0.49398900  0.48385700  0.10348600  1
  H  H1  1  0.97647600  0.41521200  0.95431500  1
  H  H2  1  0.02288200  0.58525900  0.04528100  1
  H  H3  1  0.63259100  0.08183800  0.00511500  1
  H  H4  1  0.36676700  0.91863300  0.99448100  1
  H  H5  1  0.28219400  0.11070100  0.98625200  1
  H  H6  1  0.71716400  0.88977000  0.01334300  1
  H  H7  1  0.23451000  0.50836300  0.44038100  1
  H  H8  1  0.76485100  0.49211800  0.55921500  1
  H  H9  1  0.55938300  0.30093800  0.45460200  1
  H  H10  1  0.43997700  0.69954100  0.54499500  1
  H  H11  1  0.08889700  0.41671900  0.58575800  1
  H  H12  1  0.20270800  0.41398400  0.69232100  1
  H  H13  1  0.04973700  0.28013600  0.65808900  1
  H  H14  1  0.12445900  0.27950600  0.44965300  1
  H  H15  1  0.09124400  0.14590600  0.52498800  1
  H  H16  1  0.27213600  0.18483500  0.45588000  1
  H  H17  1  0.40475500  0.28369800  0.70109200  1
  H  H18  1  0.44023000  0.19156000  0.60071300  1
  H  H19  1  0.25638500  0.14718800  0.66658700  1
  H  H20  1  0.55913600  0.80892900  0.39889000  1
  H  H21  1  0.59458400  0.71678100  0.29851100  1
  H  H22  1  0.74296900  0.85328800  0.33300500  1
  H  H23  1  0.72722400  0.81563400  0.54372300  1
  H  H24  1  0.90810600  0.85458000  0.47460700  1
  H  H25  1  0.87491600  0.72097400  0.54993600  1
  H  H26  1  0.79664800  0.58651000  0.30726700  1
  H  H27  1  0.91044900  0.58375200  0.41383000  1
  H  H28  1  0.94962600  0.72034700  0.34151200  1
  C  C1  1  0.07130600  0.25501600  0.97538200  1
  C  C2  1  0.92805200  0.74545500  0.02421400  1
  C  C3  1  0.94850100  0.31632200  0.96534200  1
  C  C4  1  0.05085700  0.68414900  0.03425400  1
  C  C5  1  0.79176300  0.25588500  0.97871400  1
  C  C6  1  0.20759500  0.74458600  0.02088300  1
  C  C7  1  0.75587200  0.12965300  0.99447100  1
  C  C8  1  0.24348600  0.87081800  0.00512500  1
  C  C9  1  0.87791800  0.06483400  0.99562200  1
  C  C10  1  0.12144000  0.93563700  0.00397300  1
  C  C11  1  0.03650200  0.12778500  0.98844200  1
  C  C12  1  0.96285600  0.87268600  0.01115400  1
  C  C13  1  0.84137500  0.93750100  0.00672000  1
  C  C14  1  0.15798200  0.06297000  0.99287600  1
  C  C15  1  0.76555100  0.66926300  0.01652500  1
  C  C16  1  0.23380700  0.33120800  0.98307200  1
  C  C17  1  0.67100600  0.33132300  0.98552200  1
  C  C18  1  0.32835200  0.66914800  0.01407500  1
  C  C19  1  0.35482500  0.50507300  0.46830000  1
  C  C20  1  0.64453500  0.49540700  0.53129700  1
  C  C21  1  0.39327000  0.41071100  0.53601600  1
  C  C22  1  0.60609000  0.58976800  0.46358100  1
  C  C23  1  0.46678600  0.60906900  0.52358400  1
  C  C24  1  0.53257500  0.39141000  0.47601300  1
  C  C25  1  0.50363600  0.51325800  0.59012300  1
  C  C26  1  0.49572500  0.48722100  0.40947400  1
  C  C27  1  0.50901100  0.52655900  0.69249100  1
  C  C28  1  0.49034800  0.47391700  0.30710600  1
  C  C29  1  0.26759300  0.30510800  0.57660800  1
  C  C30  1  0.14456800  0.35744500  0.63174600  1
  C  C31  1  0.18340700  0.22357100  0.49668400  1
  C  C32  1  0.34747200  0.22708200  0.64034500  1
  C  C33  1  0.73176500  0.69537300  0.42298800  1
  C  C34  1  0.65188200  0.77339900  0.35925400  1
  C  C35  1  0.81595400  0.77690800  0.50291200  1
  C  C36  1  0.85478800  0.64303700  0.36784700  1
  N  N1  1  0.51163300  0.53293600  0.77362500  1
  N  N2  1  0.48772500  0.46753500  0.22597200  1
  O  O1  1  0.69999200  0.61320700  0.09188900  1
  O  O2  1  0.29936600  0.38726400  0.90770800  1
  O  O3  1  0.70429300  0.64461600  0.93201500  1
  O  O4  1  0.29506500  0.35585500  0.06758200  1
  O  O5  1  0.63826300  0.38748300  0.90975000  1
  O  O6  1  0.36109500  0.61298800  0.08984700  1
  O  O7  1  0.62182500  0.35599600  0.06952700  1
  O  O8  1  0.37753300  0.64447500  0.93007000  1
