# generated using pymatgen
data_ZnH6C13NO4
_symmetry_space_group_name_H-M   'P 1'
_cell_length_a   8.51937500
_cell_length_b   9.20698500
_cell_length_c   13.05755700
_cell_angle_alpha   90.57825900
_cell_angle_beta   86.47087700
_cell_angle_gamma   93.27358500
_symmetry_Int_Tables_number   1
_chemical_formula_structural   ZnH6C13NO4
_chemical_formula_sum   'Zn2 H12 C26 N2 O8'
_cell_volume   1020.57291915
_cell_formula_units_Z   2
loop_
 _symmetry_equiv_pos_site_id
 _symmetry_equiv_pos_as_xyz
  1  'x, y, z'
loop_
 _atom_site_type_symbol
 _atom_site_label
 _atom_site_symmetry_multiplicity
 _atom_site_fract_x
 _atom_site_fract_y
 _atom_site_fract_z
 _atom_site_occupancy
  Zn  Zn1  1  0.44633500  0.16438600  0.49546900  1
  Zn  Zn2  1  0.43302700  0.84006800  0.49967800  1
  H  H1  1  0.36388600  0.99627900  0.18534100  1
  H  H2  1  0.39616600  0.00142600  0.00024600  1
  H  H3  1  0.95238600  0.04012400  0.57007900  1
  H  H4  1  0.64808600  0.99816900  0.83701200  1
  H  H5  1  0.75254500  0.99555200  0.99439100  1
  H  H6  1  0.29103700  0.99937000  0.83746800  1
  H  H7  1  0.72444000  0.03066100  0.14891200  1
  H  H8  1  0.93131800  0.95566800  0.42399200  1
  H  H9  1  0.43421700  0.37064100  0.33489000  1
  H  H10  1  0.42053300  0.63619200  0.33971600  1
  H  H11  1  0.44465800  0.63377900  0.66024700  1
  H  H12  1  0.45841000  0.36823200  0.65541100  1
  C  C1  1  0.97897800  0.00499400  0.13358200  1
  C  C2  1  0.11127600  0.99866100  0.19060200  1
  C  C3  1  0.26012900  0.99994100  0.14210000  1
  C  C4  1  0.27897000  0.00222800  0.03695200  1
  C  C5  1  0.14971000  0.00197300  0.97874200  1
  C  C6  1  0.99921000  0.00371500  0.02607600  1
  C  C7  1  0.17290300  0.99967500  0.87269700  1
  C  C8  1  0.04619000  0.00118700  0.81211000  1
  C  C9  1  0.89591700  0.00148300  0.85896900  1
  C  C10  1  0.87262200  0.00011400  0.96415700  1
  C  C11  1  0.06538500  0.00595100  0.70560400  1
  C  C12  1  0.93581500  0.02293500  0.65079700  1
  C  C13  1  0.78680700  0.01608400  0.69665800  1
  C  C14  1  0.76596200  0.00301100  0.80101100  1
  C  C15  1  0.83083700  0.01377700  0.18606900  1
  C  C16  1  0.81564900  0.99920000  0.29130800  1
  C  C17  1  0.94570500  0.97678400  0.34365200  1
  C  C18  1  0.09342100  0.98739200  0.29629600  1
  C  C19  1  0.65358800  0.01251500  0.63216700  1
  C  C20  1  0.66508900  0.00310500  0.35192100  1
  C  C21  1  0.22633000  0.99165000  0.36205500  1
  C  C22  1  0.21583300  0.00166400  0.64457700  1
  C  C23  1  0.43744200  0.42831400  0.40731300  1
  C  C24  1  0.42752100  0.57731800  0.41032100  1
  C  C25  1  0.44142000  0.57610700  0.58782400  1
  C  C26  1  0.45136000  0.42710600  0.58481300  1
  N  N1  1  0.42845000  0.64944900  0.50055300  1
  N  N2  1  0.45059900  0.35499400  0.49457000  1
  O  O1  1  0.59977900  0.88504700  0.59998400  1
  O  O2  1  0.60580200  0.13608600  0.60018800  1
  O  O3  1  0.61970200  0.12959200  0.38719700  1
  O  O4  1  0.60271300  0.87858300  0.38727900  1
  O  O5  1  0.27964000  0.11906200  0.39503700  1
  O  O6  1  0.27397500  0.86847400  0.39467000  1
  O  O7  1  0.25992100  0.87519800  0.60813900  1
  O  O8  1  0.27726900  0.12586500  0.60826400  1
