# Generated by REPEAT Assigner based on pymatgen
data_DB0-m3_o13_o25_f0_pcu.sym.126
_audit_creation_date              2022-05-24
_audit_creation_method            REPEAT_Assigner
_cell_length_a                    11.892228
_cell_length_b                    13.062641
_cell_length_c                    15.990051
_cell_angle_alpha                 89.994479
_cell_angle_beta                  85.866966
_cell_angle_gamma                 91.194144
_cell_volume                      2476.955807
_symmetry_space_group_name_H-M    P1
_symmetry_Int_Tables_number       1
loop_
    _symmetry_equiv_pos_site_id
    _symmetry_equiv_pos_as_xyz
    1  x,y,z
loop_
    _atom_site_type_symbol
    _atom_site_label
    _atom_site_fract_x
    _atom_site_fract_y
    _atom_site_fract_z
    _atom_type_partial_charge
    O   O1   0.415326  0.653208  0.506705  -0.697493
    O   O2   0.580636  0.337345  0.499509  -0.683519
    O   O3   0.609411  0.641761  0.492695  -0.708461
    O   O4   0.386552  0.348794  0.513514  -0.691995
    C   C1   0.516859  0.695122  0.498560  0.828805
    C   C2   0.479096  0.295412  0.507709  0.804033
    O   O5   0.401861  0.504069  0.633904  -0.700246
    O   O6   0.594108  0.486507  0.372286  -0.698882
    O   O7   0.596037  0.492679  0.621337  -0.703581
    O   O8   0.399934  0.497901  0.384855  -0.705733
    C   C3   0.499743  0.499201  0.666388  0.891134
    C   C4   0.496224  0.491390  0.339801  0.897114
    Zn  Zn1  0.370022  0.502810  0.511157  1.050899
    Zn  Zn2  0.625945  0.487748  0.495035  1.067472
    C   C5   0.453418  0.580916  0.033323  -0.144091
    C   C6   0.542507  0.410237  0.972836  -0.150192
    C   C7   0.559206  0.575241  0.974202  -0.161844
    C   C8   0.436716  0.415919  0.031953  -0.158715
    H   H1   0.610100  0.641375  0.947986  0.063339
    H   H2   0.385805  0.349797  0.058162  0.064406
    H   H3   0.416324  0.651658  0.060724  0.064673
    H   H4   0.579616  0.339519  0.945383  0.064484
    H   H5   0.688508  0.482154  0.046883  0.060987
    H   H6   0.307449  0.509045  0.959224  0.063383
    C   C9   0.501066  0.499289  0.756035  -0.185383
    C   C10  0.494888  0.491547  0.250146  -0.190719
    C   C11  0.393825  0.502872  0.980399  -0.168023
    C   C12  0.602105  0.488287  0.025753  -0.159731
    C   C13  0.499591  0.497166  0.922915  0.680134
    C   C14  0.496334  0.493990  0.083249  0.669345
    C   C15  0.500881  0.498630  0.831388  -0.374773
    C   C16  0.495023  0.492407  0.174789  -0.369630
    C   C17  0.468719  0.183688  0.512735  -0.092494
    C   C18  0.527239  0.806829  0.493768  -0.024007
    C   C19  0.624118  0.957512  0.439089  0.462516
    C   C20  0.371555  0.032941  0.567159  0.248773
    C   C21  0.616560  0.852363  0.446946  -0.380775
    C   C22  0.379315  0.138152  0.559493  -0.258128
    C   C23  0.445656  0.866848  0.533534  -0.293800
    C   C24  0.550168  0.123628  0.472882  -0.155103
    C   C25  0.453317  0.972499  0.527003  0.159100
    C   C26  0.542602  0.017980  0.479544  -0.063917
    H   H7   0.619386  0.160148  0.436067  0.111426
    H   H8   0.376361  0.830299  0.570240  0.144330
    H   H9   0.316926  0.184799  0.592855  0.158611
    H   H10  0.678698  0.805760  0.413255  0.187125
    N   N1   0.201936  0.512726  0.520702  0.060136
    N   N2   0.794037  0.477856  0.485488  0.032486
    C   C27  0.960271  0.406015  0.422262  -0.242678
    C   C28  0.035745  0.584858  0.583737  -0.263949
    C   C29  0.844487  0.414276  0.428752  -0.046059
    C   C30  0.151528  0.576553  0.577266  -0.084717
    C   C31  0.855645  0.534269  0.536772  -0.181611
    C   C32  0.140330  0.456329  0.469412  -0.189598
    C   C33  0.971647  0.527594  0.531771  0.235617
    C   C34  0.024341  0.463116  0.474341  0.222012
    H   H11  0.182103  0.405732  0.424200  0.172471
    H   H12  0.813882  0.584840  0.581999  0.167145
    H   H13  0.201928  0.621728  0.617762  0.178232
    H   H14  0.794116  0.369320  0.388090  0.148059
    H   H15  0.000016  0.354869  0.376522  0.164597
    H   H16  0.996039  0.636253  0.629312  0.176873
    O   O9   0.707218  0.000528  0.385739  -0.477710
    C   C35  0.803917  0.005145  0.430325  0.307791
    H   H17  0.849015  0.931849  0.423242  -0.022222
    H   H18  0.780566  0.019606  0.497619  -0.054020
    C   C36  0.880083  0.091726  0.395261  0.168544
    H   H19  0.900203  0.079157  0.327275  -0.012938
    H   H20  0.836348  0.165404  0.404504  -0.012664
    C   C37  0.988297  0.095470  0.439602  -0.333644
    H   H21  0.968579  0.106811  0.507755  0.083687
    H   H22  0.042539  0.160002  0.414373  0.057781
    H   H23  0.033551  0.022786  0.428851  0.090633
    O   O10  0.286803  0.989630  0.618885  -0.356980
    C   C38  0.191176  0.988719  0.573047  0.225390
    H   H24  0.216233  0.978246  0.505491  -0.040810
    H   H25  0.146677  0.062030  0.582200  -0.005576
    C   C39  0.112768  0.900756  0.602480  0.166904
    H   H26  0.040884  0.896227  0.562054  -0.072062
    H   H27  0.159125  0.827994  0.597763  -0.013834
    C   C40  0.067906  0.917208  0.692599  -0.184088
    H   H28  0.138264  0.918919  0.734496  0.042079
    H   H29  0.008856  0.853338  0.712067  0.028806
    H   H30  0.022346  0.990403  0.697866  0.045062
