# generated using pymatgen
data_Zn3H34C49O15
_symmetry_space_group_name_H-M   'P 1'
_cell_length_a   47.83417600
_cell_length_b   35.57305500
_cell_length_c   31.98811200
_cell_angle_alpha   90.00000000
_cell_angle_beta   132.16555800
_cell_angle_gamma   90.00000000
_symmetry_Int_Tables_number   1
_chemical_formula_structural   Zn3H34C49O15
_chemical_formula_sum   'Zn12 H136 C196 O60'
_cell_volume   40344.86942809
_cell_formula_units_Z   4
loop_
 _symmetry_equiv_pos_site_id
 _symmetry_equiv_pos_as_xyz
  1  'x, y, z'
loop_
 _atom_site_type_symbol
 _atom_site_label
 _atom_site_symmetry_multiplicity
 _atom_site_fract_x
 _atom_site_fract_y
 _atom_site_fract_z
 _atom_site_occupancy
  Zn  Zn1  1  0.99991900  0.04246800  0.49989700  1
  Zn  Zn2  1  0.49991900  0.54246800  0.49989700  1
  Zn  Zn3  1  0.00009100  0.95731600  0.50010800  1
  Zn  Zn4  1  0.50009100  0.45731600  0.50010800  1
  Zn  Zn5  1  0.04270200  0.99948500  0.04291000  1
  Zn  Zn6  1  0.95727900  0.99930500  0.95706300  1
  Zn  Zn7  1  0.54270200  0.49948500  0.04291000  1
  Zn  Zn8  1  0.45727900  0.49930500  0.95706300  1
  Zn  Zn9  1  0.49997800  0.99975700  0.95271100  1
  Zn  Zn10  1  0.50003000  0.99986000  0.04731100  1
  Zn  Zn11  1  0.99997800  0.49975700  0.95271100  1
  Zn  Zn12  1  0.00003000  0.49986000  0.04731100  1
  H  H1  1  0.05818600  0.01376400  0.27578100  1
  H  H2  1  0.94182000  0.01450200  0.72426700  1
  H  H3  1  0.55818600  0.51376400  0.27578100  1
  H  H4  1  0.44182000  0.51450200  0.72426700  1
  H  H5  1  0.05592100  0.02254500  0.34354400  1
  H  H6  1  0.94410900  0.02351500  0.65656600  1
  H  H7  1  0.55592100  0.52254500  0.34354400  1
  H  H8  1  0.44410900  0.52351500  0.65656600  1
  H  H9  1  0.04055600  0.95577800  0.32274100  1
  H  H10  1  0.95936700  0.95670600  0.67698900  1
  H  H11  1  0.54055600  0.45577800  0.32274100  1
  H  H12  1  0.45936700  0.45670600  0.67698900  1
  H  H13  1  0.03258100  0.94840500  0.24499300  1
  H  H14  1  0.96732300  0.94908900  0.75469100  1
  H  H15  1  0.53258100  0.44840500  0.24499300  1
  H  H16  1  0.46732300  0.44908900  0.75469100  1
  H  H17  1  0.98234700  0.94152900  0.20011100  1
  H  H18  1  0.01754700  0.94215400  0.79954200  1
  H  H19  1  0.48234700  0.44152900  0.20011100  1
  H  H20  1  0.51754700  0.44215400  0.79954200  1
  H  H21  1  0.95183400  0.03702200  0.23884900  1
  H  H22  1  0.04821900  0.03782600  0.76135700  1
  H  H23  1  0.45183400  0.53702200  0.23884900  1
  H  H24  1  0.54821900  0.53782600  0.76135700  1
  H  H25  1  0.93985300  0.98795700  0.22256100  1
  H  H26  1  0.06012000  0.98872700  0.77737100  1
  H  H27  1  0.43985300  0.48795700  0.22256100  1
  H  H28  1  0.56012000  0.48872700  0.77737100  1
  H  H29  1  0.95740400  0.04271300  0.17444600  1
  H  H30  1  0.04264500  0.04329900  0.82577700  1
  H  H31  1  0.45740400  0.54271300  0.17444600  1
  H  H32  1  0.54264500  0.54329900  0.82577700  1
  H  H33  1  0.01848000  0.05667200  0.30106000  1
  H  H34  1  0.98160300  0.05756500  0.69925100  1
  H  H35  1  0.51848000  0.55667200  0.30106000  1
  H  H36  1  0.48160300  0.55756500  0.69925100  1
  H  H37  1  0.02683400  0.05355200  0.23941800  1
  H  H38  1  0.97323100  0.05422700  0.76085900  1
  H  H39  1  0.52683400  0.55355200  0.23941800  1
  H  H40  1  0.47323100  0.55422700  0.76085900  1
  H  H41  1  0.93865200  0.99566200  0.15119900  1
  H  H42  1  0.06132500  0.99620600  0.84876700  1
  H  H43  1  0.43865200  0.49566200  0.15119900  1
  H  H44  1  0.56132500  0.49620600  0.84876700  1
  H  H45  1  0.31163300  0.99858100  0.87733600  1
  H  H46  1  0.68838000  0.00135100  0.12268100  1
  H  H47  1  0.81163300  0.49858100  0.87733600  1
  H  H48  1  0.18838000  0.50135100  0.12268100  1
  H  H49  1  0.38039100  0.99839500  0.94642700  1
  H  H50  1  0.61962200  0.00149000  0.05358600  1
  H  H51  1  0.88039100  0.49839500  0.94642700  1
  H  H52  1  0.11962200  0.50149000  0.05358600  1
  H  H53  1  0.37973100  0.00161700  0.81179000  1
  H  H54  1  0.62027600  0.99788100  0.18820400  1
  H  H55  1  0.87973100  0.50161700  0.81179000  1
  H  H56  1  0.12027600  0.49788100  0.18820400  1
  H  H57  1  0.31097100  0.00178000  0.74368600  1
  H  H58  1  0.68903600  0.99777300  0.25631300  1
  H  H59  1  0.81097100  0.50178000  0.74368600  1
  H  H60  1  0.18903600  0.49777300  0.25631300  1
  H  H61  1  0.18860400  0.94075300  0.68630100  1
  H  H62  1  0.81108500  0.93948900  0.30969500  1
  H  H63  1  0.68860400  0.44075300  0.68630100  1
  H  H64  1  0.31108500  0.43948900  0.30969500  1
  H  H65  1  0.11985200  0.94047100  0.61775500  1
  H  H66  1  0.87983900  0.93886500  0.37821000  1
  H  H67  1  0.61985200  0.44047100  0.61775500  1
  H  H68  1  0.37983900  0.43886500  0.37821000  1
  H  H69  1  0.12015500  0.06094100  0.62184400  1
  H  H70  1  0.88017400  0.05933900  0.38220400  1
  H  H71  1  0.62015500  0.56094100  0.62184400  1
  H  H72  1  0.38017400  0.55933900  0.38220400  1
  H  H73  1  0.18891400  0.06033200  0.69036700  1
  H  H74  1  0.81141600  0.05907100  0.31365700  1
  H  H75  1  0.68891400  0.56033200  0.69036700  1
  H  H76  1  0.31141600  0.55907100  0.31365700  1
  H  H77  1  0.47330600  0.81055200  0.91420200  1
  H  H78  1  0.52585500  0.81010100  0.08604600  1
  H  H79  1  0.97330600  0.31055200  0.91420200  1
  H  H80  1  0.02585500  0.31010100  0.08604600  1
  H  H81  1  0.93932700  0.18793500  0.94100700  1
  H  H82  1  0.05931000  0.18769200  0.05800900  1
  H  H83  1  0.43932700  0.68793500  0.94100700  1
  H  H84  1  0.55931000  0.68769200  0.05800900  1
  H  H85  1  0.93876300  0.11938000  0.94034600  1
  H  H86  1  0.05958900  0.11913500  0.05816500  1
  H  H87  1  0.43876300  0.61938000  0.94034600  1
  H  H88  1  0.55958900  0.61913500  0.05816500  1
  H  H89  1  0.50174400  0.11939700  0.06788600  1
  H  H90  1  0.49880300  0.11976000  0.93109600  1
  H  H91  1  0.00174400  0.61939700  0.06788600  1
  H  H92  1  0.99880300  0.61976000  0.93109600  1
  H  H93  1  0.94069400  0.81109400  0.94264700  1
  H  H94  1  0.06063400  0.81085500  0.05826500  1
  H  H95  1  0.44069400  0.31109400  0.94264700  1
  H  H96  1  0.56063400  0.31085500  0.05826500  1
  H  H97  1  0.94040900  0.87965500  0.94247800  1
  H  H98  1  0.06120100  0.87941400  0.05894900  1
  H  H99  1  0.44040900  0.37965500  0.94247800  1
  H  H100  1  0.56120100  0.37941400  0.05894900  1
  H  H101  1  0.49098700  0.85573500  0.87205100  1
  H  H102  1  0.52594500  0.87710500  0.94112100  1
  H  H103  1  0.49683600  0.90623000  0.87899200  1
  H  H104  1  0.50836600  0.85501200  0.12870000  1
  H  H105  1  0.47350700  0.87673800  0.05988300  1
  H  H106  1  0.50274700  0.90553800  0.12235400  1
  H  H107  1  0.99098700  0.35573500  0.87205100  1
  H  H108  1  0.02594500  0.37710500  0.94112100  1
  H  H109  1  0.99683600  0.40623000  0.87899200  1
  H  H110  1  0.00836600  0.35501200  0.12870000  1
  H  H111  1  0.97350700  0.37673800  0.05988300  1
  H  H112  1  0.00274700  0.40553800  0.12235400  1
  H  H113  1  0.46008100  0.17009200  0.07125700  1
  H  H114  1  0.44460200  0.18840400  0.00573800  1
  H  H115  1  0.45830300  0.22033500  0.06051400  1
  H  H116  1  0.54067400  0.17053300  0.92826300  1
  H  H117  1  0.55622700  0.18851000  0.99397900  1
  H  H118  1  0.54265300  0.22071800  0.93954700  1
  H  H119  1  0.96008100  0.67009200  0.07125700  1
  H  H120  1  0.94460200  0.68840400  0.00573800  1
  H  H121  1  0.95830300  0.72033500  0.06051400  1
  H  H122  1  0.04067400  0.67053300  0.92826300  1
  H  H123  1  0.05622700  0.68851000  0.99397900  1
  H  H124  1  0.04265300  0.72071800  0.93954700  1
  H  H125  1  0.99181000  0.87870400  0.30175600  1
  H  H126  1  0.02871600  0.90925700  0.35677100  1
  H  H127  1  0.02673800  0.89410000  0.30008900  1
  H  H128  1  0.00799600  0.87964900  0.69754800  1
  H  H129  1  0.97114000  0.91031800  0.64270300  1
  H  H130  1  0.97308800  0.89497700  0.69929200  1
  H  H131  1  0.49181000  0.37870400  0.30175600  1
  H  H132  1  0.52871600  0.40925700  0.35677100  1
  H  H133  1  0.52673800  0.39410000  0.30008900  1
  H  H134  1  0.50799600  0.37964900  0.69754800  1
  H  H135  1  0.47114000  0.41031800  0.64270300  1
  H  H136  1  0.47308800  0.39497700  0.69929200  1
  C  C1  1  0.07382600  0.00080500  0.57374500  1
  C  C2  1  0.92618400  0.99898200  0.42625900  1
  C  C3  1  0.57382600  0.50080500  0.57374500  1
  C  C4  1  0.42618400  0.49898200  0.42625900  1
  C  C5  1  0.99978600  0.99914100  0.41795200  1
  C  C6  1  0.00022400  0.00063800  0.58205200  1
  C  C7  1  0.49978600  0.49914100  0.41795200  1
  C  C8  1  0.50022400  0.50063800  0.58205200  1
  C  C9  1  0.02777100  0.02801000  0.30146000  1
  C  C10  1  0.97226500  0.02888900  0.69868500  1
  C  C11  1  0.52777100  0.52801000  0.30146000  1
  C  C12  1  0.47226500  0.52888900  0.69868500  1
  C  C13  1  0.01063100  0.96075800  0.28429800  1
  C  C14  1  0.98929800  0.96161000  0.71546400  1
  C  C15  1  0.51063100  0.46075800  0.28429800  1
  C  C16  1  0.48929800  0.46161000  0.71546400  1
  C  C17  1  0.00644100  0.95983300  0.23291700  1
  C  C18  1  0.99348200  0.96052300  0.76683600  1
  C  C19  1  0.50644100  0.45983300  0.23291700  1
  C  C20  1  0.49348200  0.46052300  0.76683600  1
  C  C21  1  0.99932700  0.99927500  0.12616300  1
  C  C22  1  0.00064500  0.99964200  0.87380200  1
  C  C23  1  0.49932700  0.49927500  0.12616300  1
  C  C24  1  0.50064500  0.49964200  0.87380200  1
  C  C25  1  0.99958200  0.99939300  0.28916100  1
  C  C26  1  0.00041100  0.00028100  0.71082500  1
  C  C27  1  0.49958200  0.49939300  0.28916100  1
  C  C28  1  0.50041100  0.50028100  0.71082500  1
  C  C29  1  0.03024300  0.02519600  0.25672600  1
  C  C30  1  0.96978100  0.02592200  0.74339200  1
  C  C31  1  0.53024300  0.52519600  0.25672600  1
  C  C32  1  0.46978100  0.52592200  0.74339200  1
  C  C33  1  0.99943400  0.99932100  0.20987700  1
  C  C34  1  0.00054800  0.99994800  0.79009800  1
  C  C35  1  0.49943400  0.49932100  0.20987700  1
  C  C36  1  0.50054800  0.49994800  0.79009800  1
  C  C37  1  0.96158600  0.01295100  0.18785000  1
  C  C38  1  0.03841900  0.01357300  0.81220900  1
  C  C39  1  0.46158600  0.51295100  0.18785000  1
  C  C40  1  0.53841900  0.51357300  0.81220900  1
  C  C41  1  0.96061300  0.00970500  0.23410100  1
  C  C42  1  0.03939300  0.01047800  0.76594800  1
  C  C43  1  0.46061300  0.50970500  0.23410100  1
  C  C44  1  0.53939300  0.51047800  0.76594800  1
  C  C45  1  0.99939300  0.99928100  0.16397400  1
  C  C46  1  0.00058300  0.99976300  0.83599500  1
  C  C47  1  0.49939300  0.49928100  0.16397400  1
  C  C48  1  0.50058300  0.49976300  0.83599500  1
  C  C49  1  0.99963800  0.99938300  0.33507800  1
  C  C50  1  0.00036100  0.00043800  0.66491500  1
  C  C51  1  0.49963800  0.49938300  0.33507800  1
  C  C52  1  0.50036100  0.50043800  0.66491500  1
  C  C53  1  0.99970100  0.99928900  0.37288300  1
  C  C54  1  0.00030300  0.00052000  0.62711500  1
  C  C55  1  0.49970100  0.49928900  0.37288300  1
  C  C56  1  0.50030300  0.50052000  0.62711500  1
  C  C57  1  0.32679500  0.99924300  0.86325200  1
  C  C58  1  0.67321600  0.00059700  0.13676100  1
  C  C59  1  0.82679500  0.49924300  0.86325200  1
  C  C60  1  0.17321600  0.50059700  0.13676100  1
  C  C61  1  0.36561400  0.99914300  0.90206900  1
  C  C62  1  0.63439700  0.00067000  0.09794100  1
  C  C63  1  0.86561400  0.49914300  0.90206900  1
  C  C64  1  0.13439700  0.50067000  0.09794100  1
  C  C65  1  0.38501200  0.00000500  0.88404700  1
  C  C66  1  0.61499800  0.99970400  0.11595700  1
  C  C67  1  0.88501200  0.50000500  0.88404700  1
  C  C68  1  0.11499800  0.49970400  0.11595700  1
  C  C69  1  0.36524400  0.00094200  0.82695100  1
  C  C70  1  0.63476400  0.99866200  0.17304800  1
  C  C71  1  0.86524400  0.50094200  0.82695100  1
  C  C72  1  0.13476400  0.49866200  0.17304800  1
  C  C73  1  0.32642400  0.00103700  0.78831300  1
  C  C74  1  0.67358400  0.99859300  0.21168900  1
  C  C75  1  0.82642400  0.50103700  0.78831300  1
  C  C76  1  0.17358400  0.49859300  0.21168900  1
  C  C77  1  0.30728400  0.00019800  0.80650400  1
  C  C78  1  0.69272600  0.99956000  0.19350500  1
  C  C79  1  0.80728400  0.50019800  0.80650400  1
  C  C80  1  0.19272600  0.49956000  0.19350500  1
  C  C81  1  0.26697500  0.00032400  0.76629900  1
  C  C82  1  0.73303500  0.99947100  0.23371200  1
  C  C83  1  0.76697500  0.50032400  0.76629900  1
  C  C84  1  0.23303500  0.49947100  0.23371200  1
  C  C85  1  0.23308700  0.00042600  0.73251400  1
  C  C86  1  0.76692300  0.99939200  0.26749800  1
  C  C87  1  0.73308700  0.50042600  0.73251400  1
  C  C88  1  0.26692300  0.49939200  0.26749800  1
  C  C89  1  0.17336500  0.96705500  0.67193700  1
  C  C90  1  0.82646600  0.96571500  0.32582200  1
  C  C91  1  0.67336500  0.46705500  0.67193700  1
  C  C92  1  0.32646600  0.46571500  0.32582200  1
  C  C93  1  0.13454700  0.96706700  0.63324400  1
  C  C94  1  0.86528500  0.96553400  0.36451000  1
  C  C95  1  0.63454700  0.46706700  0.63324400  1
  C  C96  1  0.36528500  0.46553400  0.36451000  1
  C  C97  1  0.11504700  0.00071900  0.61486100  1
  C  C98  1  0.88496300  0.99908900  0.38514500  1
  C  C99  1  0.61504700  0.50071900  0.61486100  1
  C  C100  1  0.38496300  0.49908900  0.38514500  1
  C  C101  1  0.13471800  0.03427800  0.63552500  1
  C  C102  1  0.86547100  0.03274600  0.36673700  1
  C  C103  1  0.63471800  0.53427800  0.63552500  1
  C  C104  1  0.36547100  0.53274600  0.36673700  1
  C  C105  1  0.17353800  0.03410400  0.67421600  1
  C  C106  1  0.82665100  0.03276500  0.32804300  1
  C  C107  1  0.67353800  0.53410400  0.67421600  1
  C  C108  1  0.32665100  0.53276500  0.32804300  1
  C  C109  1  0.19277700  0.00053200  0.69233600  1
  C  C110  1  0.80723300  0.99929000  0.30767500  1
  C  C111  1  0.69277700  0.50053200  0.69233600  1
  C  C112  1  0.30723300  0.49929000  0.30767500  1
  C  C113  1  0.99908200  0.07301700  0.99912500  1
  C  C114  1  0.49908200  0.57301700  0.99912500  1
  C  C115  1  0.99920500  0.99929700  0.08104900  1
  C  C116  1  0.00076300  0.99952200  0.91891100  1
  C  C117  1  0.49920500  0.49929700  0.08104900  1
  C  C118  1  0.50076300  0.49952200  0.91891100  1
  C  C119  1  0.00089900  0.92577300  0.00084700  1
  C  C120  1  0.50089900  0.42577300  0.00084700  1
  C  C121  1  0.49984300  0.92598900  0.00078800  1
  C  C122  1  0.99984300  0.42598900  0.00078800  1
  C  C123  1  0.42622800  0.99994500  0.92517600  1
  C  C124  1  0.57378200  0.99975700  0.07482600  1
  C  C125  1  0.92622800  0.49994500  0.92517600  1
  C  C126  1  0.07378200  0.49975700  0.07482600  1
  C  C127  1  0.50016700  0.07344000  0.99923100  1
  C  C128  1  0.00016700  0.57344000  0.99923100  1
  C  C129  1  0.48508900  0.82587700  0.95212600  1
  C  C130  1  0.51414000  0.82562400  0.04829800  1
  C  C131  1  0.98508900  0.32587700  0.95212600  1
  C  C132  1  0.01414000  0.32562400  0.04829800  1
  C  C133  1  0.48574300  0.86467500  0.95226800  1
  C  C134  1  0.51365600  0.86442100  0.04859900  1
  C  C135  1  0.98574300  0.36467500  0.95226800  1
  C  C136  1  0.01365600  0.36442100  0.04859900  1
  C  C137  1  0.49974400  0.88446400  0.00054700  1
  C  C138  1  0.99974400  0.38446400  0.00054700  1
  C  C139  1  0.49957300  0.80642600  0.00010200  1
  C  C140  1  0.99957300  0.30642600  0.00010200  1
  C  C141  1  0.49948400  0.76612000  0.99987900  1
  C  C142  1  0.99948400  0.26612000  0.99987900  1
  C  C143  1  0.99941100  0.23226600  0.99970700  1
  C  C144  1  0.49941100  0.73226600  0.99970700  1
  C  C145  1  0.96567000  0.17265900  0.96666400  1
  C  C146  1  0.03290300  0.17252300  0.03222700  1
  C  C147  1  0.46567000  0.67265900  0.96666400  1
  C  C148  1  0.53290300  0.67252300  0.03222700  1
  C  C149  1  0.96551300  0.13390700  0.96644900  1
  C  C150  1  0.03289900  0.13377100  0.03215800  1
  C  C151  1  0.46551300  0.63390700  0.96644900  1
  C  C152  1  0.53289900  0.63377100  0.03215800  1
  C  C153  1  0.99916600  0.11423000  0.99923800  1
  C  C154  1  0.49916600  0.61423000  0.99923800  1
  C  C155  1  0.99932700  0.19195500  0.99952100  1
  C  C156  1  0.49932700  0.69195500  0.99952100  1
  C  C157  1  0.50061600  0.17291300  0.03733200  1
  C  C158  1  0.50015300  0.17311200  0.96222500  1
  C  C159  1  0.00061600  0.67291300  0.03733200  1
  C  C160  1  0.00015300  0.67311200  0.96222500  1
  C  C161  1  0.50102900  0.13413300  0.03764400  1
  C  C162  1  0.49958100  0.13433500  0.96149800  1
  C  C163  1  0.00102900  0.63413300  0.03764400  1
  C  C164  1  0.99958100  0.63433500  0.96149800  1
  C  C165  1  0.50026400  0.11464700  0.99946500  1
  C  C166  1  0.00026400  0.61464700  0.99946500  1
  C  C167  1  0.50042400  0.19237900  0.99988200  1
  C  C168  1  0.00042400  0.69237900  0.99988200  1
  C  C169  1  0.50050400  0.23270000  0.00009200  1
  C  C170  1  0.00050400  0.73270000  0.00009200  1
  C  C171  1  0.00057200  0.76654800  0.00025800  1
  C  C172  1  0.50057200  0.26654800  0.00025800  1
  C  C173  1  0.96708900  0.82626900  0.96812000  1
  C  C174  1  0.03430200  0.82613600  0.03291900  1
  C  C175  1  0.46708900  0.32626900  0.96812000  1
  C  C176  1  0.53430200  0.32613600  0.03291900  1
  C  C177  1  0.96709100  0.86502000  0.96817700  1
  C  C178  1  0.03445900  0.86488600  0.03315100  1
  C  C179  1  0.46709100  0.36502000  0.96817700  1
  C  C180  1  0.53445900  0.36488600  0.03315100  1
  C  C181  1  0.00081500  0.88456200  0.00073100  1
  C  C182  1  0.50081500  0.38456200  0.00073100  1
  C  C183  1  0.00065500  0.80684500  0.00044300  1
  C  C184  1  0.50065500  0.30684500  0.00044300  1
  C  C185  1  0.49740400  0.88024700  0.89870000  1
  C  C186  1  0.50206100  0.87967000  0.10234100  1
  C  C187  1  0.99740400  0.38024700  0.89870000  1
  C  C188  1  0.00206100  0.37967000  0.10234100  1
  C  C189  1  0.46429000  0.19265900  0.05202400  1
  C  C190  1  0.53655600  0.19298800  0.94774000  1
  C  C191  1  0.96429000  0.69265900  0.05202400  1
  C  C192  1  0.03655600  0.69298800  0.94774000  1
  C  C193  1  0.01007700  0.90268700  0.31114600  1
  C  C194  1  0.98976500  0.90363000  0.68828900  1
  C  C195  1  0.51007700  0.40268700  0.31114600  1
  C  C196  1  0.48976500  0.40363000  0.68828900  1
  O  O1  1  0.05630400  0.03324500  0.55724100  1
  O  O2  1  0.94386800  0.03136100  0.44485500  1
  O  O3  1  0.55630400  0.53324500  0.55724100  1
  O  O4  1  0.44386800  0.53136100  0.44485500  1
  O  O5  1  0.05617100  0.96841400  0.55515700  1
  O  O6  1  0.94367800  0.96652900  0.44274900  1
  O  O7  1  0.55617100  0.46841400  0.55515700  1
  O  O8  1  0.44367800  0.46652900  0.44274900  1
  O  O9  1  0.00065700  0.03153700  0.43845900  1
  O  O10  1  0.00104700  0.03313900  0.56350400  1
  O  O11  1  0.50065700  0.53153700  0.43845900  1
  O  O12  1  0.50104700  0.53313900  0.56350400  1
  O  O13  1  0.99897300  0.96663500  0.43650600  1
  O  O14  1  0.99934000  0.96823700  0.56153600  1
  O  O15  1  0.49897300  0.46663500  0.43650600  1
  O  O16  1  0.49934000  0.46823700  0.56153600  1
  O  O17  1  0.03157400  0.05534700  0.03080100  1
  O  O18  1  0.96653500  0.05548600  0.96741200  1
  O  O19  1  0.53157400  0.55534700  0.03080100  1
  O  O20  1  0.46653500  0.55548600  0.96741200  1
  O  O21  1  0.03170400  0.99851300  0.09403900  1
  O  O22  1  0.96826500  0.00032700  0.90592000  1
  O  O23  1  0.53170400  0.49851300  0.09403900  1
  O  O24  1  0.46826500  0.50032700  0.90592000  1
  O  O25  1  0.96661200  0.00020600  0.02894800  1
  O  O26  1  0.03335700  0.99866100  0.97101400  1
  O  O27  1  0.46661200  0.50020600  0.02894800  1
  O  O28  1  0.53335700  0.49866100  0.97101400  1
  O  O29  1  0.03344300  0.94330400  0.03256200  1
  O  O30  1  0.96840900  0.94344400  0.96917000  1
  O  O31  1  0.53344300  0.44330400  0.03256200  1
  O  O32  1  0.46840900  0.44344400  0.96917000  1
  O  O33  1  0.49899200  0.94390600  0.96408400  1
  O  O34  1  0.50081000  0.94369700  0.03770900  1
  O  O35  1  0.99899200  0.44390600  0.96408400  1
  O  O36  1  0.00081000  0.44369700  0.03770900  1
  O  O37  1  0.44365100  0.00084600  0.90655400  1
  O  O38  1  0.55635700  0.99891500  0.09344700  1
  O  O39  1  0.94365100  0.50084600  0.90655400  1
  O  O40  1  0.05635700  0.49891500  0.09344700  1
  O  O41  1  0.44399400  0.99906200  0.97894000  1
  O  O42  1  0.55601700  0.00062900  0.02106200  1
  O  O43  1  0.94399400  0.49906200  0.97894000  1
  O  O44  1  0.05601700  0.50062900  0.02106200  1
  O  O45  1  0.49920200  0.05594300  0.96217200  1
  O  O46  1  0.50101500  0.05573800  0.03607900  1
  O  O47  1  0.99920200  0.55594300  0.96217200  1
  O  O48  1  0.00101500  0.55573800  0.03607900  1
  O  O49  1  0.47043800  0.88302900  0.90334400  1
  O  O50  1  0.52904100  0.88251500  0.09773200  1
  O  O51  1  0.97043800  0.38302900  0.90334400  1
  O  O52  1  0.02904100  0.38251500  0.09773200  1
  O  O53  1  0.50156500  0.19207000  0.07533600  1
  O  O54  1  0.49927900  0.19247000  0.92442300  1
  O  O55  1  0.00156500  0.69207000  0.07533600  1
  O  O56  1  0.99927900  0.69247000  0.92442300  1
  O  O57  1  0.98719000  0.93356300  0.27879100  1
  O  O58  1  0.01269900  0.93443900  0.72082300  1
  O  O59  1  0.48719000  0.43356300  0.27879100  1
  O  O60  1  0.51269900  0.43443900  0.72082300  1
