data_DB0-m29_o96_o1490_f0_pts.sym.44_repeat
_audit_creation_date              2024-02-23
_audit_creation_method            'Materials Studio'
_symmetry_space_group_name_H-M    'P1'
_symmetry_Int_Tables_number       1
_symmetry_cell_setting            triclinic
loop_
_symmetry_equiv_pos_as_xyz
  x,y,z
_cell_length_a                    17.3836
_cell_length_b                    11.9742
_cell_length_c                    19.0473
_cell_angle_alpha                 88.7703
_cell_angle_beta                  90.6186
_cell_angle_gamma                 108.7730
loop_
_atom_site_label
_atom_site_type_symbol
_atom_site_fract_x
_atom_site_fract_y
_atom_site_fract_z
_atom_site_U_iso_or_equiv
_atom_site_adp_type
_atom_site_occupancy
C1     C     0.22775   0.00768   0.10223   0.00000  Uiso   1.00
C2     C     0.17268   0.96929   0.15470   0.00000  Uiso   1.00
C3     C     0.09796   0.96446   0.12766   0.00000  Uiso   1.00
N1     N     0.10517   0.99545   0.05885   0.00000  Uiso   1.00
C4     C     0.18481   0.02114   0.04300   0.00000  Uiso   1.00
C5     C     0.02994   0.93994   0.16537   0.00000  Uiso   1.00
C6     C     0.95317   0.95248   0.13927   0.00000  Uiso   1.00
C7     C     0.89596   0.97507   0.18121   0.00000  Uiso   1.00
C8     C     0.83340   0.97955   0.13917   0.00000  Uiso   1.00
C9     C     0.85371   0.96028   0.07132   0.00000  Uiso   1.00
N2     N     0.92667   0.94205   0.07213   0.00000  Uiso   1.00
C10    C     0.80401   0.96115   0.00825   0.00000  Uiso   1.00
C11    C     0.83515   0.98835   0.94377   0.00000  Uiso   1.00
C12    C     0.79232   0.00303   0.88468   0.00000  Uiso   1.00
C13    C     0.84728   0.04078   0.83205   0.00000  Uiso   1.00
C14    C     0.92187   0.04378   0.85882   0.00000  Uiso   1.00
N3     N     0.91460   0.01261   0.92762   0.00000  Uiso   1.00
C15    C     0.98969   0.06595   0.82090   0.00000  Uiso   1.00
C16    C     0.06612   0.05213   0.84728   0.00000  Uiso   1.00
C17    C     0.12279   0.02655   0.80597   0.00000  Uiso   1.00
C18    C     0.18526   0.02268   0.84835   0.00000  Uiso   1.00
C19    C     0.16564   0.04569   0.91559   0.00000  Uiso   1.00
N4     N     0.09308   0.06516   0.91428   0.00000  Uiso   1.00
C20    C     0.21587   0.04767   0.97857   0.00000  Uiso   1.00
H1     H     0.03290   0.92076   0.22079   0.00000  Uiso   1.00
H2     H     0.74037   0.94985   0.01596   0.00000  Uiso   1.00
H3     H     0.98672   0.08426   0.76533   0.00000  Uiso   1.00
H4     H     0.27964   0.05982   0.97090   0.00000  Uiso   1.00
H5     H     0.95502   0.91709   0.03024   0.00000  Uiso   1.00
H6     H     0.06544   0.09270   0.95568   0.00000  Uiso   1.00
C21    C     0.12241   0.00545   0.73544   0.00000  Uiso   1.00
C22    C     0.18875   0.98207   0.70790   0.00000  Uiso   1.00
C23    C     0.25402   0.97941   0.75047   0.00000  Uiso   1.00
C24    C     0.25215   0.99882   0.82220   0.00000  Uiso   1.00
C25    C     0.30952   0.02713   0.11357   0.00000  Uiso   1.00
C26    C     0.33309   0.00174   0.18014   0.00000  Uiso   1.00
C27    C     0.27563   0.95811   0.23275   0.00000  Uiso   1.00
C28    C     0.19479   0.94329   0.22080   0.00000  Uiso   1.00
C29    C     0.89625   0.99342   0.25209   0.00000  Uiso   1.00
C30    C     0.82958   0.01446   0.28050   0.00000  Uiso   1.00
C31    C     0.76402   0.01709   0.23843   0.00000  Uiso   1.00
C32    C     0.76598   0.00059   0.16629   0.00000  Uiso   1.00
C33    C     0.71053   0.98366   0.87339   0.00000  Uiso   1.00
C34    C     0.68663   0.00868   0.80681   0.00000  Uiso   1.00
C35    C     0.74404   0.05288   0.75422   0.00000  Uiso   1.00
C36    C     0.82500   0.06741   0.76608   0.00000  Uiso   1.00
H7     H     0.07240   0.00724   0.70177   0.00000  Uiso   1.00
H8     H     0.30205   0.99734   0.85610   0.00000  Uiso   1.00
H9     H     0.35400   0.06029   0.07259   0.00000  Uiso   1.00
H10    H     0.29391   0.93921   0.28487   0.00000  Uiso   1.00
H11    H     0.15148   0.91162   0.26275   0.00000  Uiso   1.00
H12    H     0.94647   0.99141   0.28541   0.00000  Uiso   1.00
H13    H     0.71593   0.00261   0.13275   0.00000  Uiso   1.00
H14    H     0.66610   0.94949   0.91429   0.00000  Uiso   1.00
H15    H     0.72552   0.07133   0.70210   0.00000  Uiso   1.00
H16    H     0.86831   0.09875   0.72408   0.00000  Uiso   1.00
H17    H     0.18911   0.96690   0.65222   0.00000  Uiso   1.00
H18    H     0.82906   0.02737   0.33643   0.00000  Uiso   1.00
O1     O     0.62610   0.02444   0.23603   0.00000  Uiso   1.00
C37    C     0.69224   0.03169   0.27219   0.00000  Uiso   1.00
O2     O     0.55923   0.79230   0.32250   0.00000  Uiso   1.00
O3     O     0.69133   0.04142   0.34064   0.00000  Uiso   1.00
O4     O     0.51387   0.91612   0.38624   0.00000  Uiso   1.00
C38    C     0.52286   0.81228   0.37858   0.00000  Uiso   1.00
Fe1    Fe    0.53713   0.01931   0.30128   0.00000  Uiso   1.00
O5     O     0.43236   0.95414   0.24834   0.00000  Uiso   1.00
O6     O     0.47480   0.11826   0.17767   0.00000  Uiso   1.00
C39    C     0.41801   0.02169   0.19842   0.00000  Uiso   1.00
O7     O     0.57214   0.18614   0.33469   0.00000  Uiso   1.00
O8     O     0.43612   0.14345   0.34254   0.00000  Uiso   1.00
C40    C     0.50928   0.21334   0.35772   0.00000  Uiso   1.00
C41    C     0.52406   0.21213   0.48338   0.00000  Uiso   1.00
C42    C     0.51723   0.25448   0.54862   0.00000  Uiso   1.00
C43    C     0.51188   0.36620   0.55501   0.00000  Uiso   1.00
C44    C     0.51863   0.27584   0.42411   0.00000  Uiso   1.00
C45    C     0.50778   0.38488   0.43002   0.00000  Uiso   1.00
C46    C     0.50799   0.43418   0.49542   0.00000  Uiso   1.00
C47    C     0.50212   0.54830   0.49898   0.00000  Uiso   1.00
C48    C     0.50499   0.60524   0.56300   0.00000  Uiso   1.00
C49    C     0.50064   0.71761   0.56453   0.00000  Uiso   1.00
N5     N     0.49028   0.43792   0.37226   0.00000  Uiso   1.00
C50    C     0.47942   0.54391   0.37403   0.00000  Uiso   1.00
C51    C     0.49486   0.60779   0.43642   0.00000  Uiso   1.00
C52    C     0.50364   0.72864   0.43898   0.00000  Uiso   1.00
C53    C     0.50215   0.77887   0.50313   0.00000  Uiso   1.00
H19    H     0.52767   0.12443   0.47748   0.00000  Uiso   1.00
H20    H     0.50782   0.87096   0.50708   0.00000  Uiso   1.00
H21    H     0.50613   0.39378   0.60733   0.00000  Uiso   1.00
H22    H     0.51243   0.56748   0.61322   0.00000  Uiso   1.00
O9     O     0.58365   0.04602   0.73706   0.00000  Uiso   1.00
O10    O     0.54643   0.88639   0.81135   0.00000  Uiso   1.00
C54    C     0.60107   0.98348   0.78838   0.00000  Uiso   1.00
O11    O     0.44876   0.79851   0.65976   0.00000  Uiso   1.00
O12    O     0.58227   0.87052   0.63495   0.00000  Uiso   1.00
C55    C     0.51274   0.78553   0.62896   0.00000  Uiso   1.00
O13    O     0.50782   0.21399   0.67368   0.00000  Uiso   1.00
O14    O     0.38968   0.96093   0.75399   0.00000  Uiso   1.00
C56    C     0.32552   0.96256   0.71726   0.00000  Uiso   1.00
O15    O     0.49420   0.06270   0.59933   0.00000  Uiso   1.00
C57    C     0.50853   0.17548   0.60977   0.00000  Uiso   1.00
O16    O     0.32812   0.95852   0.64859   0.00000  Uiso   1.00
Fe2    Fe    0.47805   0.96795   0.68758   0.00000  Uiso   1.00
C58    C     0.43935   0.57678   0.31226   0.00000  Uiso   1.00
C59    C     0.37270   0.61491   0.31956   0.00000  Uiso   1.00
C60    C     0.33294   0.63893   0.26100   0.00000  Uiso   1.00
C61    C     0.35851   0.62289   0.19473   0.00000  Uiso   1.00
C62    C     0.31614   0.64852   0.13109   0.00000  Uiso   1.00
C63    C     0.42323   0.58134   0.18735   0.00000  Uiso   1.00
C64    C     0.46290   0.55703   0.24586   0.00000  Uiso   1.00
H23    H     0.35057   0.62485   0.37108   0.00000  Uiso   1.00
H24    H     0.28137   0.66948   0.26759   0.00000  Uiso   1.00
H25    H     0.26563   0.68062   0.14621   0.00000  Uiso   1.00
H26    H     0.29139   0.56693   0.10040   0.00000  Uiso   1.00
H27    H     0.35994   0.71708   0.09828   0.00000  Uiso   1.00
H28    H     0.44283   0.56734   0.13555   0.00000  Uiso   1.00
H29    H     0.51343   0.52418   0.23928   0.00000  Uiso   1.00
