# generated using pymatgen
data_Cu3H17(C7O3)4
_symmetry_space_group_name_H-M   'P 1'
_cell_length_a   18.44083100
_cell_length_b   18.90205800
_cell_length_c   18.97150000
_cell_angle_alpha   70.36712800
_cell_angle_beta   70.83398800
_cell_angle_gamma   108.97620500
_symmetry_Int_Tables_number   1
_chemical_formula_structural   Cu3H17(C7O3)4
_chemical_formula_sum   'Cu6 H34 C56 O24'
_cell_volume   5130.19624370
_cell_formula_units_Z   2
loop_
 _symmetry_equiv_pos_site_id
 _symmetry_equiv_pos_as_xyz
  1  'x, y, z'
loop_
 _atom_site_type_symbol
 _atom_site_label
 _atom_site_symmetry_multiplicity
 _atom_site_fract_x
 _atom_site_fract_y
 _atom_site_fract_z
 _atom_site_occupancy
  Cu  Cu1  1  0.94747000  0.51201300  0.05592400  1
  Cu  Cu2  1  0.07355900  0.50582200  0.94266800  1
  Cu  Cu3  1  0.05971900  0.06107800  0.50689900  1
  Cu  Cu4  1  0.93251200  0.94967400  0.50042700  1
  Cu  Cu5  1  0.49601000  0.06861200  0.94767000  1
  Cu  Cu6  1  0.50980800  0.95238000  0.06168200  1
  H  H1  1  0.02226000  0.88131500  0.74511700  1
  H  H2  1  0.95300800  0.74506000  0.69641600  1
  H  H3  1  0.97860000  0.74805200  0.87809700  1
  H  H4  1  0.04699500  0.69890300  0.74208200  1
  H  H5  1  0.88815400  0.24795800  0.99469500  1
  H  H6  1  0.77019600  0.13519500  0.99882800  1
  H  H7  1  0.63428600  0.33902200  0.93505600  1
  H  H8  1  0.57322500  0.27635200  0.05626500  1
  H  H9  1  0.74813400  0.44746800  0.93730200  1
  H  H10  1  0.68636800  0.38511800  0.05849500  1
  H  H11  1  0.14817800  0.38860600  0.13251800  1
  H  H12  1  0.14761500  0.27722800  0.24717800  1
  H  H13  1  0.81067600  0.08406000  0.37141700  1
  H  H14  1  0.80625500  0.14115200  0.43610900  1
  H  H15  1  0.81165100  0.19747300  0.26124700  1
  H  H16  1  0.80627000  0.25440700  0.32610200  1
  H  H17  1  0.27487200  0.63249200  0.00620000  1
  H  H18  1  0.38373200  0.74417200  0.01234900  1
  H  H19  1  0.17915400  0.88085900  0.05903600  1
  H  H20  1  0.24215800  0.93892600  0.93787600  1
  H  H21  1  0.06802600  0.76757100  0.05917800  1
  H  H22  1  0.13148600  0.82529500  0.93804300  1
  H  H23  1  0.11351600  0.99101100  0.24892600  1
  H  H24  1  0.23070800  0.99465300  0.13601600  1
  H  H25  1  0.37558100  0.94267600  0.33253500  1
  H  H26  1  0.43383000  0.06398300  0.26739800  1
  H  H27  1  0.26217500  0.94522600  0.44129100  1
  H  H28  1  0.32122800  0.06655200  0.37638800  1
  H  H29  1  0.73252900  0.01539500  0.62537800  1
  H  H30  1  0.62333800  0.02133200  0.73695500  1
  H  H31  1  0.83029400  0.07328900  0.87007100  1
  H  H32  1  0.76807500  0.95180000  0.92838700  1
  H  H33  1  0.94163300  0.07346700  0.75680500  1
  H  H34  1  0.87884700  0.95198700  0.81487300  1
  C  C1  1  0.89309100  0.39196400  0.99717000  1
  C  C2  1  0.01602300  0.62580600  0.87601500  1
  C  C3  1  0.12785800  0.62630000  0.00114000  1
  C  C4  1  0.00724700  0.39416000  0.12241400  1
  C  C5  1  0.00399700  0.82007000  0.74650400  1
  C  C6  1  0.98089300  0.80847400  0.68991700  1
  C  C7  1  0.99619500  0.74910000  0.81720800  1
  C  C8  1  0.01958000  0.69250200  0.80533500  1
  C  C9  1  0.75321000  0.33064700  0.99587000  1
  C  C10  1  0.82610200  0.32613400  0.99541400  1
  C  C11  1  0.83248700  0.25530700  0.99444800  1
  C  C12  1  0.76529800  0.19110800  0.99724300  1
  C  C13  1  0.69334600  0.19921100  0.99638100  1
  C  C14  1  0.69167600  0.27186800  0.99386600  1
  C  C15  1  0.63697700  0.31458400  0.99556500  1
  C  C16  1  0.70976100  0.38420200  0.99715000  1
  C  C17  1  0.93149100  0.26116400  0.26281600  1
  C  C18  1  0.00757700  0.33032500  0.19188600  1
  C  C19  1  0.08608400  0.33521900  0.18701100  1
  C  C20  1  0.08582200  0.27227800  0.25229500  1
  C  C21  1  0.00690500  0.20131400  0.32091100  1
  C  C22  1  0.93128700  0.19904600  0.32242600  1
  C  C23  1  0.83402600  0.14552700  0.37237400  1
  C  C24  1  0.83432800  0.21832800  0.30179300  1
  C  C25  1  0.18758300  0.76226400  0.00328000  1
  C  C26  1  0.19422700  0.69224200  0.00313100  1
  C  C27  1  0.26674000  0.68679400  0.00549300  1
  C  C28  1  0.32806900  0.74975200  0.00965600  1
  C  C29  1  0.31976300  0.82087400  0.00700100  1
  C  C30  1  0.24826400  0.82431600  0.00258600  1
  C  C31  1  0.20382500  0.87716700  0.99934200  1
  C  C32  1  0.13260500  0.80430700  0.99956000  1
  C  C33  1  0.11214000  0.99939100  0.38911500  1
  C  C34  1  0.98641300  0.88014700  0.62243000  1
  C  C35  1  0.88015900  0.01116900  0.61851100  1
  C  C36  1  0.00379100  0.13055100  0.38680400  1
  C  C37  1  0.62245900  0.01714500  0.88142700  1
  C  C38  1  0.62205200  0.13133500  0.00118900  1
  C  C39  1  0.38206400  0.00275800  0.12786900  1
  C  C40  1  0.38509600  0.88962700  0.00702000  1
  C  C41  1  0.25254000  0.99872000  0.32669400  1
  C  C42  1  0.17837300  0.99620100  0.32391500  1
  C  C43  1  0.17018500  0.99242000  0.25496600  1
  C  C44  1  0.23698000  0.99493300  0.19062200  1
  C  C45  1  0.31051500  0.99670200  0.19668500  1
  C  C46  1  0.31384800  0.99654000  0.26777100  1
  C  C47  1  0.37093500  0.00223200  0.30765200  1
  C  C48  1  0.29845300  0.00402000  0.37744500  1
  C  C49  1  0.82186200  0.01650500  0.75248000  1
  C  C50  1  0.81448300  0.01479600  0.68350700  1
  C  C51  1  0.74131500  0.01600400  0.67881400  1
  C  C52  1  0.67976500  0.02005300  0.74174300  1
  C  C53  1  0.68861700  0.01853400  0.81205700  1
  C  C54  1  0.76108300  0.01579000  0.81449800  1
  C  C55  1  0.80593800  0.01326400  0.86667900  1
  C  C56  1  0.87726300  0.01349900  0.79386200  1
  O  O1  1  0.86728800  0.42684100  0.04259000  1
  O  O2  1  0.97587900  0.41323800  0.95345900  1
  O  O3  1  0.95890800  0.59910300  0.95497600  1
  O  O4  1  0.06453400  0.59028200  0.85719800  1
  O  O5  1  0.04492800  0.60162500  0.04850500  1
  O  O6  1  0.15397100  0.59427400  0.95263300  1
  O  O7  1  0.94886300  0.41981800  0.14128100  1
  O  O8  1  0.06119300  0.41776700  0.04352500  1
  O  O9  1  0.13862000  0.04484400  0.42362800  1
  O  O10  1  0.02935500  0.95741700  0.40970100  1
  O  O11  1  0.04503700  0.95873600  0.59537800  1
  O  O12  1  0.93837200  0.86244100  0.58643200  1
  O  O13  1  0.96318900  0.05672100  0.59462900  1
  O  O14  1  0.85326800  0.96253700  0.58695800  1
  O  O15  1  0.06139400  0.14792700  0.41334600  1
  O  O16  1  0.94817000  0.05190900  0.41093700  1
  O  O17  1  0.58505500  0.06339400  0.86187600  1
  O  O18  1  0.60235400  0.96840500  0.96045200  1
  O  O19  1  0.58919800  0.15240100  0.95067100  1
  O  O20  1  0.59596800  0.05156600  0.05454900  1
  O  O21  1  0.40349700  0.05264000  0.04880500  1
  O  O22  1  0.42034900  0.95735400  0.14745300  1
  O  O23  1  0.40979100  0.96943200  0.95475500  1
  O  O24  1  0.41702200  0.86864000  0.05833900  1
