# Generated by REPEAT Assigner based on pymatgen
data_DB0-m3_o6_o6_f0_pcu.sym.23_sqe
_audit_creation_date              2022-05-24
_audit_creation_method            REPEAT_Assigner
_cell_length_a                    22.802312
_cell_length_b                    22.834597
_cell_length_c                    14.991608
_cell_angle_alpha                 90.000000
_cell_angle_beta                  90.000000
_cell_angle_gamma                 90.000000
_cell_volume                      7805.854588
_symmetry_space_group_name_H-M    P1
_symmetry_Int_Tables_number       1
loop_
    _symmetry_equiv_pos_site_id
    _symmetry_equiv_pos_as_xyz
    1  x,y,z
loop_
    _atom_site_type_symbol
    _atom_site_label
    _atom_site_fract_x
    _atom_site_fract_y
    _atom_site_fract_z
    _atom_type_partial_charge
    O   O1    0.059941  0.438316  0.577097  -0.636455
    O   O2    0.936365  0.561687  0.422895  -0.632878
    O   O3    0.936359  0.561685  0.577096  -0.636743
    O   O4    0.059935  0.438312  0.422896  -0.632582
    O   O5    0.936359  0.438315  0.422904  -0.636744
    O   O6    0.059935  0.561688  0.577104  -0.632587
    O   O7    0.059941  0.561684  0.422903  -0.636450
    O   O8    0.936365  0.438313  0.577105  -0.632886
    O   O9    0.559943  0.938312  0.577090  -0.613856
    O   O10   0.436361  0.061684  0.422897  -0.607357
    O   O11   0.436357  0.061687  0.577092  -0.613901
    O   O12   0.559939  0.938317  0.422895  -0.607094
    O   O13   0.436357  0.938313  0.422908  -0.613901
    O   O14   0.559938  0.061683  0.577105  -0.607102
    O   O15   0.559943  0.061688  0.422910  -0.613846
    O   O16   0.436361  0.938316  0.577103  -0.607368
    C   C1    0.079164  0.419100  0.499990  0.775519
    C   C2    0.917136  0.580900  0.499988  0.774764
    C   C3    0.917136  0.419100  0.500012  0.774772
    C   C4    0.079164  0.580900  0.500010  0.775520
    C   C5    0.579179  0.919103  0.499977  0.728742
    C   C6    0.417121  0.080897  0.499980  0.727144
    C   C7    0.417121  0.919103  0.500020  0.727145
    C   C8    0.579179  0.080897  0.500023  0.728741
    Zn  Zn1   0.998150  0.500001  0.601625  1.051852
    Zn  Zn2   0.998150  0.499999  0.398375  1.051829
    Zn  Zn3   0.498150  0.999999  0.601621  1.037565
    Zn  Zn4   0.498150  0.000001  0.398378  1.037529
    C   C9    0.997344  0.447438  0.953850  -0.265336
    C   C10   0.997344  0.552562  0.046150  -0.265372
    C   C11   0.998957  0.552563  0.953851  -0.263159
    C   C12   0.998957  0.447437  0.046149  -0.263201
    C   C13   0.497409  0.947440  0.953852  -0.247709
    C   C14   0.497409  0.052560  0.046147  -0.247730
    C   C15   0.498893  0.052559  0.953850  -0.244738
    C   C16   0.498893  0.947441  0.046150  -0.244769
    C   C17   0.998150  0.500000  0.907973  0.426438
    C   C18   0.998150  0.500000  0.092027  0.426489
    C   C19   0.498151  0.999999  0.907969  0.393397
    C   C20   0.498151  0.000001  0.092031  0.393426
    C   C21   0.219983  0.735116  0.579060  -0.167726
    C   C22   0.763195  0.277879  0.421435  -0.133087
    C   C23   0.776324  0.264877  0.579060  -0.172991
    C   C24   0.233097  0.722128  0.421429  -0.124204
    C   C25   0.776324  0.735123  0.420940  -0.173020
    C   C26   0.233097  0.277872  0.578571  -0.124210
    C   C27   0.219983  0.264884  0.420940  -0.167694
    C   C28   0.763195  0.722121  0.578565  -0.133088
    C   C29   0.733646  0.221630  0.578992  -0.160355
    C   C30   0.276381  0.764733  0.421599  -0.189426
    C   C31   0.262661  0.778363  0.578991  -0.166248
    C   C32   0.719910  0.235275  0.421605  -0.182054
    C   C33   0.262661  0.221637  0.421009  -0.166262
    C   C34   0.719910  0.764725  0.578395  -0.182058
    C   C35   0.733646  0.778370  0.421008  -0.160309
    C   C36   0.276381  0.235267  0.578401  -0.189403
    C   C37   0.205299  0.707355  0.500213  0.179290
    C   C38   0.791001  0.292645  0.500216  0.190115
    C   C39   0.791001  0.707355  0.499784  0.190124
    C   C40   0.205299  0.292645  0.499787  0.179282
    C   C41   0.705499  0.207208  0.500306  0.202520
    C   C42   0.290800  0.792793  0.500303  0.212991
    C   C43   0.290800  0.207207  0.499697  0.212973
    C   C44   0.705499  0.792792  0.499693  0.202501
    C   C45   0.998150  0.500001  0.812178  -0.072343
    C   C46   0.998150  0.499999  0.187822  -0.072386
    C   C47   0.498150  0.999999  0.812174  -0.027542
    C   C48   0.498150  0.000001  0.187826  -0.027570
    N   N1    0.998150  0.499999  0.264983  -0.061446
    N   N2    0.998150  0.500001  0.735017  -0.061470
    N   N3    0.498150  0.000002  0.264987  -0.089794
    N   N4    0.498150  0.999998  0.735012  -0.089816
    C   C49   0.160830  0.662787  0.500130  -0.136674
    C   C50   0.835470  0.337213  0.500133  -0.143160
    C   C51   0.835470  0.662787  0.499867  -0.143156
    C   C52   0.160830  0.337213  0.499870  -0.136677
    C   C53   0.660978  0.162676  0.500241  -0.151116
    C   C54   0.335321  0.837325  0.500238  -0.158658
    C   C55   0.335321  0.162675  0.499762  -0.158641
    C   C56   0.660978  0.837324  0.499759  -0.151118
    C   C57   0.872754  0.374611  0.500053  -0.107935
    C   C58   0.123546  0.625389  0.500050  -0.112178
    C   C59   0.123546  0.374611  0.499950  -0.112174
    C   C60   0.872754  0.625389  0.499947  -0.107935
    C   C61   0.372667  0.874669  0.500104  -0.088475
    C   C62   0.623633  0.125331  0.500107  -0.093761
    C   C63   0.623633  0.874669  0.499893  -0.093756
    C   C64   0.372667  0.125331  0.499896  -0.088487
    C   C65   0.998496  0.391834  0.095460  0.739259
    O   O17   0.957628  0.357905  0.086317  -0.485541
    C   C66   0.049067  0.374868  0.153202  -0.495946
    H   H1    0.083701  0.408890  0.149871  0.109848
    H   H2    0.067413  0.332700  0.129384  0.174387
    H   H3    0.033975  0.369775  0.223103  0.174915
    C   C67   0.998496  0.608166  0.904540  0.739242
    O   O18   0.957628  0.642095  0.913683  -0.485543
    C   C68   0.049067  0.625132  0.846798  -0.495944
    H   H4    0.083701  0.591110  0.850129  0.109844
    H   H5    0.067413  0.667300  0.870616  0.174390
    H   H6    0.033975  0.630225  0.776897  0.174921
    C   C69   0.997803  0.608166  0.095462  0.740511
    O   O19   0.038669  0.642096  0.086316  -0.485802
    C   C70   0.947234  0.625129  0.153207  -0.496282
    H   H7    0.912600  0.591106  0.149877  0.110072
    H   H8    0.928886  0.667297  0.129391  0.174359
    H   H9    0.962327  0.630222  0.223107  0.175000
    C   C71   0.997803  0.391834  0.904538  0.740468
    O   O20   0.038669  0.357904  0.913684  -0.485779
    C   C72   0.947234  0.374871  0.846793  -0.496297
    H   H10   0.912600  0.408894  0.850123  0.110078
    H   H11   0.928886  0.332703  0.870609  0.174363
    H   H12   0.962327  0.369778  0.776893  0.175011
    C   C73   0.498203  0.891833  0.095428  0.723613
    O   O21   0.457289  0.857989  0.086035  -0.494034
    C   C74   0.548593  0.874743  0.153418  -0.457019
    H   H13   0.583323  0.908674  0.150255  0.096097
    H   H14   0.566866  0.832527  0.129673  0.174392
    H   H15   0.533327  0.869690  0.223238  0.162609
    C   C75   0.498203  0.108167  0.904572  0.723605
    O   O22   0.457289  0.142011  0.913965  -0.494038
    C   C76   0.548593  0.125257  0.846582  -0.457029
    H   H16   0.583323  0.091326  0.849745  0.096098
    H   H17   0.566866  0.167473  0.870327  0.174394
    H   H18   0.533327  0.130310  0.776762  0.162617
    C   C77   0.498099  0.108169  0.095423  0.725282
    O   O23   0.539011  0.142015  0.086024  -0.494183
    C   C78   0.447711  0.125259  0.153416  -0.456549
    H   H19   0.412981  0.091327  0.150258  0.096007
    H   H20   0.429436  0.167474  0.129672  0.174153
    H   H21   0.462980  0.130313  0.223235  0.162338
    C   C79   0.498099  0.891831  0.904577  0.725253
    O   O24   0.539011  0.857985  0.913976  -0.494169
    C   C80   0.447711  0.874741  0.846584  -0.456559
    H   H22   0.412981  0.908673  0.849742  0.096011
    H   H23   0.429436  0.832526  0.870328  0.174151
    H   H24   0.462980  0.869687  0.776765  0.162349
    C   C81   0.805320  0.282768  0.662239  0.724849
    O   O25   0.858321  0.277670  0.670002  -0.512426
    C   C82   0.770823  0.309597  0.736262  -0.495450
    H   H25   0.724104  0.313470  0.716614  0.112267
    H   H26   0.788422  0.353867  0.750695  0.158238
    H   H27   0.774585  0.282037  0.796880  0.141170
    C   C83   0.215106  0.693440  0.338108  0.695283
    O   O26   0.220314  0.640556  0.329874  -0.508809
    C   C84   0.188111  0.728149  0.264469  -0.497616
    H   H28   0.184231  0.774723  0.284550  0.111664
    H   H29   0.143760  0.710628  0.250023  0.165656
    H   H30   0.215638  0.724661  0.203738  0.144407
    C   C85   0.190994  0.717218  0.662241  0.722574
    O   O27   0.137994  0.722316  0.670016  -0.511717
    C   C86   0.225497  0.690382  0.736251  -0.491362
    H   H31   0.272214  0.686510  0.716592  0.111395
    H   H32   0.207899  0.646110  0.750677  0.157115
    H   H33   0.221741  0.717935  0.796876  0.140031
    C   C87   0.781179  0.306575  0.338116  0.698016
    O   O28   0.775974  0.359460  0.329895  -0.509607
    C   C88   0.808163  0.271871  0.264461  -0.498766
    H   H34   0.812043  0.225296  0.284530  0.112152
    H   H35   0.852513  0.289392  0.250007  0.165719
    H   H36   0.780629  0.275368  0.203739  0.144746
    C   C89   0.190994  0.282782  0.337759  0.722567
    O   O29   0.137994  0.277684  0.329984  -0.511716
    C   C90   0.225497  0.309618  0.263749  -0.491382
    H   H37   0.272214  0.313490  0.283408  0.111399
    H   H38   0.207899  0.353890  0.249323  0.157124
    H   H39   0.221741  0.282065  0.203124  0.140040
    C   C91   0.781179  0.693425  0.661884  0.697984
    O   O30   0.775974  0.640540  0.670105  -0.509595
    C   C92   0.808163  0.728129  0.735539  -0.498726
    H   H40   0.812043  0.774704  0.715469  0.112144
    H   H41   0.852513  0.710608  0.749993  0.165709
    H   H42   0.780629  0.724633  0.796261  0.144735
    C   C93   0.805320  0.717232  0.337761  0.724845
    O   O31   0.858321  0.722330  0.329998  -0.512422
    C   C94   0.770823  0.690403  0.263738  -0.495458
    H   H43   0.724104  0.686530  0.283386  0.112271
    H   H44   0.788422  0.646133  0.249305  0.158239
    H   H45   0.774585  0.717963  0.203120  0.141175
    C   C95   0.215106  0.306560  0.661892  0.695208
    O   O32   0.220314  0.359444  0.670126  -0.508800
    C   C96   0.188111  0.271851  0.735531  -0.497333
    H   H46   0.184231  0.225277  0.715450  0.111593
    H   H47   0.143760  0.289372  0.749977  0.165591
    H   H48   0.215638  0.275339  0.796262  0.144309
    C   C97   0.277414  0.810323  0.661028  0.696893
    O   O33   0.327220  0.808522  0.690579  -0.504812
    C   C98   0.232530  0.847207  0.706708  -0.467794
    H   H49   0.190746  0.846075  0.668918  0.107686
    H   H50   0.248447  0.893041  0.710019  0.154283
    H   H51   0.225239  0.830624  0.775325  0.133786
    C   C99   0.687914  0.220500  0.339592  0.720150
    O   O34   0.689873  0.170795  0.309957  -0.508779
    C   C100  0.650890  0.265261  0.293943  -0.471642
    H   H52   0.651925  0.306967  0.331791  0.103012
    H   H53   0.605026  0.249268  0.290566  0.149443
    H   H54   0.667509  0.272623  0.225351  0.144481
    C   C101  0.718902  0.189662  0.661024  0.696130
    O   O35   0.669098  0.191457  0.690584  -0.505236
    C   C102  0.763790  0.152775  0.706688  -0.467073
    H   H55   0.805572  0.153913  0.668891  0.107537
    H   H56   0.747877  0.106940  0.709991  0.154000
    H   H57   0.771086  0.169352  0.775308  0.133563
    C   C103  0.308368  0.779518  0.339581  0.722665
    O   O36   0.306403  0.829227  0.309959  -0.509171
    C   C104  0.345389  0.734763  0.293911  -0.472371
    H   H58   0.344359  0.693054  0.331749  0.102744
    H   H59   0.391251  0.750759  0.290526  0.149736
    H   H60   0.328762  0.727409  0.225322  0.144543
    C   C105  0.718902  0.810338  0.338976  0.696125
    O   O37   0.669098  0.808543  0.309416  -0.505240
    C   C106  0.763790  0.847225  0.293312  -0.467112
    H   H61   0.805572  0.846087  0.331109  0.107544
    H   H62   0.747877  0.893060  0.290009  0.154013
    H   H63   0.771086  0.830648  0.224692  0.133575
    C   C107  0.308368  0.220482  0.660419  0.722643
    O   O38   0.306403  0.170773  0.690041  -0.509159
    C   C108  0.345389  0.265237  0.706089  -0.472364
    H   H64   0.344359  0.306946  0.668251  0.102752
    H   H65   0.391251  0.249241  0.709474  0.149727
    H   H66   0.328762  0.272591  0.774678  0.144548
    C   C109  0.277414  0.189677  0.338972  0.696897
    O   O39   0.327220  0.191478  0.309421  -0.504813
    C   C110  0.232530  0.152793  0.293292  -0.467805
    H   H67   0.190745  0.153925  0.331082  0.107686
    H   H68   0.248447  0.106959  0.289981  0.154285
    H   H69   0.225239  0.169376  0.224675  0.133791
    C   C111  0.687914  0.779500  0.660408  0.720179
    O   O40   0.689873  0.829205  0.690043  -0.508790
    C   C112  0.650890  0.734739  0.706057  -0.471636
    H   H70   0.651925  0.693033  0.668209  0.103006
    H   H71   0.605026  0.750732  0.709434  0.149440
    H   H72   0.667509  0.727377  0.774649  0.144479
