# generated using pymatgen
data_CuH8C10NO6
_symmetry_space_group_name_H-M   'P 1'
_cell_length_a   10.87167600
_cell_length_b   9.45725100
_cell_length_c   9.21375800
_cell_angle_alpha   90.00000000
_cell_angle_beta   90.00238600
_cell_angle_gamma   90.00000000
_symmetry_Int_Tables_number   1
_chemical_formula_structural   CuH8C10NO6
_chemical_formula_sum   'Cu2 H16 C20 N2 O12'
_cell_volume   947.32329628
_cell_formula_units_Z   2
loop_
 _symmetry_equiv_pos_site_id
 _symmetry_equiv_pos_as_xyz
  1  'x, y, z'
loop_
 _atom_site_type_symbol
 _atom_site_label
 _atom_site_symmetry_multiplicity
 _atom_site_fract_x
 _atom_site_fract_y
 _atom_site_fract_z
 _atom_site_occupancy
  Cu  Cu1  1  0.49959500  0.62394600  0.50045400  1
  Cu  Cu2  1  0.50025900  0.34054800  0.49912400  1
  H  H1  1  0.10868900  0.25819600  0.50676100  1
  H  H2  1  0.88921400  0.71096200  0.50716000  1
  H  H3  1  0.88918200  0.25984700  0.48356700  1
  H  H4  1  0.11229200  0.70972500  0.50269700  1
  H  H5  1  0.23497400  0.07679000  0.43268800  1
  H  H6  1  0.21264800  0.02106800  0.24617000  1
  H  H7  1  0.19923400  0.20426900  0.29056400  1
  H  H8  1  0.46704200  0.87767300  0.81775700  1
  H  H9  1  0.60587000  0.95137600  0.89802900  1
  H  H10  1  0.57875700  0.76595900  0.90771500  1
  H  H11  1  0.76398000  0.07901700  0.56385200  1
  H  H12  1  0.78826400  0.02626600  0.75090500  1
  H  H13  1  0.79956700  0.20910300  0.70330800  1
  H  H14  1  0.53391500  0.87527500  0.18186500  1
  H  H15  1  0.39505000  0.94823900  0.10107500  1
  H  H16  1  0.42238700  0.76297500  0.09229300  1
  C  C1  1  0.26320700  0.48153900  0.49826400  1
  C  C2  1  0.73657300  0.48397000  0.50159800  1
  C  C3  1  0.50265200  0.48269700  0.22117500  1
  C  C4  1  0.49714500  0.48122300  0.77841900  1
  C  C5  1  0.50106700  0.48223500  0.06522800  1
  C  C6  1  0.49897000  0.48115500  0.93435400  1
  C  C7  1  0.06251700  0.35839800  0.50060500  1
  C  C8  1  0.93677400  0.61067500  0.50385600  1
  C  C9  1  0.93618700  0.35933900  0.49351400  1
  C  C10  1  0.06397200  0.60988900  0.50175100  1
  C  C11  1  0.87187400  0.48491000  0.49950300  1
  C  C12  1  0.12787000  0.48324400  0.50029700  1
  C  C13  1  0.43586200  0.05541600  0.39787800  1
  C  C14  1  0.56152700  0.90946900  0.60337500  1
  C  C15  1  0.56370800  0.05646200  0.60050400  1
  C  C16  1  0.43881400  0.90838400  0.39596500  1
  C  C17  1  0.24924700  0.10565500  0.31728600  1
  C  C18  1  0.56646400  0.86044600  0.83827700  1
  C  C19  1  0.75034100  0.10938200  0.67892200  1
  C  C20  1  0.43453200  0.85771900  0.16135700  1
  N  N1  1  0.49863600  0.83604000  0.50127900  1
  N  N2  1  0.50113900  0.12850500  0.49769100  1
  O  O1  1  0.32095100  0.60287600  0.50205600  1
  O  O2  1  0.67897300  0.36203900  0.49575600  1
  O  O3  1  0.67836000  0.60510400  0.50886800  1
  O  O4  1  0.32133800  0.35974500  0.49271000  1
  O  O5  1  0.50709800  0.60387900  0.28966900  1
  O  O6  1  0.49429700  0.35993700  0.71009900  1
  O  O7  1  0.50058300  0.60291000  0.71120700  1
  O  O8  1  0.49753400  0.36130600  0.28832000  1
  O  O9  1  0.37424000  0.12646100  0.29071600  1
  O  O10  1  0.62838400  0.83923800  0.70686500  1
  O  O11  1  0.62538200  0.12883400  0.70667600  1
  O  O12  1  0.37255200  0.83688700  0.29281400  1
