# generated using pymatgen
data_ZnH16C25NO4
_symmetry_space_group_name_H-M   'P 1'
_cell_length_a   19.39921100
_cell_length_b   8.53577400
_cell_length_c   11.31870800
_cell_angle_alpha   90.00000000
_cell_angle_beta   95.00422300
_cell_angle_gamma   90.00000000
_symmetry_Int_Tables_number   1
_chemical_formula_structural   ZnH16C25NO4
_chemical_formula_sum   'Zn2 H32 C50 N2 O8'
_cell_volume   1867.09000936
_cell_formula_units_Z   2
loop_
 _symmetry_equiv_pos_site_id
 _symmetry_equiv_pos_as_xyz
  1  'x, y, z'
loop_
 _atom_site_type_symbol
 _atom_site_label
 _atom_site_symmetry_multiplicity
 _atom_site_fract_x
 _atom_site_fract_y
 _atom_site_fract_z
 _atom_site_occupancy
  Zn  Zn1  1  0.49014300  0.49433900  0.86762600  1
  Zn  Zn2  1  0.50985700  0.49433900  0.13237400  1
  H  H1  1  0.44833400  0.99451400  0.96832300  1
  H  H2  1  0.55166600  0.99451400  0.03167800  1
  H  H3  1  0.26839500  0.24713200  0.02494400  1
  H  H4  1  0.72898700  0.74271800  0.95479300  1
  H  H5  1  0.73160600  0.24713200  0.97505600  1
  H  H6  1  0.27101300  0.74271800  0.04520800  1
  H  H7  1  0.95411200  0.76179400  0.06104500  1
  H  H8  1  0.04661100  0.22569000  0.07769500  1
  H  H9  1  0.04588800  0.76179400  0.93895500  1
  H  H10  1  0.95338900  0.22569000  0.92230500  1
  H  H11  1  0.82999000  0.76104900  0.04758400  1
  H  H12  1  0.17179700  0.22323600  0.10218900  1
  H  H13  1  0.17001000  0.76104900  0.95241700  1
  H  H14  1  0.82820300  0.22323600  0.89781100  1
  H  H15  1  0.41396900  0.49240600  0.29602200  1
  H  H16  1  0.58603100  0.49240600  0.70397900  1
  H  H17  1  0.35919300  0.49602900  0.47915300  1
  H  H18  1  0.64080700  0.49602900  0.52084700  1
  H  H19  1  0.59698400  0.78517600  0.33651500  1
  H  H20  1  0.64902700  0.87908500  0.23358800  1
  H  H21  1  0.68284900  0.85246400  0.38554800  1
  H  H22  1  0.77252000  0.76049400  0.22729500  1
  H  H23  1  0.82990600  0.51528500  0.17750500  1
  H  H24  1  0.77333800  0.26258400  0.20765400  1
  H  H25  1  0.65938800  0.25526900  0.28622500  1
  H  H26  1  0.40301600  0.78517600  0.66348600  1
  H  H27  1  0.35097300  0.87908500  0.76641200  1
  H  H28  1  0.31715100  0.85246400  0.61445200  1
  H  H29  1  0.22748100  0.76049400  0.77270600  1
  H  H30  1  0.17009400  0.51528500  0.82249600  1
  H  H31  1  0.22666200  0.26258400  0.79234600  1
  H  H32  1  0.34061200  0.25526900  0.71377600  1
  C  C1  1  0.36383300  0.13392000  0.00822400  1
  C  C2  1  0.63589300  0.85500200  0.99071400  1
  C  C3  1  0.63616700  0.13392000  0.99177700  1
  C  C4  1  0.36410700  0.85500200  0.00928700  1
  C  C5  1  0.29406800  0.13527300  0.02372700  1
  C  C6  1  0.70482500  0.85395500  0.96964200  1
  C  C7  1  0.70593200  0.13527300  0.97627300  1
  C  C8  1  0.29517500  0.85395500  0.03035800  1
  C  C9  1  0.25825200  0.99416700  0.02979800  1
  C  C10  1  0.74174800  0.99416700  0.97020300  1
  C  C11  1  0.39624300  0.99445300  0.99189800  1
  C  C12  1  0.60375700  0.99445300  0.00810200  1
  C  C13  1  0.92648400  0.86298500  0.02425900  1
  C  C14  1  0.07406300  0.12354400  0.05038800  1
  C  C15  1  0.07351600  0.86298500  0.97574100  1
  C  C16  1  0.92593700  0.12354400  0.94961200  1
  C  C17  1  0.85524600  0.86269700  0.01518000  1
  C  C18  1  0.14554200  0.12186500  0.06339000  1
  C  C19  1  0.14475400  0.86269700  0.98482000  1
  C  C20  1  0.85445800  0.12186500  0.93661100  1
  C  C21  1  0.81811600  0.99213700  0.97131800  1
  C  C22  1  0.18188500  0.99213700  0.02868300  1
  C  C23  1  0.96215200  0.99405400  0.99345600  1
  C  C24  1  0.03784800  0.99405400  0.00654400  1
  C  C25  1  0.40595400  0.71275300  0.00693300  1
  C  C26  1  0.59421400  0.27614100  0.99339200  1
  C  C27  1  0.59404600  0.71275300  0.99306700  1
  C  C28  1  0.40578600  0.27614100  0.00660800  1
  C  C29  1  0.40972200  0.49415300  0.52765600  1
  C  C30  1  0.59027800  0.49415300  0.47234500  1
  C  C31  1  0.41510900  0.49549500  0.64993600  1
  C  C32  1  0.58489100  0.49549500  0.35006400  1
  C  C33  1  0.53588600  0.49258400  0.65423700  1
  C  C34  1  0.46411400  0.49258400  0.34576400  1
  C  C35  1  0.53161300  0.49255300  0.53188200  1
  C  C36  1  0.46838700  0.49255300  0.46811800  1
  C  C37  1  0.64901500  0.50420900  0.29177500  1
  C  C38  1  0.68200400  0.64670400  0.27866100  1
  C  C39  1  0.65039000  0.79882900  0.31074700  1
  C  C40  1  0.74671300  0.64963800  0.23693800  1
  C  C41  1  0.77905400  0.51222400  0.20959800  1
  C  C42  1  0.74731100  0.37065600  0.22621400  1
  C  C43  1  0.68302400  0.36676900  0.26913300  1
  C  C44  1  0.35098500  0.50420900  0.70822500  1
  C  C45  1  0.31799600  0.64670400  0.72134000  1
  C  C46  1  0.34961000  0.79882900  0.68925400  1
  C  C47  1  0.25328700  0.64963800  0.76306200  1
  C  C48  1  0.22094600  0.51222400  0.79040200  1
  C  C49  1  0.25268900  0.37065600  0.77378600  1
  C  C50  1  0.31697600  0.36676900  0.73086700  1
  N  N1  1  0.52194800  0.49415900  0.28781100  1
  N  N2  1  0.47805200  0.49415900  0.71218900  1
  O  O1  1  0.43746500  0.66349900  0.10754500  1
  O  O2  1  0.56259000  0.32520500  0.89266700  1
  O  O3  1  0.56253600  0.66349900  0.89245500  1
  O  O4  1  0.43741000  0.32520500  0.10733300  1
  O  O5  1  0.42002700  0.65847200  0.90315700  1
  O  O6  1  0.57991500  0.33025500  0.09679700  1
  O  O7  1  0.57997400  0.65847200  0.09684300  1
  O  O8  1  0.42008500  0.33025500  0.90320400  1
