# generated using pymatgen
data_CuH18C23N3O4
_symmetry_space_group_name_H-M   'P 1'
_cell_length_a   13.63080900
_cell_length_b   15.52340400
_cell_length_c   16.98756400
_cell_angle_alpha   83.67332700
_cell_angle_beta   91.02840900
_cell_angle_gamma   109.24965600
_symmetry_Int_Tables_number   1
_chemical_formula_structural   CuH18C23N3O4
_chemical_formula_sum   'Cu2 H36 C46 N6 O8'
_cell_volume   3372.22980130
_cell_formula_units_Z   2
loop_
 _symmetry_equiv_pos_site_id
 _symmetry_equiv_pos_as_xyz
  1  'x, y, z'
loop_
 _atom_site_type_symbol
 _atom_site_label
 _atom_site_symmetry_multiplicity
 _atom_site_fract_x
 _atom_site_fract_y
 _atom_site_fract_z
 _atom_site_occupancy
  Cu  Cu1  1  0.51178000  0.59076000  0.49154800  1
  Cu  Cu2  1  0.49230800  0.41291200  0.50312000  1
  H  H1  1  0.16967500  0.29682500  0.56718400  1
  H  H2  1  0.83962500  0.30458600  0.60562000  1
  H  H3  1  0.98591800  0.25995400  0.59631000  1
  H  H4  1  0.18980800  0.56651300  0.47606300  1
  H  H5  1  0.82449900  0.70057800  0.41743000  1
  H  H6  1  0.10869500  0.65109000  0.42954900  1
  H  H7  1  0.01004300  0.74860900  0.39126000  1
  H  H8  1  0.74937800  0.41240200  0.57709700  1
  H  H9  1  0.49051000  0.62073900  0.73902800  1
  H  H10  1  0.48987700  0.61200000  0.88193100  1
  H  H11  1  0.51806000  0.65884800  0.09518500  1
  H  H12  1  0.52402200  0.65519800  0.24000300  1
  H  H13  1  0.55596800  0.36920300  0.75132300  1
  H  H14  1  0.55640000  0.36033700  0.89519600  1
  H  H15  1  0.43090300  0.36419500  0.26137700  1
  H  H16  1  0.42694100  0.70182600  0.58186200  1
  H  H17  1  0.43307900  0.85807100  0.57552600  1
  H  H18  1  0.40737800  0.07584700  0.62271200  1
  H  H19  1  0.62286600  0.76005500  0.38064200  1
  H  H20  1  0.58076400  0.15821600  0.40602700  1
  H  H21  1  0.63350300  0.92222000  0.36886600  1
  H  H22  1  0.57367500  0.31088200  0.40810900  1
  H  H23  1  0.30303100  0.21649100  0.00694700  1
  H  H24  1  0.23806100  0.18175900  0.10289500  1
  H  H25  1  0.17507600  0.22457600  0.02097300  1
  H  H26  1  0.24761900  0.34213200  0.11408000  1
  H  H27  1  0.30941000  0.37733100  0.01758600  1
  H  H28  1  0.45974800  0.32773000  0.06775600  1
  H  H29  1  0.39203200  0.28289000  0.15924400  1
  H  H30  1  0.23624300  0.17162400  0.76946600  1
  H  H31  1  0.19838200  0.25218400  0.70230800  1
  H  H32  1  0.11819900  0.13269000  0.71515400  1
  H  H33  1  0.21993600  0.16531000  0.58837800  1
  H  H34  1  0.26151600  0.09022200  0.65996300  1
  H  H35  1  0.40855300  0.22645100  0.69393000  1
  H  H36  1  0.35895800  0.29813300  0.62706400  1
  C  C1  1  0.48690300  0.50580200  0.34608500  1
  C  C2  1  0.70082500  0.54400100  0.48679900  1
  C  C3  1  0.51571300  0.49786500  0.64861100  1
  C  C4  1  0.30380400  0.45992500  0.51052900  1
  C  C5  1  0.02936100  0.32715300  0.56781600  1
  C  C6  1  0.19022600  0.43524800  0.52005500  1
  C  C7  1  0.86699100  0.65539000  0.43920000  1
  C  C8  1  0.97165200  0.68230800  0.42378300  1
  C  C9  1  0.02752300  0.62482700  0.44635300  1
  C  C10  1  0.97951400  0.53875800  0.48766300  1
  C  C11  1  0.87277100  0.51219100  0.50526300  1
  C  C12  1  0.03442100  0.47750200  0.51144900  1
  C  C13  1  0.98062900  0.39140200  0.54893700  1
  C  C14  1  0.87838200  0.36926500  0.57060600  1
  C  C15  1  0.82617100  0.43047700  0.55195900  1
  C  C16  1  0.14140400  0.49932200  0.49980800  1
  C  C17  1  0.13300600  0.34786200  0.55142400  1
  C  C18  1  0.81567000  0.57015100  0.47831600  1
  C  C19  1  0.48136800  0.50880400  0.25961400  1
  C  C20  1  0.45321600  0.42852600  0.22413400  1
  C  C21  1  0.44869000  0.42971100  0.14213900  1
  C  C22  1  0.47662200  0.51489000  0.09546700  1
  C  C23  1  0.50013100  0.59392900  0.13207000  1
  C  C24  1  0.50334300  0.59159000  0.21319900  1
  C  C25  1  0.50260800  0.55697700  0.85478900  1
  C  C26  1  0.50387300  0.56268900  0.77307900  1
  C  C27  1  0.51955200  0.48284300  0.89924300  1
  C  C28  1  0.52028600  0.49428500  0.73522200  1
  C  C29  1  0.53976600  0.42196600  0.77966900  1
  C  C30  1  0.54045600  0.41698300  0.86103100  1
  C  C31  1  0.53154000  0.25829600  0.45434000  1
  C  C32  1  0.53759700  0.17110100  0.45364500  1
  C  C33  1  0.49095300  0.10460800  0.51530500  1
  C  C34  1  0.43943600  0.12743200  0.57378000  1
  C  C35  1  0.42920700  0.21345000  0.57101500  1
  C  C36  1  0.47814600  0.84152400  0.53176800  1
  C  C37  1  0.47470600  0.75172600  0.53647300  1
  C  C38  1  0.53663500  0.90490400  0.47230000  1
  C  C39  1  0.58240200  0.78359000  0.42390900  1
  C  C40  1  0.58804700  0.87492600  0.41702700  1
  C  C41  1  0.40478200  0.33846200  0.10976300  1
  C  C42  1  0.30010900  0.32838600  0.07161300  1
  C  C43  1  0.25107400  0.23152300  0.04907000  1
  C  C44  1  0.36817500  0.23037700  0.63711800  1
  C  C45  1  0.25927200  0.16070400  0.64539900  1
  C  C46  1  0.19911600  0.18081900  0.71217300  1
  N  N1  1  0.47869800  0.52492100  0.01153600  1
  N  N2  1  0.51820200  0.47323700  0.98309500  1
  N  N3  1  0.47758400  0.27942600  0.51122300  1
  N  N4  1  0.49339700  0.01392100  0.52101700  1
  N  N5  1  0.54100900  0.99807600  0.46545600  1
  N  N6  1  0.52716400  0.72408400  0.48423800  1
  O  O1  1  0.49809200  0.58109600  0.37803000  1
  O  O2  1  0.48382500  0.42849200  0.38753100  1
  O  O3  1  0.66068300  0.60959700  0.48786700  1
  O  O4  1  0.64255100  0.45717100  0.48790300  1
  O  O5  1  0.51437500  0.57376300  0.60714500  1
  O  O6  1  0.51116700  0.42432100  0.61579800  1
  O  O7  1  0.36076200  0.54678900  0.50315000  1
  O  O8  1  0.34332000  0.39399700  0.51110700  1
