# generated using pymatgen
data_Zn3H10C28(IO6)2
_symmetry_space_group_name_H-M   'P 1'
_cell_length_a   31.22681000
_cell_length_b   29.04805100
_cell_length_c   30.72684100
_cell_angle_alpha   90.00000000
_cell_angle_beta   90.00000000
_cell_angle_gamma   90.00000000
_symmetry_Int_Tables_number   1
_chemical_formula_structural   Zn3H10C28(IO6)2
_chemical_formula_sum   'Zn24 H80 C224 I16 O96'
_cell_volume   27871.64054181
_cell_formula_units_Z   8
loop_
 _symmetry_equiv_pos_site_id
 _symmetry_equiv_pos_as_xyz
  1  'x, y, z'
loop_
 _atom_site_type_symbol
 _atom_site_label
 _atom_site_symmetry_multiplicity
 _atom_site_fract_x
 _atom_site_fract_y
 _atom_site_fract_z
 _atom_site_occupancy
  Zn  Zn1  1  0.28320400  0.99435800  0.78741400  1
  Zn  Zn2  1  0.71601300  0.99312700  0.78766800  1
  Zn  Zn3  1  0.78445500  0.49225200  0.78809900  1
  Zn  Zn4  1  0.21664100  0.48649200  0.78649800  1
  Zn  Zn5  1  0.78453300  0.99969800  0.28787200  1
  Zn  Zn6  1  0.21670000  0.00763700  0.28672700  1
  Zn  Zn7  1  0.28296700  0.50766300  0.28623400  1
  Zn  Zn8  1  0.71540800  0.50258100  0.28795100  1
  Zn  Zn9  1  0.21702300  0.98648900  0.71582900  1
  Zn  Zn10  1  0.78378100  0.98485300  0.71763100  1
  Zn  Zn11  1  0.71643300  0.48538500  0.71819900  1
  Zn  Zn12  1  0.28340300  0.49446000  0.71546900  1
  Zn  Zn13  1  0.71703100  0.00591700  0.21738100  1
  Zn  Zn14  1  0.28442500  0.00127500  0.21647200  1
  Zn  Zn15  1  0.21498400  0.50148600  0.21622700  1
  Zn  Zn16  1  0.78230900  0.50282200  0.21647600  1
  Zn  Zn17  1  0.00218300  0.94464000  0.00311500  1
  Zn  Zn18  1  0.99840400  0.04872600  0.00066700  1
  Zn  Zn19  1  0.49679100  0.44281300  0.00454600  1
  Zn  Zn20  1  0.50187100  0.54659000  0.99890700  1
  Zn  Zn21  1  0.50235800  0.94394600  0.49868300  1
  Zn  Zn22  1  0.49844300  0.04781900  0.50537100  1
  Zn  Zn23  1  0.99833500  0.44698700  0.49982100  1
  Zn  Zn24  1  0.00009200  0.55108700  0.50380000  1
  H  H1  1  0.31525000  0.93351400  0.62042100  1
  H  H2  1  0.68190900  0.93349900  0.62464500  1
  H  H3  1  0.80946400  0.44872600  0.61523300  1
  H  H4  1  0.18928400  0.54143000  0.61705800  1
  H  H5  1  0.80892000  0.04168400  0.11348400  1
  H  H6  1  0.19246900  0.96010200  0.11521700  1
  H  H7  1  0.30602500  0.46169900  0.11406600  1
  H  H8  1  0.68923700  0.54295400  0.11506800  1
  H  H9  1  0.37214500  0.93381400  0.56495900  1
  H  H10  1  0.62523300  0.93386400  0.56927500  1
  H  H11  1  0.86581800  0.45007500  0.55955800  1
  H  H12  1  0.13234400  0.54404600  0.56199700  1
  H  H13  1  0.86566700  0.04083200  0.05821600  1
  H  H14  1  0.13577500  0.95699900  0.05999900  1
  H  H15  1  0.36264200  0.45809700  0.05887600  1
  H  H16  1  0.63261800  0.54224900  0.05965900  1
  H  H17  1  0.46665800  0.03968900  0.66401200  1
  H  H18  1  0.57870700  0.09777200  0.62239300  1
  H  H19  1  0.54203600  0.06067200  0.65628400  1
  H  H20  1  0.43411900  0.08414500  0.63376600  1
  H  H21  1  0.96802200  0.53749900  0.66511400  1
  H  H22  1  0.03034500  0.45150800  0.66377400  1
  H  H23  1  0.05899600  0.40198100  0.63666700  1
  H  H24  1  0.93859600  0.58824600  0.64105400  1
  H  H25  1  0.94441000  0.91044700  0.14547600  1
  H  H26  1  0.05803800  0.09443200  0.13790200  1
  H  H27  1  0.03089200  0.04313200  0.16361300  1
  H  H28  1  0.97095500  0.96394300  0.16758900  1
  H  H29  1  0.46892100  0.54057000  0.16310600  1
  H  H30  1  0.52850100  0.46036200  0.16752300  1
  H  H31  1  0.55636400  0.40831900  0.14407300  1
  H  H32  1  0.44304500  0.59318800  0.13844400  1
  H  H33  1  0.11590400  0.94514500  0.81082400  1
  H  H34  1  0.88116800  0.93454700  0.81541000  1
  H  H35  1  0.61899900  0.43282600  0.81506800  1
  H  H36  1  0.38260300  0.53992300  0.80952400  1
  H  H37  1  0.61691200  0.05329100  0.31170300  1
  H  H38  1  0.38184200  0.95044800  0.31113200  1
  H  H39  1  0.11756300  0.45117100  0.31155900  1
  H  H40  1  0.88435200  0.45939500  0.30803800  1
  H  H41  1  0.06045600  0.94497900  0.86765800  1
  H  H42  1  0.93715700  0.93598800  0.87179900  1
  H  H43  1  0.56280100  0.43355900  0.87134700  1
  H  H44  1  0.43810300  0.54308900  0.86621700  1
  H  H45  1  0.56074200  0.05322100  0.36804800  1
  H  H46  1  0.43743900  0.94703200  0.36769000  1
  H  H47  1  0.06190200  0.44901000  0.36809500  1
  H  H48  1  0.94010600  0.45684200  0.36444300  1
  H  H49  1  0.13134800  0.09179500  0.93757700  1
  H  H50  1  0.84084600  0.04107600  0.96938900  1
  H  H51  1  0.86892400  0.08641100  0.93592100  1
  H  H52  1  0.15851000  0.04359100  0.96812500  1
  H  H53  1  0.63180900  0.58160100  0.93815700  1
  H  H54  1  0.36999000  0.39756000  0.94018300  1
  H  H55  1  0.34154600  0.44549600  0.96986600  1
  H  H56  1  0.65982300  0.53598000  0.97132100  1
  H  H57  1  0.66129000  0.96041700  0.47249700  1
  H  H58  1  0.34174000  0.04557300  0.47154000  1
  H  H59  1  0.37020000  0.09317100  0.44139000  1
  H  H60  1  0.63483900  0.91184200  0.44186000  1
  H  H61  1  0.13024400  0.59559200  0.44012100  1
  H  H62  1  0.83890500  0.54129600  0.47276200  1
  H  H63  1  0.86367100  0.59339800  0.44609800  1
  H  H64  1  0.15819000  0.54807800  0.47088300  1
  H  H65  1  0.18766600  0.08955100  0.88276800  1
  H  H66  1  0.78381900  0.03751300  0.91547200  1
  H  H67  1  0.81219100  0.08241800  0.88175700  1
  H  H68  1  0.21499500  0.04175900  0.91369300  1
  H  H69  1  0.68868000  0.57837100  0.88420600  1
  H  H70  1  0.31363400  0.39672800  0.88548200  1
  H  H71  1  0.28500200  0.44437700  0.91539900  1
  H  H72  1  0.71704600  0.53309300  0.91749300  1
  H  H73  1  0.71827600  0.96251700  0.41843300  1
  H  H74  1  0.28491900  0.04653500  0.41731200  1
  H  H75  1  0.31360700  0.09382800  0.38694300  1
  H  H76  1  0.69156700  0.91420200  0.38765600  1
  H  H77  1  0.18692700  0.59488400  0.38575300  1
  H  H78  1  0.78209300  0.54145100  0.41869100  1
  H  H79  1  0.80696400  0.59319900  0.39154600  1
  H  H80  1  0.21510700  0.54772000  0.41676300  1
  C  C1  1  0.31065900  0.98646700  0.69285300  1
  C  C2  1  0.69094100  0.99181400  0.69226300  1
  C  C3  1  0.80927800  0.49290300  0.69261800  1
  C  C4  1  0.18995900  0.49251700  0.69164500  1
  C  C5  1  0.81019700  0.00095500  0.19257400  1
  C  C6  1  0.19137000  0.00639500  0.19133100  1
  C  C7  1  0.30797500  0.50664800  0.19076200  1
  C  C8  1  0.68876300  0.50033000  0.19291400  1
  C  C9  1  0.25084200  0.90061900  0.75800400  1
  C  C10  1  0.75563000  0.07879200  0.75068400  1
  C  C11  1  0.74419600  0.89915400  0.75463700  1
  C  C12  1  0.24934600  0.08023100  0.74527000  1
  C  C13  1  0.75627800  0.39899400  0.75338300  1
  C  C14  1  0.24799300  0.58033000  0.75624300  1
  C  C15  1  0.25204900  0.40060500  0.74573700  1
  C  C16  1  0.74464200  0.57867300  0.75288600  1
  C  C17  1  0.74703900  0.91291400  0.25104100  1
  C  C18  1  0.25470400  0.09435800  0.25024300  1
  C  C19  1  0.24635800  0.91457300  0.25291800  1
  C  C20  1  0.75452300  0.09268800  0.25421900  1
  C  C21  1  0.25308800  0.41465800  0.25240600  1
  C  C22  1  0.74648200  0.59265800  0.25135300  1
  C  C23  1  0.75125500  0.41278700  0.25308600  1
  C  C24  1  0.24489700  0.59446800  0.25003300  1
  C  C25  1  0.18958700  0.99433600  0.81037500  1
  C  C26  1  0.80885900  0.98628100  0.81302700  1
  C  C27  1  0.69163800  0.48454400  0.81365500  1
  C  C28  1  0.31008400  0.48873300  0.81029000  1
  C  C29  1  0.69139800  0.00480600  0.31264100  1
  C  C30  1  0.30975500  0.00219700  0.31181200  1
  C  C31  1  0.18997700  0.50239100  0.31164200  1
  C  C32  1  0.80895600  0.50495400  0.31145700  1
  C  C33  1  0.25147300  0.85132600  0.76178800  1
  C  C34  1  0.75937100  0.12804700  0.74964400  1
  C  C35  1  0.74067300  0.84983800  0.75585600  1
  C  C36  1  0.24872500  0.12953000  0.74146100  1
  C  C37  1  0.75984300  0.34970800  0.75375900  1
  C  C38  1  0.24728800  0.62960800  0.76012700  1
  C  C39  1  0.25284400  0.35130300  0.74199500  1
  C  C40  1  0.74115000  0.62800000  0.75244500  1
  C  C41  1  0.74505000  0.86361600  0.24939800  1
  C  C42  1  0.25737800  0.14367400  0.24932400  1
  C  C43  1  0.24325700  0.86529800  0.25356900  1
  C  C44  1  0.75629700  0.14197700  0.25597600  1
  C  C45  1  0.25607000  0.36534100  0.25304200  1
  C  C46  1  0.74557100  0.64201900  0.25035700  1
  C  C47  1  0.75257300  0.36346500  0.25436400  1
  C  C48  1  0.24211500  0.64375500  0.24930900  1
  C  C49  1  0.25109500  0.80985100  0.76367500  1
  C  C50  1  0.76143200  0.16949600  0.74982500  1
  C  C51  1  0.73883500  0.80834900  0.75582000  1
  C  C52  1  0.24915000  0.17100300  0.73945300  1
  C  C53  1  0.76174800  0.30825100  0.75320400  1
  C  C54  1  0.24768900  0.67105300  0.76248100  1
  C  C55  1  0.25250400  0.30983700  0.73985500  1
  C  C56  1  0.73921900  0.66947700  0.75290800  1
  C  C57  1  0.74425200  0.82215600  0.24871000  1
  C  C58  1  0.25867500  0.18514700  0.24954600  1
  C  C59  1  0.24143200  0.82386000  0.25316400  1
  C  C60  1  0.75668500  0.18343500  0.25665900  1
  C  C61  1  0.25780300  0.32388000  0.25266700  1
  C  C62  1  0.74488600  0.68348300  0.24958700  1
  C  C63  1  0.75383000  0.32203400  0.25535600  1
  C  C64  1  0.24068900  0.68520700  0.24968600  1
  C  C65  1  0.24998700  0.76119200  0.76451100  1
  C  C66  1  0.76268300  0.21812300  0.75083000  1
  C  C67  1  0.73787700  0.75966900  0.75498100  1
  C  C68  1  0.25029500  0.21966400  0.73837500  1
  C  C69  1  0.76278200  0.25962100  0.75196500  1
  C  C70  1  0.24884800  0.71968400  0.76413000  1
  C  C71  1  0.25141100  0.26118200  0.73850500  1
  C  C72  1  0.73800900  0.71814300  0.75399100  1
  C  C73  1  0.74404000  0.77355500  0.24857000  1
  C  C74  1  0.25924200  0.23377300  0.25053500  1
  C  C75  1  0.24022300  0.77527300  0.25200100  1
  C  C76  1  0.75619100  0.23202200  0.25671100  1
  C  C77  1  0.25897300  0.27526300  0.25158900  1
  C  C78  1  0.74427400  0.73207700  0.24887800  1
  C  C79  1  0.75525700  0.27347900  0.25627700  1
  C  C80  1  0.23999800  0.73380200  0.25083500  1
  C  C81  1  0.38029700  0.01273000  0.66326800  1
  C  C82  1  0.62537100  0.02418200  0.65861100  1
  C  C83  1  0.87955000  0.51893200  0.66368700  1
  C  C84  1  0.11894700  0.46920500  0.66240900  1
  C  C85  1  0.88173000  0.97722100  0.16493600  1
  C  C86  1  0.12003100  0.02876100  0.16208700  1
  C  C87  1  0.37946400  0.52873500  0.16144800  1
  C  C88  1  0.61734300  0.47630200  0.16520200  1
  C  C89  1  0.34489500  0.98491300  0.66043000  1
  C  C90  1  0.65756700  0.99207300  0.65902000  1
  C  C91  1  0.84250200  0.49392100  0.65909800  1
  C  C92  1  0.15617000  0.49412100  0.65877300  1
  C  C93  1  0.84366800  0.00021200  0.15927600  1
  C  C94  1  0.15798000  0.00525200  0.15797900  1
  C  C95  1  0.34119600  0.50580300  0.15721600  1
  C  C96  1  0.65504900  0.50000300  0.15993900  1
  C  C97  1  0.34233300  0.95632400  0.62425000  1
  C  C98  1  0.65738200  0.95972500  0.62579500  1
  C  C99  1  0.83770800  0.46948000  0.62054600  1
  C  C100  1  0.16086900  0.52072000  0.62153300  1
  C  C101  1  0.83799100  0.02261300  0.11975100  1
  C  C102  1  0.16350200  0.97978900  0.12011900  1
  C  C103  1  0.33520600  0.48099000  0.11906200  1
  C  C104  1  0.66040200  0.52332400  0.12089200  1
  C  C105  1  0.37472800  0.95629100  0.59287200  1
  C  C106  1  0.62504700  0.95982300  0.59447100  1
  C  C107  1  0.86977400  0.47007500  0.58894500  1
  C  C108  1  0.12854300  0.52230100  0.59028100  1
  C  C109  1  0.87020900  0.02221800  0.08833200  1
  C  C110  1  0.13126600  0.97784500  0.08877300  1
  C  C111  1  0.36738200  0.47882300  0.08769400  1
  C  C112  1  0.62823100  0.52303600  0.08945600  1
  C  C113  1  0.40885200  0.98668200  0.59616300  1
  C  C114  1  0.59381200  0.99383000  0.59465600  1
  C  C115  1  0.90586400  0.49728600  0.59434000  1
  C  C116  1  0.09229200  0.49513600  0.59454300  1
  C  C117  1  0.90743700  0.99717700  0.09492400  1
  C  C118  1  0.09416700  0.00352000  0.09363400  1
  C  C119  1  0.40489800  0.50375000  0.09275100  1
  C  C120  1  0.59144400  0.49709300  0.09548800  1
  C  C121  1  0.40970100  0.01448100  0.63212000  1
  C  C122  1  0.59614800  0.02590800  0.62725700  1
  C  C123  1  0.90862200  0.52184600  0.63224200  1
  C  C124  1  0.08955100  0.46845800  0.63114600  1
  C  C125  1  0.91112300  0.97447900  0.13375900  1
  C  C126  1  0.09068200  0.02927500  0.13077300  1
  C  C127  1  0.40878800  0.52914100  0.13007600  1
  C  C128  1  0.58802300  0.47360900  0.13395400  1
  C  C129  1  0.43483900  0.05176800  0.65286900  1
  C  C130  1  0.57485000  0.06778400  0.64437100  1
  C  C131  1  0.93703900  0.55373100  0.65637900  1
  C  C132  1  0.06106400  0.43547800  0.65383700  1
  C  C133  1  0.94093500  0.94548300  0.15935800  1
  C  C134  1  0.06111600  0.06054100  0.15420200  1
  C  C135  1  0.43913400  0.55903500  0.15406500  1
  C  C136  1  0.55897600  0.44303700  0.15883300  1
  C  C137  1  0.40018700  0.05007100  0.68933400  1
  C  C138  1  0.60925600  0.06590500  0.68109100  1
  C  C139  1  0.90293800  0.55045200  0.69333900  1
  C  C140  1  0.09557700  0.43613000  0.69052800  1
  C  C141  1  0.90643700  0.94845400  0.19597000  1
  C  C142  1  0.09552600  0.06007300  0.19099600  1
  C  C143  1  0.40476600  0.55871500  0.19091000  1
  C  C144  1  0.59344600  0.44594700  0.19548900  1
  C  C145  1  0.15742700  0.02275300  0.87895700  1
  C  C146  1  0.84060000  0.01458800  0.88156100  1
  C  C147  1  0.66037600  0.51048800  0.88319100  1
  C  C148  1  0.34204100  0.46434400  0.88024600  1
  C  C149  1  0.66081600  0.98069600  0.38312800  1
  C  C150  1  0.34170600  0.02605000  0.38204000  1
  C  C151  1  0.15820800  0.52736000  0.38162400  1
  C  C152  1  0.84007800  0.52860900  0.38223100  1
  C  C153  1  0.15529300  0.99535100  0.84269900  1
  C  C154  1  0.84237600  0.98604800  0.84611600  1
  C  C155  1  0.65828800  0.48313300  0.84696500  1
  C  C156  1  0.34398700  0.49013300  0.84298500  1
  C  C157  1  0.65779300  0.00605200  0.34568900  1
  C  C158  1  0.34336100  0.00011300  0.34482800  1
  C  C159  1  0.15642000  0.50089600  0.34473700  1
  C  C160  1  0.84313000  0.50466000  0.34390500  1
  C  C161  1  0.11917600  0.96782400  0.83851300  1
  C  C162  1  0.87812100  0.95787500  0.84263900  1
  C  C163  1  0.62232500  0.45527300  0.84291700  1
  C  C164  1  0.37956000  0.51838600  0.83804200  1
  C  C165  1  0.62094200  0.03233100  0.34047300  1
  C  C166  1  0.37889400  0.97188500  0.33972700  1
  C  C167  1  0.12066100  0.47295700  0.33990000  1
  C  C168  1  0.88031100  0.47935500  0.33743900  1
  C  C169  1  0.08780800  0.96753000  0.87088000  1
  C  C170  1  0.90979200  0.95856500  0.87471100  1
  C  C171  1  0.59054300  0.45547500  0.87496000  1
  C  C172  1  0.41092400  0.52047700  0.87037200  1
  C  C173  1  0.58920500  0.03259500  0.37255700  1
  C  C174  1  0.41036600  0.96977500  0.37193500  1
  C  C175  1  0.08912800  0.47160000  0.37206500  1
  C  C176  1  0.91188900  0.47772000  0.36951500  1
  C  C177  1  0.09108200  0.99651800  0.90662900  1
  C  C178  1  0.90717800  0.98922800  0.90926700  1
  C  C179  1  0.59336100  0.48532200  0.91013000  1
  C  C180  1  0.40806400  0.49265400  0.90696200  1
  C  C181  1  0.59312200  0.00486000  0.40910700  1
  C  C182  1  0.40782600  0.99769000  0.40850900  1
  C  C183  1  0.09178000  0.50006000  0.40824700  1
  C  C184  1  0.90773400  0.50334000  0.40737100  1
  C  C185  1  0.12651000  0.02422400  0.90854400  1
  C  C186  1  0.87178200  0.01699200  0.91075000  1
  C  C187  1  0.62915400  0.51244500  0.91233700  1
  C  C188  1  0.37292000  0.46461200  0.90985200  1
  C  C189  1  0.62974700  0.97920800  0.41245700  1
  C  C190  1  0.37277100  0.02587500  0.41150600  1
  C  C191  1  0.12706600  0.52794200  0.41101000  1
  C  C192  1  0.87117200  0.52899200  0.41167400  1
  C  C193  1  0.14854800  0.05842200  0.93644900  1
  C  C194  1  0.85087500  0.05354800  0.93683700  1
  C  C195  1  0.64990500  0.54876600  0.93884200  1
  C  C196  1  0.35186200  0.43033000  0.93845000  1
  C  C197  1  0.65178000  0.94536600  0.44076100  1
  C  C198  1  0.35196000  0.06045200  0.43997100  1
  C  C199  1  0.14815900  0.56265200  0.43912100  1
  C  C200  1  0.84793100  0.55941200  0.44234700  1
  C  C201  1  0.18477000  0.05703200  0.90143100  1
  C  C202  1  0.81434600  0.05105500  0.90221200  1
  C  C203  1  0.68653200  0.54674800  0.90430500  1
  C  C204  1  0.31562400  0.42976600  0.90344300  1
  C  C205  1  0.68827500  0.94685300  0.40605300  1
  C  C206  1  0.31555000  0.06092500  0.40513100  1
  C  C207  1  0.18463600  0.56226500  0.40434800  1
  C  C208  1  0.81148600  0.55932500  0.40753300  1
  C  C209  1  0.94045000  0.99147400  0.94251500  1
  C  C210  1  0.05890300  0.99615400  0.94106200  1
  C  C211  1  0.44092800  0.49285400  0.94070500  1
  C  C212  1  0.55940300  0.48902700  0.94259100  1
  C  C213  1  0.44081000  0.99664300  0.44218700  1
  C  C214  1  0.55936700  0.00141800  0.44175500  1
  C  C215  1  0.94020600  0.50139200  0.44143800  1
  C  C216  1  0.05881700  0.49942300  0.44193700  1
  C  C217  1  0.44155000  0.99034100  0.56237500  1
  C  C218  1  0.56009500  0.99511200  0.56175500  1
  C  C219  1  0.93963400  0.49856800  0.56156900  1
  C  C220  1  0.05823700  0.49673200  0.56213700  1
  C  C221  1  0.94157400  0.99725500  0.06256700  1
  C  C222  1  0.06012500  0.00181100  0.06118400  1
  C  C223  1  0.43930900  0.50033000  0.06083200  1
  C  C224  1  0.55771900  0.49660000  0.06268700  1
  I  I1  1  0.42548100  0.02760200  0.75021200  1
  I  I2  1  0.65332900  0.12189200  0.67887900  1
  I  I3  1  0.58211700  0.05232400  0.74347300  1
  I  I4  1  0.36221000  0.11095000  0.69204200  1
  I  I5  1  0.92745000  0.51737200  0.75011100  1
  I  I6  1  0.07206800  0.46584700  0.74934500  1
  I  I7  1  0.12831300  0.37219300  0.69799900  1
  I  I8  1  0.86961300  0.61339900  0.70470500  1
  I  I9  1  0.87625000  0.88422600  0.20966600  1
  I  I10  1  0.12630400  0.12485000  0.20037300  1
  I  I11  1  0.07275900  0.02770500  0.24886100  1
  I  I12  1  0.92878400  0.98536900  0.25153600  1
  I  I13  1  0.42692000  0.52447700  0.24806300  1
  I  I14  1  0.57047800  0.48063000  0.25204700  1
  I  I15  1  0.62537100  0.38230300  0.20742800  1
  I  I16  1  0.37555000  0.62407600  0.20166500  1
  O  O1  1  0.32109200  0.99186400  0.73391700  1
  O  O2  1  0.67951700  0.99574800  0.73319200  1
  O  O3  1  0.82081700  0.49601900  0.73358400  1
  O  O4  1  0.17914900  0.48760500  0.73266500  1
  O  O5  1  0.82140400  0.99766000  0.23362600  1
  O  O6  1  0.18001400  0.00987300  0.23234600  1
  O  O7  1  0.31948900  0.50997300  0.23174000  1
  O  O8  1  0.67785600  0.50126700  0.23416100  1
  O  O9  1  0.27094700  0.98284600  0.67933200  1
  O  O10  1  0.73076600  0.98642700  0.67967300  1
  O  O11  1  0.76935900  0.48790400  0.68015800  1
  O  O12  1  0.22973900  0.49663100  0.67850900  1
  O  O13  1  0.77031100  0.00526400  0.17978700  1
  O  O14  1  0.23129400  0.00215500  0.17867900  1
  O  O15  1  0.26800200  0.50240000  0.17827300  1
  O  O16  1  0.72863900  0.50051800  0.17953900  1
  O  O17  1  0.27493400  0.92521200  0.78422200  1
  O  O18  1  0.72888400  0.06079300  0.77876900  1
  O  O19  1  0.72072300  0.92383200  0.78136600  1
  O  O20  1  0.27418900  0.06214000  0.77505800  1
  O  O21  1  0.77981900  0.42310600  0.78049000  1
  O  O22  1  0.22394300  0.55571000  0.78247300  1
  O  O23  1  0.22671000  0.41869600  0.77508300  1
  O  O24  1  0.77151600  0.56008400  0.78049300  1
  O  O25  1  0.77314400  0.93168400  0.27927900  1
  O  O26  1  0.22836600  0.07561200  0.27826200  1
  O  O27  1  0.22256300  0.93851500  0.27991500  1
  O  O28  1  0.77839800  0.06880300  0.28118000  1
  O  O29  1  0.27700700  0.43855700  0.27933000  1
  O  O30  1  0.72174800  0.57138300  0.27936300  1
  O  O31  1  0.72640500  0.43424300  0.28090900  1
  O  O32  1  0.27135300  0.57566600  0.27790500  1
  O  O33  1  0.22606200  0.91870400  0.72815500  1
  O  O34  1  0.77907600  0.05414400  0.72391800  1
  O  O35  1  0.77087400  0.91718700  0.72650200  1
  O  O36  1  0.22529400  0.05563300  0.71902400  1
  O  O37  1  0.72946000  0.41756100  0.72569700  1
  O  O38  1  0.27328200  0.56226200  0.72681500  1
  O  O39  1  0.27610400  0.42523900  0.71952900  1
  O  O40  1  0.72104800  0.55453300  0.72584400  1
  O  O41  1  0.72312000  0.93681500  0.22413900  1
  O  O42  1  0.27857400  0.07040100  0.22332500  1
  O  O43  1  0.27266600  0.93329800  0.22482300  1
  O  O44  1  0.72849400  0.07392400  0.22589900  1
  O  O45  1  0.22670000  0.43347900  0.22445000  1
  O  O46  1  0.77202700  0.57120700  0.22419300  1
  O  O47  1  0.77520700  0.43401400  0.22434800  1
  O  O48  1  0.22090800  0.57059200  0.22316400  1
  O  O49  1  0.22928900  0.99801600  0.82393200  1
  O  O50  1  0.76902400  0.99160300  0.82564700  1
  O  O51  1  0.73152700  0.48980800  0.82616800  1
  O  O52  1  0.27031800  0.48433700  0.82349100  1
  O  O53  1  0.73125800  0.00026300  0.32550200  1
  O  O54  1  0.26985100  0.00678200  0.32455800  1
  O  O55  1  0.22993800  0.50684800  0.32424300  1
  O  O56  1  0.76906900  0.50609800  0.32488500  1
  O  O57  1  0.17912000  0.98894500  0.76930700  1
  O  O58  1  0.82028300  0.98223800  0.77209500  1
  O  O59  1  0.68006000  0.48147800  0.77268900  1
  O  O60  1  0.32089700  0.49350100  0.76927100  1
  O  O61  1  0.68014300  0.00809000  0.27159500  1
  O  O62  1  0.32109900  0.99884000  0.27081400  1
  O  O63  1  0.17848300  0.49903400  0.27068700  1
  O  O64  1  0.81983000  0.50290400  0.27026000  1
  O  O65  1  0.95666400  0.95265100  0.95673500  1
  O  O66  1  0.04457500  0.03563600  0.95592500  1
  O  O67  1  0.04534900  0.95613900  0.95510700  1
  O  O68  1  0.95273700  0.03212600  0.95645100  1
  O  O69  1  0.45165500  0.45338900  0.95824700  1
  O  O70  1  0.54822900  0.53034100  0.95541100  1
  O  O71  1  0.54202400  0.45113700  0.95783400  1
  O  O72  1  0.45791700  0.53237600  0.95221700  1
  O  O73  1  0.45777700  0.95674200  0.45230600  1
  O  O74  1  0.54398500  0.03935700  0.45898600  1
  O  O75  1  0.54668600  0.96014000  0.45305300  1
  O  O76  1  0.45225200  0.03561800  0.46044400  1
  O  O77  1  0.95463800  0.46081500  0.45287700  1
  O  O78  1  0.04581600  0.53875400  0.45839900  1
  O  O79  1  0.04340400  0.45936500  0.45384700  1
  O  O80  1  0.95391200  0.54008700  0.45856800  1
  O  O81  1  0.45604600  0.95251200  0.54420200  1
  O  O82  1  0.54384900  0.03516700  0.55092600  1
  O  O83  1  0.54776600  0.95603100  0.54436900  1
  O  O84  1  0.45513100  0.03155600  0.55194600  1
  O  O85  1  0.95194600  0.45940500  0.54438700  1
  O  O86  1  0.04466800  0.53733400  0.54983100  1
  O  O87  1  0.04368900  0.45793600  0.54588900  1
  O  O88  1  0.95579100  0.53861700  0.55052400  1
  O  O89  1  0.95679300  0.95774500  0.04864300  1
  O  O90  1  0.04316900  0.04064700  0.04779000  1
  O  O91  1  0.04850200  0.96128400  0.04651100  1
  O  O92  1  0.95434000  0.03721200  0.04774500  1
  O  O93  1  0.45047900  0.45904100  0.04802100  1
  O  O94  1  0.54696100  0.53602300  0.04516600  1
  O  O95  1  0.54075000  0.45702100  0.05121700  1
  O  O96  1  0.45664300  0.53827400  0.04560000  1
