# generated using pymatgen
data_Fe2H25C56ClO16
_symmetry_space_group_name_H-M   'P 1'
_cell_length_a   15.81854700
_cell_length_b   20.45358300
_cell_length_c   13.20702400
_cell_angle_alpha   91.34067800
_cell_angle_beta   88.19392400
_cell_angle_gamma   68.20169800
_symmetry_Int_Tables_number   1
_chemical_formula_structural   Fe2H25C56ClO16
_chemical_formula_sum   'Fe2 H25 C56 Cl1 O16'
_cell_volume   3962.73216573
_cell_formula_units_Z   1
loop_
 _symmetry_equiv_pos_site_id
 _symmetry_equiv_pos_as_xyz
  1  'x, y, z'
loop_
 _atom_site_type_symbol
 _atom_site_label
 _atom_site_symmetry_multiplicity
 _atom_site_fract_x
 _atom_site_fract_y
 _atom_site_fract_z
 _atom_site_occupancy
  Fe  Fe1  1  0.49502000  0.99756700  0.22876500  1
  Fe  Fe2  1  0.49071800  0.99783600  0.78069400  1
  H  H1  1  0.15742200  0.02314800  0.84485700  1
  H  H2  1  0.22615000  0.99485700  0.20296800  1
  H  H3  1  0.02787400  0.03503200  0.80773300  1
  H  H4  1  0.88600700  0.03248300  0.76598000  1
  H  H5  1  0.08964200  0.98354400  0.24317100  1
  H  H6  1  0.94732600  0.98289200  0.20191800  1
  H  H7  1  0.75108900  0.01690500  0.80611800  1
  H  H8  1  0.81801200  0.99601300  0.16496900  1
  H  H9  1  0.45379700  0.08636700  0.49211100  1
  H  H10  1  0.26160800  0.25646900  0.34991500  1
  H  H11  1  0.28218300  0.26516700  0.67264200  1
  H  H12  1  0.04783700  0.59496900  0.43197400  1
  H  H13  1  0.91796500  0.70517100  0.42388600  1
  H  H14  1  0.74596900  0.61149300  0.56226600  1
  H  H15  1  0.87354300  0.49947700  0.56544900  1
  H  H16  1  0.74128700  0.74153400  0.33717200  1
  H  H17  1  0.54776600  0.91167600  0.51545500  1
  H  H18  1  0.11530500  0.48261700  0.36652400  1
  H  H19  1  0.24263100  0.37306600  0.37546500  1
  H  H20  1  0.12839500  0.32987100  0.65208600  1
  H  H21  1  0.00508200  0.44315100  0.64851400  1
  H  H22  1  0.63899600  0.72217300  0.74609300  1
  H  H23  1  0.86637400  0.66393700  0.93537900  1
  H  H24  1  0.95277000  0.70192700  0.80706800  1
  H  H25  1  0.88261300  0.75024900  0.64849000  1
  C  C1  1  0.27275100  0.01015500  0.05610000  1
  C  C2  1  0.25287300  0.01749000  0.95412200  1
  C  C3  1  0.16867000  0.01893600  0.92442500  1
  C  C4  1  0.21082400  0.00087200  0.12378800  1
  C  C5  1  0.12802400  0.00188100  0.09374000  1
  C  C6  1  0.10400700  0.01216100  0.99416600  1
  C  C7  1  0.01728000  0.01397000  0.96775800  1
  C  C8  1  0.98844700  0.02532800  0.86903200  1
  C  C9  1  0.90554000  0.02460800  0.84379200  1
  C  C10  1  0.06979800  0.99234700  0.16556900  1
  C  C11  1  0.98646900  0.99278100  0.14053500  1
  C  C12  1  0.95764300  0.00441000  0.04184800  1
  C  C13  1  0.87133400  0.00547000  0.01536200  1
  C  C14  1  0.84772400  0.01431800  0.91558800  1
  C  C15  1  0.76619500  0.01238400  0.88546400  1
  C  C16  1  0.80709200  0.99857300  0.08536600  1
  C  C17  1  0.72479200  0.99607700  0.05578000  1
  C  C18  1  0.70583500  0.00086400  0.95320000  1
  C  C19  1  0.65831800  0.99296000  0.13558600  1
  C  C20  1  0.60257200  0.87065800  0.32485100  1
  C  C21  1  0.35558700  0.01395100  0.09788700  1
  C  C22  1  0.38521800  0.12635600  0.31976200  1
  C  C23  1  0.61521700  0.87644300  0.68746400  1
  C  C24  1  0.62628300  0.99155600  0.91079200  1
  C  C25  1  0.40408200  0.12922300  0.68275400  1
  C  C26  1  0.32086700  0.01888500  0.87534800  1
  C  C27  1  0.36416600  0.17011700  0.41268200  1
  C  C28  1  0.29517900  0.23531900  0.41847100  1
  C  C29  1  0.26761900  0.27169900  0.51110100  1
  C  C30  1  0.30530400  0.23897400  0.59931900  1
  C  C31  1  0.37153600  0.17148800  0.59329500  1
  C  C32  1  0.40304500  0.13916200  0.49928700  1
  C  C33  1  0.98165500  0.59682400  0.45842900  1
  C  C34  1  0.90817300  0.65966200  0.45395700  1
  C  C35  1  0.82372200  0.66562900  0.49308600  1
  C  C36  1  0.81227100  0.60748800  0.53262400  1
  C  C37  1  0.88517500  0.54428400  0.53560900  1
  C  C38  1  0.97107600  0.53860200  0.50022900  1
  C  C39  1  0.71197400  0.76644300  0.40979900  1
  C  C40  1  0.63862400  0.83015900  0.41485400  1
  C  C41  1  0.60203800  0.86044100  0.50859300  1
  C  C42  1  0.64050400  0.83082400  0.59621900  1
  C  C43  1  0.71391000  0.76760600  0.59209700  1
  C  C44  1  0.74804800  0.73415100  0.49841600  1
  C  C45  1  0.11820200  0.45074700  0.43133300  1
  C  C46  1  0.19020100  0.38720300  0.43536600  1
  C  C47  1  0.19487800  0.34240300  0.51374500  1
  C  C48  1  0.12767500  0.36378900  0.59038800  1
  C  C49  1  0.05598600  0.42789000  0.58697500  1
  C  C50  1  0.04970900  0.47153600  0.50650500  1
  C  C51  1  0.75658600  0.73853800  0.68644100  1
  C  C52  1  0.70794500  0.71786900  0.75923500  1
  C  C53  1  0.74744500  0.69091600  0.84837400  1
  C  C54  1  0.83546100  0.68499900  0.86544400  1
  C  C55  1  0.88392400  0.70619500  0.79343900  1
  C  C56  1  0.84457900  0.73302000  0.70415300  1
  Cl  Cl1  1  0.68576600  0.66412200  0.93986800  1
  O  O1  1  0.57754100  0.99506200  0.11174600  1
  O  O2  1  0.64406700  0.85194500  0.23523900  1
  O  O3  1  0.67763500  0.99236000  0.23156700  1
  O  O4  1  0.53288300  0.93056200  0.33958700  1
  O  O5  1  0.39186500  0.97468500  0.17430600  1
  O  O6  1  0.38431900  0.06389100  0.07134000  1
  O  O7  1  0.47134800  0.09356400  0.29081700  1
  O  O8  1  0.32454900  0.10120100  0.29051400  1
  O  O9  1  0.53010000  0.89901000  0.72228600  1
  O  O10  1  0.66446600  0.91416800  0.70678100  1
  O  O11  1  0.58306800  0.03237400  0.83862300  1
  O  O12  1  0.60910700  0.93495000  0.93037600  1
  O  O13  1  0.29559900  0.03859600  0.78368500  1
  O  O14  1  0.44864200  0.06118700  0.66630000  1
  O  O15  1  0.40783900  0.99518600  0.89466400  1
  O  O16  1  0.38322100  0.15664000  0.77528900  1
