# Generated by REPEAT Assigner based on pymatgen
data_DB0-m3_o25_o153_f0_fsc.sym.4
_audit_creation_date              2022-05-24
_audit_creation_method            REPEAT_Assigner
_cell_length_a                    8.530271
_cell_length_b                    12.991009
_cell_length_c                    14.270174
_cell_angle_alpha                 90.601838
_cell_angle_beta                  93.322331
_cell_angle_gamma                 86.448233
_cell_volume                      1575.647277
_symmetry_space_group_name_H-M    P1
_symmetry_Int_Tables_number       1
loop_
    _symmetry_equiv_pos_site_id
    _symmetry_equiv_pos_as_xyz
    1  x,y,z
loop_
    _atom_site_type_symbol
    _atom_site_label
    _atom_site_fract_x
    _atom_site_fract_y
    _atom_site_fract_z
    _atom_type_partial_charge
    C   C1   0.016728  0.873380  0.001393  0.220384
    C   C2   0.884636  0.816524  0.006526  0.115177
    C   C3   0.735780  0.865371  0.002332  -0.225176
    C   C4   0.716832  0.970814  0.996033  -0.269247
    C   C5   0.845887  0.029049  0.994129  0.284458
    C   C6   0.996329  0.981276  0.996486  -0.054649
    C   C7   0.822527  0.135531  0.989811  -0.373827
    C   C8   0.949058  0.196038  0.985803  0.094151
    C   C9   0.099046  0.148750  0.989019  0.314930
    C   C10  0.122607  0.043340  0.996096  -0.349807
    C   C11  0.929690  0.302738  0.977062  -0.107579
    C   C12  0.059606  0.357742  0.965795  -0.192491
    C   C13  0.208306  0.310985  0.973830  0.021838
    C   C14  0.228620  0.206695  0.986808  -0.366049
    C   C15  0.164678  0.820150  0.999068  -0.344954
    C   C16  0.180025  0.714931  0.012726  -0.001875
    C   C17  0.049426  0.662249  0.026457  -0.146759
    C   C18  0.902126  0.710627  0.017168  -0.205156
    H   H1   0.631901  0.822377  0.005746  0.122926
    H   H2   0.599624  0.007785  0.993893  0.156101
    H   H3   0.044600  0.439706  0.955686  0.137509
    H   H4   0.346389  0.170737  0.993824  0.128362
    H   H5   0.242602  0.013079  0.001748  0.164827
    H   H6   0.704365  0.170949  0.987436  0.144714
    H   H7   0.270935  0.856652  0.986426  0.154895
    H   H8   0.062144  0.580430  0.037862  0.136387
    O   O1   0.397984  0.399386  0.064361  -0.688719
    O   O2   0.388208  0.413890  0.902906  -0.724413
    C   C19  0.342060  0.374859  0.980214  0.850245
    O   O3   0.374273  0.627080  0.922380  -0.732999
    O   O4   0.394038  0.612110  0.083728  -0.747298
    C   C20  0.329867  0.654269  0.006336  0.868625
    O   O5   0.713326  0.620084  0.926096  -0.748046
    O   O6   0.722765  0.605753  0.087377  -0.751227
    C   C21  0.768735  0.645421  0.010292  0.994916
    O   O7   0.736775  0.392103  0.067693  -0.757451
    O   O8   0.716706  0.406864  0.906583  -0.740258
    C   C22  0.779927  0.363742  0.983705  0.908769
    Zn  Zn1  0.546499  0.521130  0.890989  1.101892
    Zn  Zn2  0.564836  0.498229  0.099312  1.072804
    C   C23  0.686808  0.455503  0.474494  -0.192689
    C   C24  0.667989  0.557174  0.528380  -0.211384
    H   H9   0.765290  0.602980  0.557322  0.100468
    H   H10  0.799791  0.415277  0.456696  0.090059
    H   H11  0.527798  0.672568  0.424256  0.091641
    N   N1   0.538161  0.532694  0.768215  0.054966
    N   N2   0.573364  0.486523  0.222076  0.089151
    C   C25  0.563767  0.411461  0.532814  -0.335464
    C   C26  0.545355  0.512087  0.585643  0.914599
    C   C27  0.435086  0.449380  0.462259  -0.137555
    C   C28  0.556621  0.493869  0.404797  0.843058
    C   C29  0.415117  0.550489  0.515961  -0.243515
    C   C30  0.538048  0.595394  0.457333  -0.159602
    C   C31  0.540398  0.525561  0.687397  -0.369245
    C   C32  0.567517  0.488569  0.302887  -0.360572
    H   H12  0.301527  0.589921  0.533736  0.103694
    C   C33  0.299360  0.385997  0.434630  0.147516
    C   C34  0.208706  0.353384  0.504312  -0.165953
    C   C35  0.082413  0.294597  0.482291  -0.023896
    C   C36  0.045912  0.268153  0.390233  -0.120173
    C   C37  0.135872  0.300527  0.320328  -0.081407
    C   C38  0.262375  0.359280  0.342269  -0.214643
    H   H13  0.237011  0.373995  0.576638  0.098789
    H   H14  0.012024  0.269272  0.537261  0.068699
    H   H15  0.946872  0.222088  0.372860  0.091602
    H   H16  0.107251  0.279802  0.248068  0.132636
    H   H17  0.330531  0.383496  0.286269  0.126701
    C   C39  0.577700  0.302172  0.565478  0.316582
    C   C40  0.597849  0.224925  0.499332  -0.121243
    C   C41  0.611042  0.122886  0.525861  -0.112034
    C   C42  0.603946  0.097461  0.618908  -0.122675
    C   C43  0.583517  0.174171  0.685275  -0.044636
    C   C44  0.570335  0.276317  0.658835  -0.326126
    H   H18  0.603424  0.244580  0.426230  0.088907
    H   H19  0.626913  0.062837  0.473640  0.107908
    H   H20  0.614211  0.017475  0.639812  0.107839
    H   H21  0.577634  0.154244  0.758292  0.107320
    H   H22  0.553773  0.334475  0.712138  0.194744
