# generated using pymatgen
data_ZnH4C11N(ClO2)2
_symmetry_space_group_name_H-M   'P 1'
_cell_length_a   8.52791400
_cell_length_b   9.28522000
_cell_length_c   11.14215000
_cell_angle_alpha   90.00000000
_cell_angle_beta   106.93224900
_cell_angle_gamma   90.00000000
_symmetry_Int_Tables_number   1
_chemical_formula_structural   ZnH4C11N(ClO2)2
_chemical_formula_sum   'Zn2 H8 C22 N2 Cl4 O8'
_cell_volume   844.02828482
_cell_formula_units_Z   2
loop_
 _symmetry_equiv_pos_site_id
 _symmetry_equiv_pos_as_xyz
  1  'x, y, z'
loop_
 _atom_site_type_symbol
 _atom_site_label
 _atom_site_symmetry_multiplicity
 _atom_site_fract_x
 _atom_site_fract_y
 _atom_site_fract_z
 _atom_site_occupancy
  Zn  Zn1  1  0.00368800  0.83615800  0.49795100  1
  Zn  Zn2  1  0.99631200  0.16384300  0.50204900  1
  H  H1  1  0.28462200  0.90034100  0.97141800  1
  H  H2  1  0.71537700  0.09965900  0.02858100  1
  H  H3  1  0.94322200  0.96483500  0.11423300  1
  H  H4  1  0.05677700  0.03516500  0.88576700  1
  H  H5  1  0.46440700  0.06190700  0.40899200  1
  H  H6  1  0.53559300  0.93809300  0.59100800  1
  H  H7  1  0.57751500  0.89918600  0.08891800  1
  H  H8  1  0.42248400  0.10081400  0.91108200  1
  C  C1  1  0.42562200  0.02994600  0.31179200  1
  C  C2  1  0.57437800  0.97005400  0.68820800  1
  C  C3  1  0.26172100  0.01074000  0.25230600  1
  C  C4  1  0.73827900  0.98926000  0.74769400  1
  C  C5  1  0.20720900  0.97764500  0.12644700  1
  C  C6  1  0.79279100  0.02235500  0.87355300  1
  C  C7  1  0.32294300  0.93895100  0.06700400  1
  C  C8  1  0.67705700  0.06104900  0.93299600  1
  C  C9  1  0.48898100  0.93948100  0.13279300  1
  C  C10  1  0.51101900  0.06051900  0.86720700  1
  C  C11  1  0.54102200  0.99319500  0.25377400  1
  C  C12  1  0.45897800  0.00680500  0.74622600  1
  C  C13  1  0.02902600  0.98276700  0.06081300  1
  C  C14  1  0.97097400  0.01723300  0.93918700  1
  C  C15  1  0.15281400  0.00679800  0.33021500  1
  C  C16  1  0.84718600  0.99320200  0.66978400  1
  C  C17  1  0.28650400  0.00485100  0.66998100  1
  C  C18  1  0.71349600  0.99514900  0.33001900  1
  C  C19  1  0.04726700  0.57549100  0.60819000  1
  C  C20  1  0.95273300  0.42451000  0.39181000  1
  C  C21  1  0.96134600  0.57278000  0.39000900  1
  C  C22  1  0.03865400  0.42722000  0.60999100  1
  N  N1  1  0.99096500  0.35275400  0.50181000  1
  N  N2  1  0.00903500  0.64724600  0.49819000  1
  Cl  Cl1  1  0.10805900  0.66850600  0.75106700  1
  Cl  Cl2  1  0.89194100  0.33149400  0.24893300  1
  Cl  Cl3  1  0.90875000  0.66265700  0.24556500  1
  Cl  Cl4  1  0.09125000  0.33734300  0.75443500  1
  O  O1  1  0.11504400  0.12969200  0.37277700  1
  O  O2  1  0.88495600  0.87030800  0.62722300  1
  O  O3  1  0.88131700  0.12086500  0.63221600  1
  O  O4  1  0.11868300  0.87913500  0.36778400  1
  O  O5  1  0.22081900  0.88100900  0.62577200  1
  O  O6  1  0.77918100  0.11899100  0.37422800  1
  O  O7  1  0.78566000  0.87221500  0.36828000  1
  O  O8  1  0.21434000  0.12778500  0.63171900  1
