# generated using pymatgen
data_Fe2H18C61N2O23
_symmetry_space_group_name_H-M   'P 1'
_cell_length_a   20.52138500
_cell_length_b   14.62943900
_cell_length_c   10.98009400
_cell_angle_alpha   94.62088200
_cell_angle_beta   111.66230100
_cell_angle_gamma   109.69674100
_symmetry_Int_Tables_number   1
_chemical_formula_structural   Fe2H18C61N2O23
_chemical_formula_sum   'Fe2 H18 C61 N2 O23'
_cell_volume   2804.08617169
_cell_formula_units_Z   1
loop_
 _symmetry_equiv_pos_site_id
 _symmetry_equiv_pos_as_xyz
  1  'x, y, z'
loop_
 _atom_site_type_symbol
 _atom_site_label
 _atom_site_symmetry_multiplicity
 _atom_site_fract_x
 _atom_site_fract_y
 _atom_site_fract_z
 _atom_site_occupancy
  Fe  Fe1  1  0.48660900  0.98866800  0.25437300  1
  Fe  Fe2  1  0.50698700  0.01124800  0.73571700  1
  H  H1  1  0.81776300  0.79934200  0.80910600  1
  H  H2  1  0.17210400  0.20836200  0.17639500  1
  H  H3  1  0.07957400  0.21907300  0.25624500  1
  H  H4  1  0.26417100  0.98620900  0.04164000  1
  H  H5  1  0.11998600  0.96394000  0.63817800  1
  H  H6  1  0.73258900  0.02310400  0.95222500  1
  H  H7  1  0.76848700  0.02657500  0.42011300  1
  H  H8  1  0.86979800  0.02842600  0.35499800  1
  H  H9  1  0.59482700  0.35823100  0.85562800  1
  H  H10  1  0.61960900  0.51922600  0.96114400  1
  H  H11  1  0.43074100  0.21309900  0.18035500  1
  H  H12  1  0.40233900  0.32913300  0.05131700  1
  H  H13  1  0.57071300  0.79386300  0.81280500  1
  H  H14  1  0.39589700  0.48661700  0.03609900  1
  H  H15  1  0.41829800  0.65112100  0.13935900  1
  H  H16  1  0.59975400  0.63694900  0.04979300  1
  H  H17  1  0.91761400  0.78194800  0.60647900  1
  H  H18  1  0.23867700  0.91193700  0.48442400  1
  C  C1  1  0.93559200  0.08888500  0.16391600  1
  C  C2  1  0.84428200  0.93966600  0.00784800  1
  C  C3  1  0.89677600  0.93213300  0.96115500  1
  C  C4  1  0.96964400  0.00434300  0.01676600  1
  C  C5  1  0.98941900  0.08312700  0.11951700  1
  C  C6  1  0.87591800  0.85399200  0.85674000  1
  C  C7  1  0.92715100  0.84764600  0.80619800  1
  C  C8  1  0.00262500  0.91865200  0.86671500  1
  C  C9  1  0.02241500  0.99769300  0.97029400  1
  C  C10  1  0.09549100  0.07071700  0.02786300  1
  C  C11  1  0.11524200  0.15018700  0.13013300  1
  C  C12  1  0.06250900  0.15632000  0.17597200  1
  C  C13  1  0.05974700  0.91185900  0.83055100  1
  C  C14  1  0.14856800  0.06447100  0.98259000  1
  C  C15  1  0.25503800  0.98198900  0.93753200  1
  C  C16  1  0.31337900  0.98554900  0.90166300  1
  C  C17  1  0.30322300  0.98284300  0.76776800  1
  C  C18  1  0.23093900  0.96884600  0.67133300  1
  C  C19  1  0.17469900  0.97028400  0.71147000  1
  C  C20  1  0.18710700  0.97886200  0.84462500  1
  C  C21  1  0.74054500  0.02509400  0.05550800  1
  C  C22  1  0.68128200  0.02019500  0.08929500  1
  C  C23  1  0.69013200  0.01997600  0.22159000  1
  C  C24  1  0.75943300  0.02605000  0.31664900  1
  C  C25  1  0.81757200  0.02830900  0.28055600  1
  C  C26  1  0.80768000  0.02589200  0.14902100  1
  C  C27  1  0.62865000  0.01328100  0.26436200  1
  C  C28  1  0.48861600  0.81347200  0.32822900  1
  C  C29  1  0.38519800  0.99750100  0.01193900  1
  C  C30  1  0.47066700  0.14416300  0.38231100  1
  C  C31  1  0.52940800  0.86063600  0.61119700  1
  C  C32  1  0.60926700  0.00660400  0.97856500  1
  C  C33  1  0.51384100  0.19237000  0.66936300  1
  C  C34  1  0.36748900  0.99680900  0.72889300  1
  C  C35  1  0.48661500  0.24424300  0.45123400  1
  C  C36  1  0.51412800  0.27053700  0.59084100  1
  C  C37  1  0.53402000  0.36899200  0.65307400  1
  C  C38  1  0.57263600  0.40270600  0.79164100  1
  C  C39  1  0.58800200  0.49749400  0.85323300  1
  C  C40  1  0.44270500  0.28549000  0.23529100  1
  C  C41  1  0.47241300  0.31236000  0.37491000  1
  C  C42  1  0.48710300  0.40765900  0.43750100  1
  C  C43  1  0.42634300  0.35172000  0.15998500  1
  C  C44  1  0.44043700  0.44585400  0.22224000  1
  C  C45  1  0.51850000  0.43633400  0.57639100  1
  C  C46  1  0.53406000  0.53253800  0.63852000  1
  C  C47  1  0.56595600  0.56194300  0.77801800  1
  C  C48  1  0.57801900  0.65654800  0.83992500  1
  C  C49  1  0.47157000  0.47480600  0.36084500  1
  C  C50  1  0.48703100  0.57075600  0.42216700  1
  C  C51  1  0.51790900  0.59927400  0.56109200  1
  C  C52  1  0.53202100  0.69430600  0.62257500  1
  C  C53  1  0.56124800  0.72164500  0.76177300  1
  C  C54  1  0.42240800  0.51042200  0.14483000  1
  C  C55  1  0.43716100  0.60541700  0.20493200  1
  C  C56  1  0.47202400  0.63790500  0.34428600  1
  C  C57  1  0.48960700  0.73535800  0.40613100  1
  C  C58  1  0.51662900  0.76153300  0.54520400  1
  C  C59  1  0.60585100  0.68974500  0.98711200  1
  C  C60  1  0.89648900  0.76935000  0.68317700  1
  C  C61  1  0.21000900  0.94689100  0.52547600  1
  N  N1  1  0.86401900  0.01787000  0.10704700  1
  N  N2  1  0.13033000  0.98537000  0.88645700  1
  O  O1  1  0.95388300  0.16686900  0.26136600  1
  O  O2  1  0.77339100  0.86780900  0.95568600  1
  O  O3  1  0.04758400  0.82973200  0.74679300  1
  O  O4  1  0.21875300  0.13789300  0.03390700  1
  O  O5  1  0.56325500  0.01145800  0.17926400  1
  O  O6  1  0.51512300  0.81641100  0.23597800  1
  O  O7  1  0.63839200  0.00630800  0.38777200  1
  O  O8  1  0.46891000  0.88594400  0.35876800  1
  O  O9  1  0.38395300  0.93954800  0.09738000  1
  O  O10  1  0.44767700  0.07622500  0.03977600  1
  O  O11  1  0.52725200  0.12183100  0.38040700  1
  O  O12  1  0.39980100  0.08082800  0.31069100  1
  O  O13  1  0.47109300  0.87775400  0.61396500  1
  O  O14  1  0.59919800  0.92765600  0.68102800  1
  O  O15  1  0.60902500  0.06604100  0.89515000  1
  O  O16  1  0.54830900  0.92491600  0.94778600  1
  O  O17  1  0.36637800  0.02791100  0.61968300  1
  O  O18  1  0.52263500  0.11230400  0.62832000  1
  O  O19  1  0.42850800  0.98448200  0.80719800  1
  O  O20  1  0.49561600  0.19673300  0.77179600  1
  O  O21  1  0.63314100  0.77848700  0.04038000  1
  O  O22  1  0.84200100  0.69211500  0.66056600  1
  O  O23  1  0.15585700  0.96079200  0.44756900  1
