# Generated by REPEAT Assigner based on pymatgen
data_DB0-m2_o25_o29_f0_nbo.sym.130
_audit_creation_date              2022-05-24
_audit_creation_method            REPEAT_Assigner
_cell_length_a                    44.967776
_cell_length_b                    44.977863
_cell_length_c                    35.553748
_cell_angle_alpha                 90.000000
_cell_angle_beta                  129.220357
_cell_angle_gamma                 90.000000
_cell_volume                      55709.635933
_symmetry_space_group_name_H-M    P1
_symmetry_Int_Tables_number       1
loop_
    _symmetry_equiv_pos_site_id
    _symmetry_equiv_pos_as_xyz
    1  x,y,z
loop_
    _atom_site_type_symbol
    _atom_site_label
    _atom_site_fract_x
    _atom_site_fract_y
    _atom_site_fract_z
    _atom_type_partial_charge
    O   O1    0.736045  0.701215  0.497813  -0.654199
    O   O2    0.263955  0.701215  0.502187  -0.654196
    O   O3    0.236045  0.201215  0.497813  -0.654205
    O   O4    0.763955  0.201215  0.502187  -0.654213
    O   O5    0.702161  0.737481  0.502617  -0.647328
    O   O6    0.297839  0.737481  0.497383  -0.647307
    O   O7    0.202161  0.237481  0.502617  -0.647327
    O   O8    0.797839  0.237481  0.497383  -0.647304
    C   C1    0.709367  0.709576  0.500276  0.931811
    C   C2    0.290633  0.709576  0.499724  0.931870
    C   C3    0.209367  0.209576  0.500276  0.931851
    C   C4    0.790633  0.209576  0.499724  0.931938
    O   O9    0.802048  0.731026  0.570363  -0.587574
    O   O10   0.197952  0.731026  0.429637  -0.587552
    O   O11   0.302048  0.231026  0.570363  -0.587580
    O   O12   0.697952  0.231026  0.429637  -0.587583
    O   O13   0.766228  0.767384  0.570830  -0.593346
    O   O14   0.233772  0.767384  0.429170  -0.593320
    O   O15   0.266228  0.267384  0.570830  -0.593339
    O   O16   0.733772  0.267384  0.429170  -0.593370
    C   C5    0.796446  0.750053  0.593320  0.662973
    C   C6    0.203554  0.750053  0.406680  0.662889
    C   C7    0.296446  0.250053  0.593320  0.662986
    C   C8    0.703554  0.250053  0.406680  0.662984
    Cu  Cu1   0.770398  0.728977  0.499778  1.017874
    Cu  Cu2   0.229602  0.728977  0.500222  1.017898
    Cu  Cu3   0.270398  0.228977  0.499778  1.017938
    Cu  Cu4   0.729602  0.228977  0.500222  1.017968
    Cu  Cu5   0.728727  0.770858  0.500264  1.019953
    Cu  Cu6   0.271273  0.770858  0.499736  1.019887
    Cu  Cu7   0.228727  0.270858  0.500264  1.019951
    Cu  Cu8   0.771273  0.270858  0.499736  1.019933
    O   O17   0.797111  0.762392  0.497795  -0.672091
    O   O18   0.202889  0.762392  0.502205  -0.672078
    O   O19   0.297111  0.262392  0.497795  -0.672110
    O   O20   0.702889  0.262392  0.502205  -0.672105
    O   O21   0.762935  0.798581  0.501858  -0.646651
    O   O22   0.237065  0.798581  0.498142  -0.646629
    O   O23   0.262935  0.298581  0.501858  -0.646650
    O   O24   0.737065  0.298581  0.498142  -0.646625
    O   O25   0.731472  0.731035  0.429203  -0.549603
    O   O26   0.268528  0.731035  0.570797  -0.549629
    O   O27   0.231472  0.231035  0.429203  -0.549624
    O   O28   0.768528  0.231035  0.570797  -0.549655
    O   O29   0.695335  0.767057  0.429707  -0.591412
    O   O30   0.304665  0.767057  0.570293  -0.591435
    O   O31   0.195335  0.267057  0.429707  -0.591407
    O   O32   0.804665  0.267057  0.570293  -0.591443
    C   C9    0.789786  0.790276  0.499775  0.865455
    C   C10   0.210214  0.790276  0.500224  0.865521
    C   C11   0.289786  0.290276  0.499775  0.865518
    C   C12   0.710214  0.290276  0.500224  0.865584
    C   C13   0.702790  0.749933  0.406717  0.600141
    C   C14   0.297210  0.749933  0.593283  0.600149
    C   C15   0.202790  0.249933  0.406717  0.600136
    C   C16   0.797210  0.249933  0.593283  0.600136
    C   C17   0.960739  0.750017  0.975146  0.075950
    C   C18   0.039261  0.750017  0.024853  0.075996
    C   C19   0.460739  0.250017  0.975146  0.075955
    C   C20   0.539261  0.250017  0.024853  0.076013
    C   C21   0.974315  0.751114  0.949484  0.037819
    C   C22   0.025685  0.751114  0.050516  0.037747
    C   C23   0.474315  0.251114  0.949484  0.037854
    C   C24   0.525685  0.251114  0.050516  0.037734
    C   C25   0.013538  0.752269  0.974156  0.025198
    C   C26   0.986462  0.752269  0.025844  0.025276
    C   C27   0.513538  0.252269  0.974156  0.025158
    C   C28   0.486462  0.252269  0.025844  0.025265
    C   C29   0.921499  0.746872  0.949323  -0.176058
    C   C30   0.078501  0.746872  0.050676  -0.176037
    C   C31   0.421499  0.246872  0.949323  -0.176071
    C   C32   0.578501  0.246872  0.050676  -0.176035
    C   C33   0.896002  0.746692  0.899511  -0.102261
    C   C34   0.103998  0.746692  0.100489  -0.102341
    C   C35   0.396002  0.246692  0.899511  -0.102251
    C   C36   0.603998  0.246692  0.100489  -0.102389
    C   C37   0.909417  0.748434  0.873450  -0.120361
    C   C38   0.090583  0.748434  0.126550  -0.120280
    C   C39   0.409417  0.248434  0.873450  -0.120392
    C   C40   0.590583  0.248434  0.126550  -0.120234
    C   C41   0.948575  0.751079  0.898896  0.093727
    C   C42   0.051425  0.751079  0.101104  0.093752
    C   C43   0.448575  0.251079  0.898896  0.093701
    C   C44   0.551425  0.251079  0.101104  0.093753
    C   C45   0.961956  0.753789  0.873286  -0.089636
    C   C46   0.038044  0.753789  0.126714  -0.089666
    C   C47   0.461956  0.253789  0.873286  -0.089640
    C   C48   0.538044  0.253789  0.126714  -0.089704
    C   C49   0.000591  0.756943  0.897719  -0.051692
    C   C50   0.999409  0.756943  0.102281  -0.051648
    C   C51   0.500591  0.256943  0.897719  -0.051688
    C   C52   0.499409  0.256943  0.102281  -0.051625
    C   C53   0.026096  0.756131  0.947380  -0.184376
    C   C54   0.973904  0.756131  0.052619  -0.184435
    C   C55   0.526096  0.256131  0.947380  -0.184352
    C   C56   0.473904  0.256131  0.052619  -0.184424
    C   C57   0.885059  0.746561  0.822831  0.475557
    C   C58   0.114941  0.746561  0.177169  0.475431
    C   C59   0.385059  0.246561  0.822831  0.475572
    C   C60   0.614941  0.246561  0.177169  0.475395
    N   N1    0.898955  0.750174  0.798908  -0.145995
    N   N2    0.101045  0.750174  0.201091  -0.145902
    N   N3    0.398955  0.250174  0.798908  -0.146021
    N   N4    0.601045  0.250174  0.201091  -0.145924
    C   C61   0.936715  0.754057  0.823231  0.425260
    C   C62   0.063285  0.754057  0.176769  0.425252
    C   C63   0.436715  0.254057  0.823231  0.425303
    C   C64   0.563285  0.254057  0.176769  0.425297
    H   H1    0.908809  0.744293  0.966497  0.162757
    H   H2    0.091191  0.744293  0.033502  0.162749
    H   H3    0.408809  0.244293  0.966497  0.162763
    H   H4    0.591191  0.244293  0.033502  0.162753
    O   O33   0.847773  0.739691  0.796957  -0.553303
    O   O34   0.152227  0.739691  0.203043  -0.553271
    O   O35   0.347773  0.239691  0.796957  -0.553306
    O   O36   0.652227  0.239691  0.203043  -0.553265
    O   O37   0.949776  0.758459  0.798548  -0.543739
    O   O38   0.050224  0.758459  0.201452  -0.543736
    O   O39   0.449776  0.258459  0.798548  -0.543757
    O   O40   0.550224  0.258459  0.201452  -0.543752
    H   H5    0.011759  0.759937  0.878566  0.153386
    H   H6    0.988241  0.759937  0.121434  0.153371
    H   H7    0.511759  0.259937  0.878566  0.153376
    H   H8    0.488241  0.259937  0.121434  0.153358
    H   H9    0.055574  0.759752  0.963359  0.142218
    H   H10   0.944426  0.759752  0.036641  0.142232
    H   H11   0.555574  0.259752  0.963359  0.142207
    H   H12   0.444426  0.259752  0.036641  0.142221
    C   C65   0.877323  0.729352  0.721976  -0.174761
    C   C66   0.122677  0.729352  0.278024  -0.174744
    C   C67   0.377323  0.229352  0.721976  -0.174791
    C   C68   0.622677  0.229352  0.278024  -0.174780
    H   H13   0.899924  0.712921  0.741425  0.169219
    H   H14   0.100076  0.712921  0.258575  0.169224
    H   H15   0.399924  0.212921  0.741425  0.169230
    H   H16   0.600076  0.212921  0.258575  0.169232
    C   C69   0.852470  0.729375  0.671916  -0.092548
    C   C70   0.147530  0.729375  0.328084  -0.092552
    C   C71   0.352470  0.229375  0.671916  -0.092520
    C   C72   0.647530  0.229375  0.328084  -0.092518
    H   H17   0.856305  0.712980  0.653095  0.123192
    H   H18   0.143695  0.712980  0.346905  0.123186
    H   H19   0.356305  0.212980  0.653095  0.123185
    H   H20   0.643695  0.212980  0.346905  0.123179
    C   C73   0.823027  0.749946  0.646530  -0.033719
    C   C74   0.176973  0.749946  0.353470  -0.033670
    C   C75   0.323027  0.249946  0.646530  -0.033731
    C   C76   0.676973  0.249946  0.353470  -0.033722
    C   C77   0.818845  0.770532  0.671768  -0.057609
    C   C78   0.181155  0.770532  0.328232  -0.057633
    C   C79   0.318845  0.270532  0.671768  -0.057619
    C   C80   0.681155  0.270532  0.328232  -0.057623
    H   H21   0.796267  0.786983  0.652872  0.126239
    H   H22   0.203733  0.786983  0.347128  0.126231
    H   H23   0.296267  0.286983  0.652872  0.126237
    H   H24   0.703733  0.286983  0.347128  0.126235
    C   C81   0.843861  0.770579  0.721774  -0.221527
    C   C82   0.156139  0.770579  0.278226  -0.221455
    C   C83   0.343861  0.270579  0.721774  -0.221493
    C   C84   0.656139  0.270579  0.278226  -0.221453
    H   H25   0.840582  0.787035  0.741081  0.138121
    H   H26   0.159418  0.787035  0.258919  0.138095
    H   H27   0.340582  0.287035  0.741081  0.138109
    H   H28   0.659418  0.287035  0.258919  0.138088
    C   C85   0.873160  0.749987  0.747105  0.280676
    C   C86   0.126840  0.749987  0.252895  0.280595
    C   C87   0.373160  0.249987  0.747105  0.280673
    C   C88   0.626840  0.249987  0.252895  0.280622
    C   C89   0.607280  0.608045  0.459814  -0.366440
    C   C90   0.392720  0.608045  0.540186  -0.366581
    C   C91   0.107280  0.108045  0.459814  -0.366403
    C   C92   0.892720  0.108045  0.540186  -0.366580
    C   C93   0.601662  0.641133  0.460631  0.012149
    C   C94   0.398338  0.641133  0.539368  0.012363
    C   C95   0.101662  0.141133  0.460631  0.012093
    C   C96   0.898338  0.141133  0.539368  0.012273
    H   H29   0.592606  0.593973  0.426892  0.131274
    H   H30   0.407394  0.593973  0.573108  0.131289
    H   H31   0.092606  0.093973  0.426892  0.131257
    H   H32   0.907394  0.093973  0.573108  0.131292
    H   H33   0.575094  0.647455  0.499396  0.146768
    H   H34   0.424907  0.647455  0.500604  0.146799
    H   H35   0.075094  0.147455  0.499396  0.146768
    H   H36   0.924907  0.147455  0.500604  0.146779
    C   C97   0.686738  0.687035  0.500096  -0.258406
    C   C98   0.313262  0.687035  0.499904  -0.258501
    C   C99   0.186738  0.187035  0.500096  -0.258435
    C   C100  0.813262  0.187035  0.499904  -0.258548
    C   C101  0.562803  0.562310  0.500003  -0.103661
    C   C102  0.437197  0.562310  0.499997  -0.103736
    C   C103  0.062803  0.062310  0.500003  -0.103849
    C   C104  0.937197  0.062310  0.499997  -0.103633
    C   C105  0.650503  0.612193  0.498756  -0.015774
    C   C106  0.349497  0.612193  0.501244  -0.015574
    C   C107  0.150503  0.112193  0.498756  -0.015713
    C   C108  0.849497  0.112193  0.501244  -0.015585
    C   C109  0.644200  0.645158  0.498962  0.534291
    C   C110  0.355800  0.645158  0.501038  0.534062
    C   C111  0.144200  0.145158  0.498962  0.534297
    C   C112  0.855800  0.145158  0.501038  0.534160
    C   C113  0.646906  0.608167  0.538244  -0.205448
    C   C114  0.353094  0.608167  0.461756  -0.205572
    C   C115  0.146906  0.108167  0.538244  -0.205499
    C   C116  0.853094  0.108167  0.461756  -0.205562
    C   C117  0.604144  0.604490  0.499376  0.848333
    C   C118  0.395856  0.604490  0.500624  0.848266
    C   C119  0.104144  0.104490  0.499376  0.848194
    C   C120  0.895856  0.104490  0.500624  0.848315
    C   C121  0.640905  0.641456  0.538423  -0.154746
    C   C122  0.359095  0.641456  0.461577  -0.154522
    C   C123  0.140905  0.141456  0.538423  -0.154699
    C   C124  0.859095  0.141456  0.461577  -0.154615
    C   C125  0.597677  0.637380  0.499557  -0.334994
    C   C126  0.402323  0.637380  0.500442  -0.335165
    C   C127  0.097677  0.137380  0.499557  -0.334979
    C   C128  0.902323  0.137380  0.500442  -0.335072
    C   C129  0.667593  0.668113  0.499699  -0.246421
    C   C130  0.332407  0.668113  0.500301  -0.246321
    C   C131  0.167593  0.168113  0.499699  -0.246413
    C   C132  0.832407  0.168113  0.500301  -0.246327
    C   C133  0.581521  0.581351  0.499774  -0.417535
    C   C134  0.418479  0.581351  0.500225  -0.417336
    C   C135  0.081521  0.081351  0.499774  -0.417299
    C   C136  0.918479  0.081351  0.500225  -0.417450
    H   H37   0.655412  0.655709  0.571128  0.109042
    H   H38   0.344588  0.655709  0.428871  0.108995
    H   H39   0.155412  0.155709  0.571128  0.109033
    H   H40   0.844588  0.155709  0.428871  0.109014
    H   H41   0.665308  0.593797  0.570764  0.073189
    H   H42   0.334692  0.593797  0.429236  0.073199
    H   H43   0.165308  0.093797  0.570764  0.073197
    H   H44   0.834692  0.093797  0.429236  0.073199
    H   H45   0.672952  0.602194  0.498582  0.029806
    H   H46   0.327048  0.602194  0.501417  0.029773
    H   H47   0.172952  0.102194  0.498582  0.029792
    H   H48   0.827048  0.102194  0.501417  0.029774
    C   C137  0.513061  0.779024  0.025489  0.052080
    C   C138  0.486939  0.779024  0.974511  0.052120
    C   C139  0.013061  0.279024  0.025489  0.052506
    C   C140  0.986939  0.279024  0.974511  0.051567
    C   C141  0.524168  0.752351  0.050515  0.026991
    C   C142  0.475832  0.752351  0.949485  0.026990
    C   C143  0.024168  0.252351  0.050515  0.026747
    C   C144  0.975832  0.252351  0.949485  0.027309
    C   C145  0.511046  0.725668  0.025248  0.054268
    C   C146  0.488954  0.725668  0.974751  0.054251
    C   C147  0.011046  0.225668  0.025248  0.054370
    C   C148  0.988954  0.225668  0.974751  0.054049
    C   C149  0.528044  0.805158  0.052354  -0.178508
    C   C150  0.471956  0.805158  0.947646  -0.178565
    C   C151  0.028044  0.305158  0.052354  -0.178714
    C   C152  0.971956  0.305158  0.947646  -0.178355
    C   C153  0.552235  0.805188  0.102152  -0.067304
    C   C154  0.447765  0.805188  0.897848  -0.067259
    C   C155  0.052235  0.305188  0.102152  -0.067306
    C   C156  0.947765  0.305188  0.897848  -0.067412
    C   C157  0.563650  0.778453  0.127359  -0.144501
    C   C158  0.436350  0.778453  0.872641  -0.144568
    C   C159  0.063650  0.278453  0.127359  -0.144595
    C   C160  0.936350  0.278453  0.872641  -0.144468
    C   C161  0.548665  0.752278  0.101119  0.107785
    C   C162  0.451335  0.752278  0.898881  0.107805
    C   C163  0.048665  0.252278  0.101119  0.107919
    C   C164  0.951335  0.252278  0.898881  0.107707
    C   C165  0.558419  0.725817  0.125988  -0.090072
    C   C166  0.441581  0.725817  0.874012  -0.090089
    C   C167  0.058419  0.225817  0.125988  -0.090115
    C   C168  0.941581  0.225817  0.874012  -0.090070
    C   C169  0.543160  0.699623  0.100789  -0.072411
    C   C170  0.456840  0.699623  0.899211  -0.072429
    C   C171  0.043160  0.199623  0.100789  -0.072507
    C   C172  0.956840  0.199623  0.899211  -0.072570
    C   C173  0.519807  0.699462  0.051161  -0.191508
    C   C174  0.480193  0.699462  0.948839  -0.191479
    C   C175  0.019807  0.199462  0.051161  -0.191509
    C   C176  0.980193  0.199462  0.948839  -0.191399
    C   C177  0.590552  0.777032  0.177945  0.431960
    C   C178  0.409448  0.777032  0.822055  0.432035
    C   C179  0.090552  0.277032  0.177945  0.431922
    C   C180  0.909448  0.277032  0.822055  0.431933
    N   N5    0.598750  0.750911  0.201136  -0.112537
    N   N6    0.401250  0.750911  0.798864  -0.112599
    N   N7    0.098750  0.250911  0.201136  -0.112525
    N   N8    0.901250  0.250911  0.798864  -0.112553
    C   C181  0.582752  0.725529  0.176053  0.425630
    C   C182  0.417248  0.725529  0.823947  0.425676
    C   C183  0.082752  0.225529  0.176053  0.425622
    C   C184  0.917248  0.225529  0.823947  0.425640
    H   H49   0.521602  0.826817  0.036353  0.161110
    H   H50   0.478398  0.826817  0.963647  0.161146
    H   H51   0.021602  0.326817  0.036353  0.161151
    H   H52   0.978398  0.326817  0.963647  0.161109
    O   O41   0.610413  0.801191  0.204479  -0.535688
    O   O42   0.389587  0.801191  0.795521  -0.535709
    O   O43   0.110413  0.301191  0.204479  -0.535713
    O   O44   0.889587  0.301191  0.795521  -0.535718
    O   O45   0.590460  0.699835  0.199972  -0.543361
    O   O46   0.409541  0.699835  0.800028  -0.543376
    O   O47   0.090460  0.199835  0.199972  -0.543389
    O   O48   0.909541  0.199835  0.800028  -0.543388
    H   H53   0.549323  0.678679  0.119294  0.157613
    H   H54   0.450677  0.678679  0.880706  0.157629
    H   H55   0.049323  0.178679  0.119294  0.157641
    H   H56   0.950677  0.178679  0.880706  0.157659
    H   H57   0.508077  0.678153  0.034375  0.151071
    H   H58   0.491923  0.678153  0.965625  0.151056
    H   H59   0.008077  0.178153  0.034375  0.151072
    H   H60   0.991923  0.178153  0.965625  0.151043
    C   C185  0.658058  0.733641  0.277620  -0.170575
    C   C186  0.341942  0.733641  0.722380  -0.170538
    C   C187  0.158058  0.233641  0.277620  -0.170553
    C   C188  0.841942  0.233641  0.722380  -0.170438
    H   H61   0.664647  0.721025  0.257829  0.175221
    H   H62   0.335353  0.721025  0.742171  0.175206
    H   H63   0.164647  0.221025  0.257829  0.175217
    H   H64   0.835353  0.221025  0.742171  0.175193
    C   C189  0.683364  0.733344  0.327677  -0.127323
    C   C190  0.316636  0.733344  0.672323  -0.127463
    C   C191  0.183364  0.233344  0.327677  -0.127431
    C   C192  0.816636  0.233344  0.672323  -0.127668
    H   H65   0.709291  0.720284  0.346169  0.129452
    H   H66   0.290709  0.720284  0.653831  0.129525
    H   H67   0.209291  0.220284  0.346169  0.129509
    H   H68   0.790709  0.220284  0.653831  0.129608
    C   C193  0.675756  0.749894  0.353510  0.015122
    C   C194  0.324244  0.749894  0.646490  0.015219
    C   C195  0.175756  0.249894  0.353510  0.015204
    C   C196  0.824244  0.249894  0.646490  0.015374
    C   C197  0.642474  0.766577  0.328720  -0.057948
    C   C198  0.357526  0.766577  0.671280  -0.058009
    C   C199  0.142474  0.266577  0.328720  -0.057999
    C   C200  0.857526  0.266577  0.671280  -0.058097
    H   H69   0.635717  0.779631  0.347947  0.126656
    H   H70   0.364283  0.779631  0.652053  0.126675
    H   H71   0.135717  0.279631  0.347947  0.126660
    H   H72   0.864283  0.279631  0.652053  0.126684
    C   C201  0.617116  0.766671  0.278716  -0.210075
    C   C202  0.382884  0.766671  0.721284  -0.210051
    C   C203  0.117116  0.266671  0.278716  -0.210023
    C   C204  0.882884  0.266671  0.721284  -0.209958
    H   H73   0.591025  0.779596  0.259765  0.131686
    H   H74   0.408975  0.779596  0.740234  0.131681
    H   H75   0.091025  0.279596  0.259765  0.131673
    H   H76   0.908975  0.279596  0.740234  0.131665
    C   C205  0.624828  0.750300  0.252935  0.248015
    C   C206  0.375172  0.750300  0.747065  0.248035
    C   C207  0.124828  0.250300  0.252935  0.247999
    C   C208  0.875172  0.250300  0.747065  0.247936
    C   C209  0.910897  0.871640  0.539163  -0.206550
    C   C210  0.089103  0.871640  0.460837  -0.206583
    C   C211  0.410897  0.371640  0.539163  -0.206621
    C   C212  0.589103  0.371640  0.460837  -0.206595
    C   C213  0.877570  0.877685  0.539073  -0.140496
    C   C214  0.122430  0.877685  0.460926  -0.140016
    C   C215  0.377570  0.377685  0.539073  -0.140373
    C   C216  0.622430  0.377685  0.460926  -0.140049
    H   H77   0.879368  0.879590  0.571554  0.063828
    H   H78   0.120632  0.879590  0.428446  0.063686
    H   H79   0.379368  0.379590  0.571554  0.063809
    H   H80   0.620632  0.379590  0.428446  0.063693
    H   H81   0.941547  0.869727  0.571721  0.090199
    H   H82   0.058453  0.869727  0.428279  0.090140
    H   H83   0.441547  0.369727  0.571721  0.090203
    H   H84   0.558453  0.369727  0.428279  0.090141
    H   H85   0.852099  0.923750  0.499862  0.112664
    H   H86   0.147901  0.923750  0.500138  0.112704
    H   H87   0.352099  0.423750  0.499862  0.112696
    H   H88   0.647901  0.423750  0.500138  0.112712
    C   C217  0.812338  0.812815  0.499758  -0.162712
    C   C218  0.187662  0.812815  0.500242  -0.162847
    C   C219  0.312338  0.312815  0.499758  -0.162778
    C   C220  0.687662  0.312815  0.500242  -0.162887
    C   C221  0.936995  0.936481  0.499969  -0.086538
    C   C222  0.063005  0.936481  0.500031  -0.086359
    C   C223  0.436995  0.436481  0.499969  -0.086536
    C   C224  0.563005  0.436481  0.500031  -0.086328
    C   C225  0.887340  0.848166  0.499935  -0.170157
    C   C226  0.112660  0.848166  0.500065  -0.170060
    C   C227  0.387340  0.348166  0.499935  -0.170026
    C   C228  0.612660  0.348166  0.500065  -0.170089
    C   C229  0.854428  0.854622  0.499846  0.737569
    C   C230  0.145572  0.854622  0.500154  0.737029
    C   C231  0.354428  0.354622  0.499846  0.737348
    C   C232  0.645572  0.354622  0.500154  0.737078
    C   C233  0.871769  0.871648  0.460742  -0.175414
    C   C234  0.128231  0.871648  0.539258  -0.175655
    C   C235  0.371769  0.371648  0.460742  -0.175579
    C   C236  0.628231  0.371648  0.539258  -0.175681
    C   C237  0.894912  0.894712  0.499969  0.841335
    C   C238  0.105088  0.894712  0.500031  0.841728
    C   C239  0.394912  0.394712  0.499969  0.841407
    C   C240  0.605088  0.394712  0.500031  0.841903
    C   C241  0.838444  0.877694  0.460652  -0.167637
    C   C242  0.161557  0.877694  0.539348  -0.167168
    C   C243  0.338444  0.377694  0.460652  -0.167330
    C   C244  0.661557  0.377694  0.539348  -0.167203
    C   C245  0.862000  0.901168  0.499880  -0.286071
    C   C246  0.138000  0.901168  0.500120  -0.286439
    C   C247  0.362000  0.401168  0.499880  -0.286235
    C   C248  0.638000  0.401168  0.500120  -0.286463
    C   C249  0.831330  0.831713  0.499784  -0.372834
    C   C250  0.168670  0.831713  0.500216  -0.372610
    C   C251  0.331330  0.331713  0.499784  -0.372743
    C   C252  0.668670  0.331713  0.500216  -0.372607
    C   C253  0.918008  0.917607  0.500001  -0.456324
    C   C254  0.081992  0.917607  0.499999  -0.456591
    C   C255  0.418008  0.417607  0.500001  -0.456322
    C   C256  0.581992  0.417607  0.499999  -0.456743
    H   H89   0.807793  0.879605  0.428093  0.086643
    H   H90   0.192207  0.879605  0.571907  0.086519
    H   H91   0.307793  0.379605  0.428093  0.086540
    H   H92   0.692207  0.379605  0.571907  0.086524
    H   H93   0.869972  0.869742  0.428262  0.064697
    H   H94   0.130028  0.869742  0.571738  0.064729
    H   H95   0.369972  0.369742  0.428262  0.064724
    H   H96   0.630028  0.369742  0.571738  0.064734
    H   H97   0.897241  0.825585  0.499952  0.068203
    H   H98   0.102759  0.825585  0.500047  0.068206
    H   H99   0.397241  0.325585  0.499952  0.068185
    H   H100  0.602759  0.325585  0.500047  0.068214
    O   O49   0.008831  0.967909  0.458362  -0.655252
    O   O50   0.991169  0.967909  0.541638  -0.655220
    O   O51   0.508831  0.467909  0.458362  -0.655234
    O   O52   0.491169  0.467909  0.541638  -0.655219
    O   O53   0.052583  0.969600  0.542066  -0.602280
    O   O54   0.947417  0.969600  0.457934  -0.602313
    O   O55   0.552583  0.469600  0.542066  -0.602309
    O   O56   0.447417  0.469600  0.457934  -0.602313
    C   C257  0.040463  0.958978  0.500157  0.783328
    C   C258  0.959537  0.958978  0.499842  0.783436
    C   C259  0.540463  0.458978  0.500157  0.783364
    C   C260  0.459537  0.458978  0.499842  0.783415
    O   O57   0.508817  0.530727  0.458355  -0.640639
    O   O58   0.491183  0.530727  0.541645  -0.640629
    O   O59   0.008817  0.030727  0.458355  -0.640629
    O   O60   0.991183  0.030727  0.541645  -0.640615
    O   O61   0.552558  0.529022  0.542062  -0.620077
    O   O62   0.447442  0.529022  0.457938  -0.620079
    O   O63   0.052558  0.029022  0.542062  -0.620030
    O   O64   0.947442  0.029022  0.457938  -0.620069
    C   C261  0.540417  0.539677  0.500157  0.804168
    C   C262  0.459583  0.539677  0.499843  0.804134
    C   C263  0.040417  0.039677  0.500157  0.804225
    C   C264  0.959583  0.039677  0.499843  0.804097
    Cu  Cu9   0.975751  0.999314  0.451624  1.087784
    Cu  Cu10  0.024249  0.999314  0.548376  1.087999
    Cu  Cu11  0.475751  0.499314  0.451624  1.087866
    Cu  Cu12  0.524249  0.499314  0.548376  1.087904
    C   C265  0.562299  0.834565  0.125303  0.804913
    O   O65   0.578699  0.852534  0.118392  -0.531923
    N   N9    0.548194  0.843682  0.149956  -0.821657
    H   H101  0.571623  0.849739  0.185312  0.403990
    H   H102  0.534477  0.825561  0.151473  0.292354
    C   C266  0.437701  0.834565  0.874697  0.804928
    O   O66   0.421301  0.852534  0.881608  -0.531938
    N   N10   0.451806  0.843682  0.850044  -0.821667
    H   H103  0.428377  0.849739  0.814688  0.404001
    H   H104  0.465523  0.825561  0.848527  0.292346
    C   C267  0.062299  0.334565  0.125303  0.804934
    O   O67   0.078699  0.352534  0.118392  -0.531926
    N   N11   0.048194  0.343682  0.149956  -0.821656
    H   H105  0.071623  0.349739  0.185312  0.403994
    H   H106  0.034477  0.325561  0.151473  0.292352
    C   C268  0.937701  0.334565  0.874697  0.804932
    O   O68   0.921301  0.352534  0.881608  -0.531934
    N   N12   0.951806  0.343682  0.850044  -0.821659
    H   H107  0.928377  0.349739  0.814688  0.404004
    H   H108  0.965523  0.325561  0.848527  0.292343
    C   C269  0.855207  0.746471  0.877243  0.804453
    O   O69   0.842238  0.725633  0.884748  -0.527554
    N   N13   0.832144  0.772323  0.852920  -0.816437
    H   H109  0.808359  0.766199  0.817814  0.406335
    H   H110  0.848331  0.787726  0.850670  0.276984
    C   C270  0.144793  0.746471  0.122757  0.804457
    O   O70   0.157762  0.725633  0.115251  -0.527538
    N   N14   0.167856  0.772323  0.147080  -0.816460
    H   H111  0.191641  0.766199  0.182186  0.406327
    H   H112  0.151669  0.787726  0.149330  0.277029
    C   C271  0.355207  0.246471  0.877243  0.804446
    O   O71   0.342238  0.225633  0.884748  -0.527551
    N   N15   0.332144  0.272323  0.852920  -0.816429
    H   H113  0.308359  0.266199  0.817814  0.406339
    H   H114  0.348331  0.287726  0.850670  0.276978
    C   C272  0.644793  0.246471  0.122757  0.804467
    O   O72   0.657762  0.225633  0.115251  -0.527537
    N   N16   0.667856  0.272323  0.147080  -0.816453
    H   H115  0.691641  0.266199  0.182186  0.406329
    H   H116  0.651669  0.287726  0.149330  0.277023
    C   C273  0.574766  0.659316  0.415915  0.690637
    O   O73   0.540441  0.654149  0.389628  -0.569789
    N   N17   0.588775  0.682539  0.403512  -0.762858
    H   H117  0.565066  0.692353  0.371582  0.340702
    H   H118  0.605419  0.672685  0.395823  0.300258
    C   C274  0.425234  0.659316  0.584085  0.690532
    O   O74   0.459559  0.654149  0.610372  -0.569759
    N   N18   0.411225  0.682539  0.596488  -0.762838
    H   H119  0.434934  0.692353  0.628417  0.340700
    H   H120  0.394581  0.672685  0.604176  0.300267
    C   C275  0.074766  0.159316  0.415915  0.690612
    O   O75   0.040441  0.154149  0.389628  -0.569763
    N   N19   0.088775  0.182539  0.403512  -0.762810
    H   H121  0.065066  0.192353  0.371582  0.340681
    H   H122  0.105419  0.172685  0.395823  0.300254
    C   C276  0.925234  0.159316  0.584085  0.690490
    O   O76   0.959559  0.154149  0.610372  -0.569727
    N   N20   0.911225  0.182539  0.596488  -0.762786
    H   H123  0.934934  0.192353  0.628417  0.340679
    H   H124  0.894581  0.172685  0.604176  0.300265
