# Generated by REPEAT Assigner based on pymatgen
data_DB0-m2_o14_o22_f0_pcu.sym.13_sqe
_audit_creation_date              2022-05-24
_audit_creation_method            REPEAT_Assigner
_cell_length_a                    10.610591
_cell_length_b                    10.821661
_cell_length_c                    9.411761
_cell_angle_alpha                 89.986480
_cell_angle_beta                  89.996119
_cell_angle_gamma                 90.007225
_cell_volume                      1080.698099
_symmetry_space_group_name_H-M    P1
_symmetry_Int_Tables_number       1
loop_
    _symmetry_equiv_pos_site_id
    _symmetry_equiv_pos_as_xyz
    1  x,y,z
loop_
    _atom_site_type_symbol
    _atom_site_label
    _atom_site_fract_x
    _atom_site_fract_y
    _atom_site_fract_z
    _atom_type_partial_charge
    O   O1   0.465914  0.321524  0.613528  -0.549789
    O   O2   0.526275  0.324430  0.375562  -0.598529
    C   C1   0.504470  0.265101  0.496985  0.718466
    O   O3   0.316482  0.528369  0.619920  -0.654662
    O   O4   0.314291  0.469958  0.381215  -0.571345
    C   C2   0.256538  0.497969  0.501272  0.494482
    Cu  Cu1  0.497411  0.497909  0.637208  0.989048
    Cu  Cu2  0.494223  0.501841  0.358170  0.925646
    O   O5   0.527594  0.674961  0.616597  -0.525083
    O   O6   0.460917  0.678077  0.384857  -0.592484
    O   O7   0.677123  0.466336  0.611223  -0.663300
    O   O8   0.674962  0.532013  0.378872  -0.591198
    C   C3   0.486627  0.735232  0.504967  0.669658
    C   C4   0.735467  0.497403  0.493981  0.459156
    C   C5   0.065684  0.420874  0.622964  -0.114464
    H   H1   0.107527  0.451582  0.724962  0.025539
    H   H2   0.088948  0.322111  0.605622  0.015944
    C   C6   0.924018  0.436539  0.630714  -0.040614
    H   H3   0.880621  0.344039  0.644707  0.011121
    H   H4   0.900808  0.495454  0.723522  -0.035790
    H   H5   0.085028  0.662678  0.623303  -0.085435
    H   H6   0.878113  0.686555  0.568491  0.043615
    C   C7   0.066196  0.628210  0.514381  0.558258
    C   C8   0.068151  0.440838  0.361976  0.047096
    C   C9   0.115693  0.497208  0.500363  0.181624
    H   H7   0.091875  0.501649  0.270915  0.009472
    H   H8   0.111112  0.348537  0.344966  -0.000794
    C   C10  0.876344  0.497083  0.494839  0.502687
    C   C11  0.925387  0.628639  0.487258  -0.407286
    C   C12  0.926447  0.425287  0.368786  -0.174507
    H   H9   0.902901  0.326026  0.381316  0.003138
    H   H10  0.884728  0.459877  0.268360  0.017755
    H   H11  0.906222  0.667633  0.380432  0.095316
    H   H12  0.481810  0.109998  0.277166  0.129510
    C   C13  0.566281  0.122633  0.752373  -0.265065
    H   H13  0.609928  0.212596  0.750462  0.150849
    C   C14  0.558860  0.064357  0.881779  -0.064104
    H   H14  0.589605  0.111360  0.977001  0.085763
    C   C15  0.507257  0.948633  0.890326  -0.104820
    H   H15  0.493969  0.905239  0.992672  0.107790
    C   C16  0.476295  0.886108  0.768133  -0.176754
    H   H16  0.431726  0.797489  0.781404  0.105758
    C   C17  0.495388  0.939483  0.635145  0.111960
    C   C18  0.523874  0.064653  0.629288  0.221576
    C   C19  0.511629  0.128759  0.501057  -0.209757
    C   C20  0.491173  0.062795  0.377806  -0.126069
    H   H17  0.472111  0.887008  0.281614  0.085132
    C   C21  0.482311  0.935725  0.381084  -0.036262
    C   C22  0.484018  0.872150  0.508741  -0.164976
    H   H18  0.360086  0.365330  0.127930  0.112251
    C   C23  0.640910  0.678091  0.138309  -0.119931
    H   H19  0.630724  0.701971  0.246795  0.138661
    C   C24  0.727646  0.748574  0.067594  -0.089338
    H   H20  0.780910  0.818390  0.123637  0.080516
    C   C25  0.748237  0.728291  0.927235  -0.008108
    H   H21  0.819167  0.780754  0.871002  0.081701
    C   C26  0.676591  0.642952  0.856655  -0.245946
    H   H22  0.701006  0.633203  0.748294  0.183140
    C   C27  0.582508  0.574278  0.924126  0.267021
    C   C28  0.571411  0.585470  0.070880  0.129261
    N   N1   0.493800  0.508466  0.144983  -0.148959
    C   C29  0.421932  0.427786  0.071665  -0.030246
    H   H23  0.359465  0.365144  0.868390  0.093465
    C   C30  0.422816  0.426441  0.924172  0.065596
    N   N2   0.504277  0.497366  0.850315  -0.220839
    O   O9   0.126139  0.705089  0.416534  -0.656304
    H   H24  0.156923  0.775614  0.473832  0.354786
