# Generated by REPEAT Assigner based on pymatgen
data_DB0-m2_o12_o24_f0_pcu.sym.21_sqe
_audit_creation_date              2022-05-24
_audit_creation_method            REPEAT_Assigner
_cell_length_a                    10.718657
_cell_length_b                    11.210579
_cell_length_c                    9.715162
_cell_angle_alpha                 111.888964
_cell_angle_beta                  99.760030
_cell_angle_gamma                 90.011263
_cell_volume                      1064.990019
_symmetry_space_group_name_H-M    P1
_symmetry_Int_Tables_number       1
loop_
    _symmetry_equiv_pos_site_id
    _symmetry_equiv_pos_as_xyz
    1  x,y,z
loop_
    _atom_site_type_symbol
    _atom_site_label
    _atom_site_fract_x
    _atom_site_fract_y
    _atom_site_fract_z
    _atom_type_partial_charge
    O   O1   0.505943  0.336921  0.582921  -0.553228
    O   O2   0.486787  0.663704  0.417586  -0.581223
    O   O3   0.472693  0.295573  0.328734  -0.532516
    O   O4   0.522233  0.705020  0.671203  -0.557663
    C   C1   0.490684  0.256824  0.442053  0.613721
    C   C2   0.510353  0.743857  0.558351  0.613072
    O   O5   0.336344  0.517767  0.622615  -0.593343
    O   O6   0.664829  0.475834  0.375796  -0.606767
    O   O7   0.301187  0.475333  0.368273  -0.569120
    O   O8   0.699888  0.516264  0.630004  -0.584634
    C   C3   0.260845  0.500424  0.495683  0.682467
    C   C4   0.740611  0.499302  0.504445  0.650451
    Cu  Cu1  0.522299  0.524946  0.648259  0.918001
    Cu  Cu2  0.479861  0.475987  0.352139  0.925307
    C   C5   0.065003  0.523078  0.635309  0.319366
    C   C6   0.935925  0.477101  0.364888  0.317911
    C   C7   0.969191  0.410033  0.546287  0.229104
    C   C8   0.031789  0.590173  0.453770  0.200903
    C   C9   0.878918  0.499649  0.504180  -0.074652
    C   C10  0.122253  0.500391  0.495966  -0.104733
    C   C11  0.974625  0.612710  0.592914  0.205926
    C   C12  0.026288  0.387418  0.407140  0.196030
    C   C13  0.486440  0.117297  0.407833  0.066027
    C   C14  0.514331  0.883141  0.591928  0.080299
    C   C15  0.502373  0.070304  0.517754  0.161932
    C   C16  0.499140  0.929961  0.481692  0.155958
    N   N1   0.450093  0.440554  0.130960  -0.067352
    N   N2   0.550418  0.559704  0.869329  -0.037106
    C   C17  0.512620  0.508916  0.081195  0.347146
    C   C18  0.485738  0.494261  0.920308  0.289200
    F   F1   0.936399  0.315427  0.595236  -0.230731
    F   F2   0.063377  0.684981  0.404469  -0.221782
    F   F3   0.132214  0.547551  0.778861  -0.251565
    F   F4   0.867892  0.452384  0.221696  -0.245999
    F   F5   0.947008  0.730973  0.691102  -0.214110
    F   F6   0.052657  0.268734  0.308744  -0.207397
    F   F7   0.480323  0.847937  0.335141  -0.115391
    F   F8   0.521054  0.152164  0.664346  -0.123731
    F   F9   0.533879  0.964276  0.739150  -0.124795
    F   F10  0.467214  0.036260  0.260658  -0.125566
    F   F11  0.388474  0.411655  0.824163  -0.060469
    F   F12  0.607952  0.593252  0.178685  -0.079034
    F   F13  0.652926  0.632236  0.962023  -0.058606
    F   F14  0.346770  0.368931  0.039696  -0.051307
