# generated using pymatgen
data_FeH11C29O8F
_symmetry_space_group_name_H-M   'P 1'
_cell_length_a   17.50517000
_cell_length_b   20.71767700
_cell_length_c   13.11921100
_cell_angle_alpha   85.73637300
_cell_angle_beta   81.87284700
_cell_angle_gamma   65.13239500
_symmetry_Int_Tables_number   1
_chemical_formula_structural   FeH11C29O8F
_chemical_formula_sum   'Fe2 H22 C58 O16 F2'
_cell_volume   4272.81273015
_cell_formula_units_Z   2
loop_
 _symmetry_equiv_pos_site_id
 _symmetry_equiv_pos_as_xyz
  1  'x, y, z'
loop_
 _atom_site_type_symbol
 _atom_site_label
 _atom_site_symmetry_multiplicity
 _atom_site_fract_x
 _atom_site_fract_y
 _atom_site_fract_z
 _atom_site_occupancy
  Fe  Fe1  1  0.49671500  0.00149300  0.22630000  1
  Fe  Fe2  1  0.49720200  0.99427100  0.77319000  1
  H  H1  1  0.24798300  0.00621800  0.23517800  1
  H  H2  1  0.11762100  0.00263900  0.29503200  1
  H  H3  1  0.24607700  0.98220700  0.79375200  1
  H  H4  1  0.98965600  0.99886700  0.26689800  1
  H  H5  1  0.12397600  0.97625000  0.76091200  1
  H  H6  1  0.86708200  0.03129400  0.23421500  1
  H  H7  1  0.00561500  0.99336200  0.73021900  1
  H  H8  1  0.74411000  0.02545000  0.20275300  1
  H  H9  1  0.87827600  0.98845300  0.70392700  1
  H  H10  1  0.74715000  0.98655100  0.76495800  1
  H  H11  1  0.45349700  0.09317200  0.48668500  1
  H  H12  1  0.25420300  0.25538600  0.35162500  1
  H  H13  1  0.28109900  0.27093900  0.66808800  1
  H  H14  1  0.00793600  0.59463800  0.59490000  1
  H  H15  1  0.88276600  0.70510700  0.58399100  1
  H  H16  1  0.92288700  0.49915500  0.38549000  1
  H  H17  1  0.73548600  0.73776500  0.32535500  1
  H  H18  1  0.54034000  0.89936600  0.51432700  1
  H  H19  1  0.74382700  0.74120600  0.64994300  1
  H  H20  1  0.22741300  0.37224500  0.35275000  1
  H  H21  1  0.13705800  0.33882200  0.66450400  1
  H  H22  1  0.01430100  0.45250200  0.65605000  1
  C  C1  1  0.23708500  0.00587500  0.15621000  1
  C  C2  1  0.10468800  0.00360000  0.21664000  1
  C  C3  1  0.29558600  0.01045000  0.07775400  1
  C  C4  1  0.28102100  0.01129600  0.97584300  1
  C  C5  1  0.16270800  0.00513100  0.13586800  1
  C  C6  1  0.14744700  0.00390100  0.03619700  1
  C  C7  1  0.20831500  0.00385400  0.95607400  1
  C  C8  1  0.19733700  0.99193200  0.85811000  1
  C  C9  1  0.02980500  0.00293500  0.19907100  1
  C  C10  1  0.01108600  0.00386400  0.09911700  1
  C  C11  1  0.07221000  0.00131800  0.01740700  1
  C  C12  1  0.05892000  0.99547700  0.91739300  1
  C  C13  1  0.12455800  0.98769900  0.83916900  1
  C  C14  1  0.86720700  0.01619300  0.15756200  1
  C  C15  1  0.93403900  0.00471000  0.07983300  1
  C  C16  1  0.92118600  0.99758300  0.98025000  1
  C  C17  1  0.98261200  0.99426300  0.89836200  1
  C  C18  1  0.96480200  0.99197000  0.79877100  1
  C  C19  1  0.79409200  0.01232200  0.13938200  1
  C  C20  1  0.78445000  0.99660800  0.04280500  1
  C  C21  1  0.84604000  0.99445300  0.96231200  1
  C  C22  1  0.83159400  0.99054100  0.86317100  1
  C  C23  1  0.71218700  0.98786500  0.02439800  1
  C  C24  1  0.69839500  0.98596500  0.92267100  1
  C  C25  1  0.89031700  0.99007900  0.78205700  1
  C  C26  1  0.75745300  0.98890900  0.84363600  1
  C  C27  1  0.65052200  0.98218800  0.11046300  1
  C  C28  1  0.59393800  0.86381000  0.31978000  1
  C  C29  1  0.37015100  0.01594600  0.10783500  1
  C  C30  1  0.38281500  0.12857400  0.32063100  1
  C  C31  1  0.61144100  0.86543000  0.68225300  1
  C  C32  1  0.62391000  0.97988400  0.89306200  1
  C  C33  1  0.40693800  0.13467500  0.67923500  1
  C  C34  1  0.34300700  0.01767300  0.89098600  1
  C  C35  1  0.35865700  0.17297600  0.41067800  1
  C  C36  1  0.28867100  0.23660500  0.41766700  1
  C  C37  1  0.26294700  0.27492200  0.50790000  1
  C  C38  1  0.30295500  0.24402700  0.59527500  1
  C  C39  1  0.37072500  0.17734200  0.58896600  1
  C  C40  1  0.40073400  0.14476000  0.49467800  1
  C  C41  1  0.96092500  0.59769700  0.54720400  1
  C  C42  1  0.88941800  0.66008700  0.54117400  1
  C  C43  1  0.82748500  0.66477100  0.48204800  1
  C  C44  1  0.84061700  0.60651000  0.42499400  1
  C  C45  1  0.91375900  0.54473000  0.42889800  1
  C  C46  1  0.97315100  0.53975200  0.49157600  1
  C  C47  1  0.70636900  0.75957900  0.40052700  1
  C  C48  1  0.63172600  0.82133300  0.40941900  1
  C  C49  1  0.59692800  0.85033600  0.50547500  1
  C  C50  1  0.63864700  0.82241600  0.59016100  1
  C  C51  1  0.71306400  0.76219600  0.58153100  1
  C  C52  1  0.74680300  0.72910100  0.48751500  1
  C  C53  1  0.10928800  0.45040600  0.41419300  1
  C  C54  1  0.18043400  0.38774500  0.41971000  1
  C  C55  1  0.19119100  0.34582700  0.50865200  1
  C  C56  1  0.13150000  0.37031900  0.59429400  1
  C  C57  1  0.06134400  0.43440100  0.58941200  1
  C  C58  1  0.04908500  0.47360700  0.49857100  1
  O  O1  1  0.56973700  0.00696900  0.09927900  1
  O  O2  1  0.62068100  0.83987100  0.22565800  1
  O  O3  1  0.67620000  0.95026500  0.19726300  1
  O  O4  1  0.53974700  0.93021700  0.33726100  1
  O  O5  1  0.40744800  0.97563400  0.18419900  1
  O  O6  1  0.39148000  0.06742000  0.07027800  1
  O  O7  1  0.46385500  0.09703700  0.28672900  1
  O  O8  1  0.33030600  0.10301800  0.29854600  1
  O  O9  1  0.52972900  0.89929600  0.71085400  1
  O  O10  1  0.66467600  0.88713300  0.71276500  1
  O  O11  1  0.58679400  0.01950500  0.81603600  1
  O  O12  1  0.60291400  0.92836400  0.93132100  1
  O  O13  1  0.31716200  0.05464700  0.80735400  1
  O  O14  1  0.45393700  0.06648800  0.66341300  1
  O  O15  1  0.42445100  0.98780500  0.90002600  1
  O  O16  1  0.38498700  0.16067000  0.77238700  1
  F  F1  1  0.78031400  0.60758600  0.36964200  1
  F  F2  1  0.09951600  0.48975800  0.32580800  1
