# generated using pymatgen
data_ZnH9C17NClO4
_symmetry_space_group_name_H-M   'P 1'
_cell_length_a   17.83541000
_cell_length_b   16.59165400
_cell_length_c   11.14045800
_cell_angle_alpha   90.00000000
_cell_angle_beta   90.00158400
_cell_angle_gamma   90.00000000
_symmetry_Int_Tables_number   1
_chemical_formula_structural   ZnH9C17NClO4
_chemical_formula_sum   'Zn2 H18 C34 N2 Cl2 O8'
_cell_volume   3296.67265120
_cell_formula_units_Z   2
loop_
 _symmetry_equiv_pos_site_id
 _symmetry_equiv_pos_as_xyz
  1  'x, y, z'
loop_
 _atom_site_type_symbol
 _atom_site_label
 _atom_site_symmetry_multiplicity
 _atom_site_fract_x
 _atom_site_fract_y
 _atom_site_fract_z
 _atom_site_occupancy
  Zn  Zn1  1  0.50000000  0.59290200  0.50000000  1
  Zn  Zn2  1  0.50000000  0.40983400  0.49999900  1
  H  H1  1  0.49800100  0.37884300  0.88940400  1
  H  H2  1  0.50199900  0.37884300  0.11059600  1
  H  H3  1  0.50516900  0.56328500  0.90578700  1
  H  H4  1  0.49483100  0.56328500  0.09421300  1
  H  H5  1  0.88397100  0.61779700  0.46490100  1
  H  H6  1  0.11602900  0.61779700  0.53509900  1
  H  H7  1  0.73515000  0.37272500  0.52877700  1
  H  H8  1  0.26485100  0.37272500  0.47122300  1
  H  H9  1  0.87116700  0.36588000  0.52967700  1
  H  H10  1  0.12883300  0.36588000  0.47032200  1
  H  H11  1  0.41698200  0.86873100  0.36268900  1
  H  H12  1  0.58301800  0.86873100  0.63731000  1
  H  H13  1  0.41797000  0.72060600  0.36436600  1
  H  H14  1  0.58203000  0.72060600  0.63563400  1
  H  H15  1  0.41425900  0.13401900  0.36704300  1
  H  H16  1  0.58574100  0.13401900  0.63295600  1
  H  H17  1  0.41529300  0.28215300  0.36865500  1
  H  H18  1  0.58470700  0.28215300  0.63134500  1
  C  C1  1  0.35272600  0.50152300  0.50314200  1
  C  C2  1  0.64727400  0.50152300  0.49685800  1
  C  C3  1  0.49839000  0.50149400  0.26512500  1
  C  C4  1  0.50161000  0.50149400  0.73487500  1
  C  C5  1  0.49988100  0.43703200  0.93344200  1
  C  C6  1  0.50011900  0.43703200  0.06655700  1
  C  C7  1  0.50239000  0.50398900  0.86634700  1
  C  C8  1  0.49761000  0.50398900  0.13365200  1
  C  C9  1  0.85066300  0.56421200  0.47914600  1
  C  C10  1  0.14933700  0.56421200  0.52085400  1
  C  C11  1  0.77353000  0.56961300  0.47727400  1
  C  C12  1  0.22647000  0.56961300  0.52272600  1
  C  C13  1  0.73016800  0.50054000  0.49582100  1
  C  C14  1  0.26983200  0.50054000  0.50417900  1
  C  C15  1  0.76650200  0.42755000  0.51405600  1
  C  C16  1  0.23349800  0.42755000  0.48594300  1
  C  C17  1  0.84372900  0.42314500  0.51504000  1
  C  C18  1  0.15627100  0.42314500  0.48496000  1
  C  C19  1  0.88581000  0.49160000  0.49801800  1
  C  C20  1  0.11419000  0.49160000  0.50198200  1
  C  C21  1  0.96621600  0.48825700  0.49947200  1
  C  C22  1  0.03378400  0.48825700  0.50052800  1
  C  C23  1  0.45369200  0.83667200  0.42338000  1
  C  C24  1  0.54630800  0.83667200  0.57662000  1
  C  C25  1  0.45434600  0.75356200  0.42447500  1
  C  C26  1  0.54565400  0.75356200  0.57552500  1
  C  C27  1  0.50000000  0.87857200  0.50000000  1
  C  C28  1  0.50000000  0.96506500  0.50000000  1
  C  C29  1  0.50000000  0.03769400  0.50000000  1
  C  C30  1  0.45216500  0.16607500  0.42581800  1
  C  C31  1  0.54783500  0.16607600  0.57418100  1
  C  C32  1  0.45284400  0.24918200  0.42687300  1
  C  C33  1  0.54715600  0.24918200  0.57312700  1
  C  C34  1  0.50000000  0.12418000  0.50000000  1
  N  N1  1  0.50000000  0.71340000  0.50000000  1
  N  N2  1  0.50000000  0.28933600  0.50000000  1
  Cl  Cl1  1  0.73598800  0.66538400  0.44690600  1
  Cl  Cl2  1  0.26401200  0.66538400  0.55309500  1
  O  O1  1  0.38833100  0.57068800  0.50201000  1
  O  O2  1  0.61166900  0.57068800  0.49799000  1
  O  O3  1  0.38821600  0.43209200  0.50203500  1
  O  O4  1  0.61178400  0.43209200  0.49796500  1
  O  O5  1  0.49873900  0.57080800  0.32127300  1
  O  O6  1  0.50126100  0.57080800  0.67872700  1
  O  O7  1  0.49873500  0.43186000  0.32103100  1
  O  O8  1  0.50126500  0.43186000  0.67896900  1
