# Generated by REPEAT Assigner based on pymatgen
data_DB0-m3_o24_o114_f0_fsc.sym.6
_audit_creation_date              2022-05-24
_audit_creation_method            REPEAT_Assigner
_cell_length_a                    6.597818
_cell_length_b                    9.157118
_cell_length_c                    12.360669
_cell_angle_alpha                 89.906250
_cell_angle_beta                  80.316022
_cell_angle_gamma                 89.939659
_cell_volume                      736.151826
_symmetry_space_group_name_H-M    P1
_symmetry_Int_Tables_number       1
loop_
    _symmetry_equiv_pos_site_id
    _symmetry_equiv_pos_as_xyz
    1  x,y,z
loop_
    _atom_site_type_symbol
    _atom_site_label
    _atom_site_fract_x
    _atom_site_fract_y
    _atom_site_fract_z
    _atom_type_partial_charge
    C   C1   0.820303  0.980242  0.753473  0.044065
    C   C2   0.690565  0.947658  0.849519  -0.258290
    C   C3   0.759259  0.951738  0.948354  -0.080708
    C   C4   0.024876  0.009080  0.755461  -0.279304
    C   C5   0.092725  0.018311  0.855289  0.471549
    C   C6   0.959741  0.991693  0.952358  -0.179446
    C   C7   0.031614  0.001255  0.051343  0.191081
    C   C8   0.903192  0.981956  0.150798  -0.284838
    C   C9   0.977802  0.991498  0.248061  -0.033809
    N   N1   0.290548  0.052006  0.857174  -0.451119
    C   C10  0.363007  0.060491  0.952472  -0.004546
    C   C11  0.235151  0.034394  0.050742  0.081865
    C   C12  0.311580  0.040841  0.148041  -0.215868
    C   C13  0.184059  0.017578  0.247208  -0.075280
    H   H1   0.532672  0.919079  0.847294  0.213436
    H   H2   0.473022  0.062558  0.146450  0.120595
    H   H3   0.651736  0.923776  0.020773  0.073499
    H   H4   0.740652  0.965018  0.156021  0.187558
    H   H5   0.521759  0.089391  0.952023  0.141452
    O   O1   0.679774  0.117743  0.620595  -0.670501
    O   O2   0.672093  0.865813  0.614366  -0.661066
    C   C14  0.731373  0.988378  0.653545  0.708189
    O   O3   0.250589  0.880296  0.618404  -0.787324
    O   O4   0.260071  0.132109  0.617461  -0.690996
    C   C15  0.178061  0.007831  0.655070  0.910044
    O   O5   0.324980  0.882495  0.381437  -0.709973
    O   O6   0.332532  0.134182  0.387520  -0.646237
    C   C16  0.274808  0.011402  0.347366  0.772608
    O   O7   0.753836  0.120173  0.384191  -0.725535
    O   O8   0.744337  0.868136  0.385105  -0.732131
    C   C17  0.827307  0.992671  0.348581  0.860953
    Zn  Zn1  0.492140  0.837367  0.499673  1.081057
    Zn  Zn2  0.511966  0.162914  0.502620  0.948340
    C   C18  0.671963  0.561623  0.469828  0.025802
    C   C19  0.573096  0.449243  0.407058  -0.069171
    H   H6   0.638680  0.403773  0.325555  0.074562
    H   H7   0.820842  0.617254  0.441919  0.082793
    N   N2   0.522076  0.354515  0.503306  0.367698
    C   C20  0.621516  0.459805  0.566192  -0.237354
    C   C21  0.430444  0.551579  0.595514  -0.103773
    C   C22  0.336501  0.440868  0.531561  0.259880
    C   C23  0.381863  0.541007  0.435880  -0.161826
    N   N3   0.481856  0.645769  0.498972  0.215244
    H   H8   0.727824  0.423602  0.621528  0.123404
    H   H9   0.362024  0.596495  0.676758  0.107109
    H   H10  0.273175  0.576789  0.381727  0.127958
    O   O9   0.147789  0.373103  0.566783  -0.475313
    H   H11  0.135352  0.368774  0.647666  0.343666
