# Generated by REPEAT Assigner based on pymatgen
data_DB0-m3_o6_o11_f0_nbo.sym.108
_audit_creation_date              2022-05-24
_audit_creation_method            REPEAT_Assigner
_cell_length_a                    38.590992
_cell_length_b                    32.266780
_cell_length_c                    22.009367
_cell_angle_alpha                 90.000000
_cell_angle_beta                  123.222690
_cell_angle_gamma                 90.000000
_cell_volume                      22926.601753
_symmetry_space_group_name_H-M    P1
_symmetry_Int_Tables_number       1
loop_
    _symmetry_equiv_pos_site_id
    _symmetry_equiv_pos_as_xyz
    1  x,y,z
loop_
    _atom_site_type_symbol
    _atom_site_label
    _atom_site_fract_x
    _atom_site_fract_y
    _atom_site_fract_z
    _atom_type_partial_charge
    O   O1    0.438228  0.522980  0.442913  -0.711588
    O   O2    0.561600  0.524855  0.554043  -0.698016
    O   O3    0.938315  0.023035  0.445795  -0.711485
    O   O4    0.061688  0.024858  0.556954  -0.697901
    O   O5    0.438024  0.451385  0.444911  -0.689645
    O   O6    0.561495  0.453272  0.557154  -0.703510
    O   O7    0.938046  0.951453  0.442304  -0.690053
    O   O8    0.061518  0.953260  0.554581  -0.702878
    C   C1    0.418822  0.487277  0.426353  0.790820
    C   C2    0.580850  0.489061  0.573172  0.791462
    C   C3    0.918879  0.987319  0.426559  0.788573
    C   C4    0.080905  0.989074  0.573265  0.792149
    O   O9    0.503349  0.522824  0.593361  -0.692485
    O   O10   0.498164  0.524950  0.407568  -0.671756
    O   O11   0.003309  0.024841  0.593718  -0.673490
    O   O12   0.998205  0.022995  0.407995  -0.690443
    O   O13   0.501140  0.451252  0.591597  -0.676858
    O   O14   0.496684  0.453350  0.406497  -0.693306
    O   O15   0.001201  0.953263  0.591453  -0.693151
    O   O16   0.996829  0.951394  0.406426  -0.676188
    C   C5    0.503224  0.487053  0.621480  0.661210
    C   C6    0.496457  0.489108  0.378052  0.658319
    C   C7    0.003156  0.988983  0.621513  0.661296
    C   C8    0.996600  0.987237  0.378275  0.658483
    Zn  Zn1   0.499794  0.535094  0.499870  1.318112
    Zn  Zn2   0.999805  0.035130  0.499766  1.317945
    Zn  Zn3   0.499886  0.441134  0.499665  1.331469
    Zn  Zn4   0.999971  0.941157  0.500044  1.331192
    C   C9    0.516533  0.520929  0.797288  -0.171067
    C   C10   0.483694  0.522469  0.202578  -0.167082
    C   C11   0.016209  0.022150  0.797426  -0.164945
    C   C12   0.983686  0.021304  0.203004  -0.174939
    C   C13   0.486006  0.506077  0.802815  0.005445
    C   C14   0.514397  0.507630  0.197582  0.008013
    C   C15   0.985765  0.006941  0.802859  -0.001702
    C   C16   0.014417  0.006756  0.197829  0.014570
    H   H1    0.543718  0.534563  0.844208  0.165376
    H   H2    0.456423  0.535705  0.155261  0.162285
    H   H3    0.043332  0.035790  0.844450  0.164593
    H   H4    0.956359  0.034565  0.155824  0.163357
    C   C17   0.514063  0.521383  0.728522  -0.115324
    C   C18   0.486118  0.523250  0.271272  -0.111550
    C   C19   0.013753  0.022935  0.728680  -0.116281
    C   C20   0.986150  0.021764  0.271735  -0.107310
    C   C21   0.505229  0.486873  0.689487  -0.042664
    C   C22   0.494470  0.488732  0.310076  -0.045831
    C   C23   0.005061  0.988540  0.689424  -0.046113
    C   C24   0.994638  0.987131  0.310320  -0.045101
    H   H5    0.523049  0.549350  0.713325  0.145064
    H   H6    0.477505  0.551421  0.286612  0.140521
    H   H7    0.022672  0.051041  0.713717  0.143272
    H   H8    0.977430  0.049787  0.287263  0.141694
    H   H9    0.500412  0.457947  0.708841  0.062171
    H   H10   0.498812  0.459665  0.290425  0.066906
    H   H11   0.000322  0.959490  0.708563  0.065767
    H   H12   0.999075  0.958186  0.290481  0.064501
    H   H13   0.287802  0.460276  0.213241  0.155845
    H   H14   0.711602  0.462330  0.787009  0.155379
    H   H15   0.787905  0.960408  0.213285  0.155884
    H   H16   0.211692  0.962255  0.786826  0.154741
    C   C25   0.228463  0.478355  0.190023  -0.217090
    C   C26   0.771099  0.479556  0.810015  -0.223618
    C   C27   0.728547  0.978459  0.190011  -0.219459
    C   C28   0.271176  0.979498  0.809794  -0.223393
    H   H17   0.211897  0.465787  0.135616  0.158193
    H   H18   0.787544  0.467335  0.864655  0.159498
    H   H19   0.712001  0.965914  0.135589  0.158707
    H   H20   0.287634  0.967260  0.864424  0.159354
    C   C29   0.206987  0.497715  0.215555  0.346300
    C   C30   0.792748  0.498191  0.784186  0.352171
    C   C31   0.707046  0.997783  0.215527  0.348927
    C   C32   0.292810  0.998161  0.783960  0.351065
    C   C33   0.228253  0.513700  0.285072  -0.214028
    C   C34   0.771634  0.513740  0.714374  -0.216470
    C   C35   0.728286  0.013736  0.285066  -0.215273
    C   C36   0.271679  0.013733  0.714161  -0.215739
    H   H21   0.211529  0.528868  0.305277  0.154257
    H   H22   0.788495  0.528345  0.693942  0.154002
    H   H23   0.711543  0.028876  0.305258  0.154392
    H   H24   0.288527  0.028361  0.693724  0.154026
    C   C37   0.270887  0.510520  0.328739  -0.214833
    C   C38   0.728980  0.510848  0.670699  -0.211492
    C   C39   0.770920  0.010560  0.328772  -0.214951
    C   C40   0.229023  0.010840  0.670512  -0.211641
    H   H25   0.287493  0.523327  0.382983  0.163323
    H   H26   0.712496  0.523309  0.616215  0.163376
    H   H27   0.787505  0.023339  0.383035  0.164111
    H   H28   0.212526  0.023325  0.616043  0.162675
    C   C41   0.292358  0.491296  0.303040  0.332926
    C   C42   0.707335  0.492351  0.696691  0.326838
    C   C43   0.792416  0.991370  0.303092  0.333350
    C   C44   0.207394  0.992319  0.696514  0.326151
    C   C45   0.271063  0.475186  0.233646  -0.202587
    C   C46   0.728477  0.476675  0.766383  -0.197579
    C   C47   0.771146  0.975293  0.233675  -0.201205
    C   C48   0.228554  0.976616  0.766188  -0.196853
    C   C49   0.162582  0.501080  0.169700  -0.218790
    C   C50   0.837174  0.501293  0.830044  -0.220779
    C   C51   0.662640  0.001138  0.169637  -0.219742
    C   C52   0.337236  0.001275  0.829807  -0.220319
    C   C53   0.336866  0.489047  0.347545  -0.207163
    C   C54   0.662814  0.490390  0.652139  -0.203064
    C   C55   0.836923  0.989115  0.347647  -0.209727
    C   C56   0.162871  0.990373  0.652012  -0.201006
    C   C57   0.374246  0.487766  0.384020  -0.085525
    C   C58   0.625428  0.489330  0.615604  -0.089167
    C   C59   0.874303  0.987825  0.384167  -0.082788
    C   C60   0.125483  0.989327  0.615555  -0.090804
    C   C61   0.125311  0.503449  0.130727  -0.072306
    C   C62   0.874457  0.503497  0.868974  -0.070721
    C   C63   0.625370  0.003499  0.130640  -0.071970
    C   C64   0.374518  0.003488  0.868746  -0.070786
    O   O17   0.534616  0.444178  0.026378  -0.753722
    O   O18   0.463791  0.444167  0.973492  -0.742459
    O   O19   0.034514  0.944195  0.025904  -0.752837
    O   O20   0.963698  0.944104  0.973115  -0.742083
    C   C65   0.499208  0.424919  0.000050  0.927272
    C   C66   0.999114  0.924897  0.999458  0.924602
    O   O21   0.529187  0.506623  0.931925  -0.662456
    O   O22   0.471265  0.505720  0.068565  -0.663133
    O   O23   0.029000  0.007031  0.931956  -0.664556
    O   O24   0.971231  0.005273  0.068804  -0.661896
    O   O25   0.458115  0.504595  0.875858  -0.678880
    O   O26   0.542368  0.506901  0.124662  -0.677093
    O   O27   0.957935  0.004928  0.875973  -0.678459
    O   O28   0.042327  0.006528  0.124807  -0.677526
    C   C67   0.491421  0.505672  0.873820  0.577100
    C   C68   0.509038  0.506640  0.126659  0.577314
    C   C69   0.991219  0.006176  0.873883  0.582365
    C   C70   0.009019  0.006099  0.126867  0.575619
    Zn  Zn5   0.546910  0.505755  0.037175  1.326737
    Zn  Zn6   0.453554  0.506108  0.963314  1.328257
    Zn  Zn7   0.046794  0.005778  0.037233  1.326715
    Zn  Zn8   0.953448  0.006043  0.963521  1.327844
    O   O29   0.536758  0.567703  0.027694  -0.690536
    O   O30   0.465760  0.567690  0.973430  -0.703164
    O   O31   0.036630  0.067722  0.028337  -0.689573
    O   O32   0.965640  0.067633  0.974168  -0.703479
    C   C71   0.501253  0.586907  0.000428  0.809555
    C   C72   0.001125  0.086888  0.001285  0.807491
    O   O33   0.996756  0.443984  0.047913  -0.662269
    O   O34   0.003123  0.443720  0.949392  -0.646723
    O   O35   0.496828  0.943893  0.047471  -0.662683
    O   O36   0.503223  0.943858  0.948981  -0.647772
    C   C73   0.999914  0.424645  0.998712  0.673577
    C   C74   0.500007  0.924668  0.998203  0.676265
    O   O37   0.059253  0.506396  0.113565  -0.693590
    O   O38   0.940522  0.504522  0.886024  -0.691787
    O   O39   0.559297  0.006320  0.113436  -0.693782
    O   O40   0.440597  0.004641  0.885846  -0.692418
    O   O41   0.063913  0.504514  0.013320  -0.686184
    O   O42   0.935868  0.506355  0.986275  -0.685696
    O   O43   0.563986  0.004664  0.013213  -0.686660
    O   O44   0.435915  0.006248  0.986074  -0.685552
    C   C75   0.080864  0.505452  0.083791  0.767454
    C   C76   0.918914  0.505395  0.915799  0.764904
    C   C77   0.580923  0.005493  0.083684  0.767962
    C   C78   0.418975  0.005396  0.915598  0.764914
    Zn  Zn9   0.997010  0.505642  0.065803  1.308644
    Zn  Zn10  0.002766  0.505666  0.933880  1.307557
    Zn  Zn11  0.497051  0.005511  0.065630  1.308472
    Zn  Zn12  0.502844  0.005838  0.933747  1.308474
    O   O45   0.996699  0.567557  0.050282  -0.644174
    O   O46   0.002975  0.567292  0.951786  -0.659346
    O   O47   0.496720  0.067461  0.050387  -0.644233
    O   O48   0.503024  0.067424  0.951922  -0.659382
    C   C79   0.999861  0.586685  0.000972  0.650712
    C   C80   0.499888  0.086703  0.001174  0.650920
    H   H29   0.456729  0.294006  0.033180  0.140352
    H   H30   0.542152  0.294181  0.968017  0.141823
    H   H31   0.956653  0.794032  0.032340  0.139717
    H   H32   0.042078  0.794113  0.967181  0.142143
    C   C81   0.975344  0.734450  0.017995  -0.188288
    C   C82   0.023736  0.734494  0.982155  -0.190524
    C   C83   0.475413  0.234443  0.018734  -0.187850
    C   C84   0.523803  0.234542  0.982892  -0.191651
    C   C85   0.999606  0.713031  0.000200  0.383049
    C   C86   0.499668  0.213051  0.000890  0.382873
    C   C87   0.523556  0.277313  0.982659  -0.224803
    C   C88   0.475422  0.277216  0.018668  -0.224002
    C   C89   0.023479  0.777266  0.981838  -0.225503
    C   C90   0.975344  0.777221  0.017845  -0.221636
    C   C91   0.499431  0.298614  0.000588  0.325289
    C   C92   0.999349  0.798593  0.999730  0.325043
    C   C93   0.999737  0.668499  0.000466  -0.309195
    C   C94   0.499773  0.168518  0.001015  -0.308781
    C   C95   0.499313  0.343091  0.000421  -0.153550
    C   C96   0.999245  0.843070  0.999568  -0.155661
    C   C97   0.499243  0.380441  0.000263  -0.111836
    C   C98   0.999172  0.880419  0.999485  -0.108981
    C   C99   0.999815  0.631149  0.000698  0.047560
    C   C100  0.499841  0.131168  0.001101  0.046962
    H   H33   0.459453  0.717216  0.884502  0.141605
    H   H34   0.542326  0.717813  0.114442  0.141174
    H   H35   0.959250  0.217137  0.885551  0.141191
    H   H36   0.042122  0.217851  0.115491  0.141937
    C   C101  0.976910  0.276876  0.935351  -0.170198
    C   C102  0.023878  0.277280  0.064595  -0.162176
    C   C103  0.477109  0.776931  0.934406  -0.168739
    C   C104  0.524077  0.777267  0.063651  -0.164660
    C   C105  0.000291  0.298472  0.999775  0.344880
    C   C106  0.500480  0.798494  0.998871  0.343447
    C   C107  0.524175  0.734526  0.063799  -0.249093
    C   C108  0.477453  0.734190  0.934891  -0.248662
    C   C109  0.023965  0.234537  0.064821  -0.252899
    C   C110  0.977243  0.234137  0.935913  -0.247471
    C   C111  0.500925  0.713056  0.999503  0.353920
    C   C112  0.000713  0.213036  0.000560  0.355663
    C   C113  0.000110  0.342938  0.999358  -0.292253
    C   C114  0.500261  0.842960  0.998555  -0.287793
    C   C115  0.501100  0.668642  0.999843  -0.157918
    C   C116  0.000920  0.168623  0.000938  -0.159858
    C   C117  0.501202  0.631328  0.000121  -0.127494
    C   C118  0.001048  0.131309  0.001161  -0.125168
    C   C119  0.999994  0.380248  0.999035  0.030617
    C   C120  0.500116  0.880270  0.998351  0.026711
    C   C121  0.950348  0.712051  0.038544  0.365814
    C   C122  0.907648  0.711832  0.993137  -0.055737
    Cl  Cl1   0.882700  0.736726  0.908606  -0.086865
    C   C123  0.884357  0.690816  0.013286  -0.083345
    C   C124  0.903563  0.670146  0.078743  -0.133492
    C   C125  0.946134  0.670411  0.124146  -0.086480
    C   C126  0.969491  0.691368  0.104127  -0.262541
    H   H37   0.850974  0.690405  0.977530  0.109707
    H   H38   0.885238  0.653673  0.094398  0.121205
    H   H39   0.961210  0.654220  0.175493  0.118693
    H   H40   0.002872  0.691683  0.140000  0.138390
    C   C127  0.048865  0.712136  0.961849  0.373493
    C   C128  0.091569  0.712231  0.007202  -0.062678
    Cl  Cl2   0.116382  0.737472  0.091414  -0.085544
    C   C129  0.114980  0.691256  0.987269  -0.078199
    C   C130  0.095892  0.670313  0.922081  -0.138979
    C   C131  0.053317  0.670264  0.876732  -0.082676
    C   C132  0.029840  0.691179  0.896536  -0.267060
    H   H41   0.148368  0.691091  0.022986  0.108853
    H   H42   0.114312  0.653873  0.906596  0.122414
    H   H43   0.038334  0.653859  0.825596  0.118162
    H   H44   0.996455  0.691248  0.860700  0.139397
    C   C133  0.450404  0.212012  0.039219  0.370268
    C   C134  0.407703  0.211819  0.993810  -0.059704
    Cl  Cl3   0.382768  0.236786  0.909345  -0.086233
    C   C135  0.384401  0.190771  0.013900  -0.080643
    C   C136  0.403596  0.170042  0.079301  -0.135967
    C   C137  0.446167  0.170279  0.124705  -0.083220
    C   C138  0.469535  0.191268  0.104743  -0.266558
    H   H45   0.351018  0.190381  0.978142  0.109403
    H   H46   0.385262  0.153544  0.094909  0.121549
    H   H47   0.461234  0.154041  0.176007  0.118023
    H   H48   0.502917  0.191561  0.140618  0.138993
    C   C139  0.548918  0.212216  0.962520  0.375213
    C   C140  0.591622  0.212286  0.007869  -0.062935
    Cl  Cl4   0.616450  0.237456  0.092146  -0.085652
    C   C141  0.615022  0.191344  0.987876  -0.078234
    C   C142  0.595922  0.170460  0.922631  -0.138942
    C   C143  0.553347  0.170436  0.877285  -0.083102
    C   C144  0.529882  0.191320  0.897149  -0.267350
    H   H49   0.648410  0.191159  0.023589  0.108701
    H   H50   0.614332  0.154045  0.907099  0.122468
    H   H51   0.538353  0.154078  0.826104  0.118292
    H   H52   0.496496  0.191410  0.861316  0.139530
    C   C145  0.952534  0.299057  0.866406  0.363331
    C   C146  0.909770  0.298943  0.828086  -0.056415
    Cl  Cl5   0.883953  0.273891  0.862919  -0.083099
    C   C147  0.887074  0.319744  0.762851  -0.067319
    C   C148  0.906941  0.340528  0.735634  -0.158337
    C   C149  0.949578  0.340590  0.773698  -0.086283
    C   C150  0.972340  0.319849  0.838934  -0.257066
    H   H53   0.853634  0.319895  0.733145  0.104871
    H   H54   0.889082  0.356831  0.684505  0.127659
    H   H55   0.965173  0.356868  0.752363  0.124042
    H   H56   0.005779  0.319789  0.868514  0.138190
    C   C151  0.048039  0.299892  0.133126  0.356470
    C   C152  0.090805  0.300149  0.171481  -0.053958
    Cl  Cl6   0.116873  0.275053  0.137166  -0.082711
    C   C153  0.113295  0.321363  0.236320  -0.068425
    C   C154  0.093223  0.342190  0.263108  -0.157891
    C   C155  0.050586  0.341883  0.225010  -0.087435
    C   C156  0.028029  0.320729  0.160168  -0.251009
    H   H57   0.146733  0.321806  0.266047  0.104793
    H   H58   0.110921  0.358817  0.313925  0.127569
    H   H59   0.034831  0.358196  0.246007  0.123642
    H   H60   0.994591  0.320383  0.130564  0.136343
    C   C157  0.452714  0.799151  0.865506  0.363560
    C   C158  0.409950  0.799008  0.827194  -0.059413
    Cl  Cl7   0.384152  0.773872  0.861986  -0.082350
    C   C159  0.387238  0.819850  0.762003  -0.063641
    C   C160  0.407089  0.840703  0.734823  -0.161013
    C   C161  0.449726  0.840796  0.772881  -0.084079
    C   C162  0.472504  0.820014  0.838073  -0.258364
    H   H61   0.353798  0.819979  0.732304  0.103989
    H   H62   0.389218  0.857038  0.683729  0.128139
    H   H63   0.465309  0.857129  0.751576  0.123724
    H   H64   0.505943  0.819980  0.867648  0.138379
    C   C163  0.548221  0.799840  0.132227  0.356207
    C   C164  0.590986  0.800126  0.170588  -0.054736
    Cl  Cl8   0.617072  0.775114  0.136230  -0.082684
    C   C165  0.613461  0.821300  0.235472  -0.067934
    C   C166  0.593374  0.842057  0.262299  -0.156671
    C   C167  0.550738  0.841720  0.224196  -0.088757
    C   C168  0.528195  0.820605  0.159310  -0.249603
    H   H65   0.646899  0.821765  0.265204  0.104635
    H   H66   0.611060  0.858653  0.313151  0.127093
    H   H67   0.534970  0.857977  0.245225  0.123954
    H   H68   0.494757  0.820234  0.129702  0.135872
    C   C169  0.445375  0.494953  0.738449  0.273582
    C   C170  0.430084  0.455101  0.729880  0.072427
    Cl  Cl9   0.459574  0.416325  0.793463  -0.101673
    C   C171  0.391943  0.445069  0.669181  -0.155832
    C   C172  0.368865  0.474664  0.617153  -0.084885
    C   C173  0.383882  0.514424  0.625768  -0.099252
    C   C174  0.421988  0.524585  0.686333  -0.270187
    H   H69   0.380236  0.413820  0.662160  0.116432
    H   H70   0.339016  0.466676  0.569562  0.100750
    H   H71   0.365758  0.537667  0.585038  0.112550
    H   H72   0.433454  0.555917  0.692983  0.148266
    C   C175  0.555058  0.497030  0.262347  0.268414
    C   C176  0.570743  0.457298  0.271803  0.063832
    Cl  Cl10  0.541740  0.418079  0.208876  -0.099729
    C   C177  0.608900  0.447740  0.332876  -0.151761
    C   C178  0.631608  0.477691  0.384396  -0.087784
    C   C179  0.616206  0.517336  0.374888  -0.096529
    C   C180  0.578083  0.527025  0.313946  -0.264860
    H   H73   0.620913  0.416582  0.340590  0.115737
    H   H74   0.661469  0.470073  0.432283  0.100941
    H   H75   0.634041  0.540862  0.415210  0.111822
    H   H76   0.566321  0.558273  0.306598  0.147359
    C   C181  0.945166  0.995799  0.738425  0.271951
    C   C182  0.930012  0.955867  0.729581  0.073388
    Cl  Cl11  0.959643  0.917018  0.792870  -0.102396
    C   C183  0.891900  0.945821  0.668824  -0.155932
    C   C184  0.868712  0.975481  0.617014  -0.086152
    C   C185  0.883591  0.015319  0.625905  -0.096959
    C   C186  0.921668  0.025494  0.686527  -0.269845
    H   H77   0.880301  0.914512  0.661586  0.116317
    H   H78   0.838886  0.967482  0.569377  0.100697
    H   H79   0.865381  0.038613  0.585348  0.111911
    H   H80   0.933023  0.056887  0.693395  0.148855
    C   C187  0.055123  0.996137  0.262468  0.265355
    C   C188  0.070911  0.956477  0.271576  0.065541
    Cl  Cl12  0.041990  0.917356  0.208348  -0.099176
    C   C189  0.109110  0.946901  0.332533  -0.153943
    C   C190  0.131755  0.976765  0.384283  -0.085861
    C   C191  0.116248  0.016340  0.375125  -0.098302
    C   C192  0.078083  0.026046  0.314300  -0.262930
    H   H81   0.121204  0.915796  0.339973  0.116295
    H   H82   0.161650  0.969133  0.432078  0.100979
    H   H83   0.134034  0.039796  0.415631  0.112015
    H   H84   0.066237  0.057240  0.307225  0.146403
