# generated using pymatgen
data_Zn2H17C30N5O9
_symmetry_space_group_name_H-M   'P 1'
_cell_length_a   12.77542900
_cell_length_b   13.45236500
_cell_length_c   8.55906500
_cell_angle_alpha   90.00000000
_cell_angle_beta   93.29590100
_cell_angle_gamma   90.00000000
_symmetry_Int_Tables_number   1
_chemical_formula_structural   Zn2H17C30N5O9
_chemical_formula_sum   'Zn2 H17 C30 N5 O9'
_cell_volume   1468.52556843
_cell_formula_units_Z   1
loop_
 _symmetry_equiv_pos_site_id
 _symmetry_equiv_pos_as_xyz
  1  'x, y, z'
loop_
 _atom_site_type_symbol
 _atom_site_label
 _atom_site_symmetry_multiplicity
 _atom_site_fract_x
 _atom_site_fract_y
 _atom_site_fract_z
 _atom_site_occupancy
  Zn  Zn1  1  0.48830600  0.10143900  0.50070500  1
  Zn  Zn2  1  0.49880900  0.87674400  0.50294800  1
  H  H1  1  0.84245300  0.97710900  0.28510000  1
  H  H2  1  0.85175100  0.98366000  0.78503400  1
  H  H3  1  0.14562300  0.01239200  0.71853400  1
  H  H4  1  0.56399300  0.01967800  0.99988800  1
  H  H5  1  0.41762500  0.94238800  0.00326400  1
  H  H6  1  0.66632200  0.73810600  0.51397500  1
  H  H7  1  0.65002600  0.23220100  0.50997700  1
  H  H8  1  0.32165500  0.24914500  0.49055700  1
  H  H9  1  0.33759400  0.73750900  0.49341200  1
  H  H10  1  0.23548100  0.40582800  0.48587900  1
  H  H11  1  0.24160300  0.58701900  0.48711000  1
  H  H12  1  0.67132200  0.56063600  0.51371600  1
  H  H13  1  0.66589800  0.40811300  0.51158900  1
  H  H14  1  0.15855000  0.00232900  0.35675000  1
  H  H15  1  0.05550400  0.10489700  0.49767900  1
  H  H16  1  0.95695600  0.17471200  0.38506000  1
  H  H17  1  0.08497600  0.22847000  0.42921200  1
  C  C1  1  0.69616000  0.99571400  0.15590400  1
  C  C2  1  0.80311700  0.98402300  0.17038900  1
  C  C3  1  0.86077900  0.98577600  0.03873200  1
  C  C4  1  0.80947100  0.98890900  0.89057900  1
  C  C5  1  0.70138100  0.99782900  0.87799400  1
  C  C6  1  0.64709400  0.00739700  0.01062800  1
  C  C7  1  0.18421300  0.00342300  0.83331600  1
  C  C8  1  0.28961400  0.98250400  0.84762500  1
  C  C9  1  0.33640500  0.96329000  0.99275200  1
  C  C10  1  0.28427400  0.98096800  0.12589200  1
  C  C11  1  0.17858300  0.00508700  0.11360000  1
  C  C12  1  0.12653000  0.00727700  0.96486800  1
  C  C13  1  0.63178800  0.99286200  0.29065300  1
  C  C14  1  0.34799000  0.98433900  0.27382200  1
  C  C15  1  0.35490200  0.98524000  0.71324100  1
  C  C16  1  0.63932500  0.99402200  0.72910000  1
  C  C17  1  0.41051600  0.69659200  0.49795400  1
  C  C18  1  0.39687300  0.28615700  0.49507000  1
  C  C19  1  0.59339400  0.69718000  0.50938000  1
  C  C20  1  0.57940900  0.27655600  0.50586000  1
  C  C21  1  0.59519800  0.59468700  0.50905800  1
  C  C22  1  0.58777300  0.37844100  0.50685200  1
  C  C23  1  0.50194000  0.54099800  0.50287700  1
  C  C24  1  0.49831200  0.43693500  0.50193600  1
  C  C25  1  0.40905500  0.59399300  0.49743900  1
  C  C26  1  0.40210000  0.38896900  0.49586100  1
  C  C27  1  0.31051300  0.44318200  0.49062500  1
  C  C28  1  0.31400300  0.54526100  0.49133600  1
  C  C29  1  0.07908200  0.11682700  0.25184800  1
  C  C30  1  0.04205400  0.15857500  0.40041600  1
  N  N1  1  0.97118600  0.98265700  0.05976500  1
  N  N2  1  0.01587800  0.01127800  0.94263300  1
  N  N3  1  0.50187300  0.74645500  0.50381600  1
  N  N4  1  0.48525500  0.23174400  0.50010400  1
  N  N5  1  0.12638100  0.02702900  0.25086300  1
  O  O1  1  0.60392800  0.90512700  0.34242600  1
  O  O2  1  0.59370800  0.07755300  0.33894900  1
  O  O3  1  0.37781700  0.07139600  0.32856000  1
  O  O4  1  0.38794700  0.90106900  0.32905200  1
  O  O5  1  0.38257900  0.07311700  0.66096200  1
  O  O6  1  0.39266300  0.90047400  0.66423500  1
  O  O7  1  0.60854400  0.90702100  0.67555800  1
  O  O8  1  0.59863800  0.07696000  0.67467900  1
  O  O9  1  0.06778300  0.16528600  0.13173000  1
