# generated using pymatgen
data_ZnH22C33(NO2)3
_symmetry_space_group_name_H-M   'P 1'
_cell_length_a   15.92439500
_cell_length_b   15.94072700
_cell_length_c   17.10641800
_cell_angle_alpha   89.99392200
_cell_angle_beta   89.11921200
_cell_angle_gamma   92.72050000
_symmetry_Int_Tables_number   1
_chemical_formula_structural   ZnH22C33(NO2)3
_chemical_formula_sum   'Zn2 H44 C66 N6 O12'
_cell_volume   4336.99509525
_cell_formula_units_Z   2
loop_
 _symmetry_equiv_pos_site_id
 _symmetry_equiv_pos_as_xyz
  1  'x, y, z'
loop_
 _atom_site_type_symbol
 _atom_site_label
 _atom_site_symmetry_multiplicity
 _atom_site_fract_x
 _atom_site_fract_y
 _atom_site_fract_z
 _atom_site_occupancy
  Zn  Zn1  1  0.59825200  0.50284500  0.50675300  1
  Zn  Zn2  1  0.40715400  0.49111500  0.50000100  1
  H  H1  1  0.53679800  0.06251900  0.38124700  1
  H  H2  1  0.37565500  0.05613900  0.53833700  1
  H  H3  1  0.39263200  0.07043300  0.43447300  1
  H  H4  1  0.40616400  0.93074600  0.41534300  1
  H  H5  1  0.36694700  0.91646400  0.51312100  1
  H  H6  1  0.60350900  0.06006600  0.58666700  1
  H  H7  1  0.50142800  0.07586500  0.62935200  1
  H  H8  1  0.62612000  0.07919600  0.44318700  1
  H  H9  1  0.63457300  0.94687400  0.47562300  1
  H  H10  1  0.45484900  0.94275500  0.61848300  1
  H  H11  1  0.62274700  0.50249700  0.75844900  1
  H  H12  1  0.61425100  0.50232000  0.89833000  1
  H  H13  1  0.65142500  0.50634300  0.26154800  1
  H  H14  1  0.35417800  0.49487600  0.74637200  1
  H  H15  1  0.39264000  0.48933700  0.10805300  1
  H  H16  1  0.34516900  0.49476600  0.88839500  1
  H  H17  1  0.38337600  0.48792900  0.24773300  1
  H  H18  1  0.73199500  0.43215400  0.41204700  1
  H  H19  1  0.12390600  0.35627600  0.43404200  1
  H  H20  1  0.27798600  0.36800600  0.43635200  1
  H  H21  1  0.72964500  0.59470800  0.60465500  1
  H  H22  1  0.11808900  0.59054100  0.55624200  1
  H  H23  1  0.88379700  0.60570500  0.60349300  1
  H  H24  1  0.26994100  0.59705600  0.55742300  1
  H  H25  1  0.59371500  0.83155700  0.23200600  1
  H  H26  1  0.67936500  0.71413300  0.19973700  1
  H  H27  1  0.76546800  0.65064300  0.29981700  1
  H  H28  1  0.76531200  0.70656100  0.43354900  1
  H  H29  1  0.68012000  0.82223900  0.46851500  1
  H  H30  1  0.80819100  0.53465300  0.00375800  1
  H  H31  1  0.85165300  0.44059200  0.89941700  1
  H  H32  1  0.77976400  0.30190200  0.88352300  1
  H  H33  1  0.66488700  0.25669600  0.97385100  1
  H  H34  1  0.62146000  0.34896500  0.07923800  1
  H  H35  1  0.91925400  0.35909800  0.24590700  1
  H  H36  1  0.88798100  0.21253800  0.21105400  1
  H  H37  1  0.82576000  0.11368500  0.30846400  1
  H  H38  1  0.79623800  0.16197500  0.44207500  1
  H  H39  1  0.82850900  0.30743000  0.47881300  1
  H  H40  1  0.68292200  0.85910000  0.74367400  1
  H  H41  1  0.65236100  0.75888600  0.84896300  1
  H  H42  1  0.51291400  0.68689200  0.86104500  1
  H  H43  1  0.40406600  0.71452100  0.76551300  1
  H  H44  1  0.43256400  0.81292200  0.65946800  1
  C  C1  1  0.51063000  0.49695500  0.35038300  1
  C  C2  1  0.50508100  0.33318600  0.50402200  1
  C  C3  1  0.49484400  0.49749000  0.65635700  1
  C  C4  1  0.50036100  0.66062900  0.50287300  1
  C  C5  1  0.56343900  0.04636800  0.43840600  1
  C  C6  1  0.41707700  0.04145100  0.48794500  1
  C  C7  1  0.41812700  0.94715600  0.47710500  1
  C  C8  1  0.49934600  0.75032200  0.50289600  1
  C  C9  1  0.50577100  0.07601100  0.50298900  1
  C  C10  1  0.57304100  0.95245200  0.44829100  1
  C  C11  1  0.50259800  0.91751000  0.50314200  1
  C  C12  1  0.51532100  0.95039400  0.58611300  1
  C  C13  1  0.53531100  0.04443400  0.58132300  1
  C  C14  1  0.50015200  0.82584700  0.50300100  1
  C  C15  1  0.50662900  0.16774500  0.50348600  1
  C  C16  1  0.50627900  0.24328400  0.50382500  1
  C  C17  1  0.51665200  0.49723700  0.26474600  1
  C  C18  1  0.44499600  0.49195500  0.22027900  1
  C  C19  1  0.45087600  0.49249500  0.13977400  1
  C  C20  1  0.52917700  0.49731700  0.10265700  1
  C  C21  1  0.60109800  0.50059800  0.14739500  1
  C  C22  1  0.59453300  0.50247200  0.22786500  1
  C  C23  1  0.55594300  0.50081600  0.86676900  1
  C  C24  1  0.56127200  0.50087800  0.78618100  1
  C  C25  1  0.47777300  0.49850100  0.90403000  1
  C  C26  1  0.48923700  0.49837200  0.74199600  1
  C  C27  1  0.41158800  0.49655100  0.77929700  1
  C  C28  1  0.40618700  0.49659600  0.85972300  1
  C  C29  1  0.23740700  0.54435100  0.52958500  1
  C  C30  1  0.15070000  0.54022900  0.52860000  1
  C  C31  1  0.10890800  0.47201200  0.49401700  1
  C  C32  1  0.15540000  0.40994900  0.46136300  1
  C  C33  1  0.24196000  0.41666400  0.46264600  1
  C  C34  1  0.85336800  0.47265900  0.45238500  1
  C  C35  1  0.76648200  0.46814700  0.45554900  1
  C  C36  1  0.89686200  0.52215900  0.50718400  1
  C  C37  1  0.76471500  0.55979900  0.56210900  1
  C  C38  1  0.85127900  0.56641100  0.56106000  1
  C  C39  1  0.57368700  0.90697900  0.37069400  1
  C  C40  1  0.63026600  0.83786900  0.35262200  1
  C  C41  1  0.63116900  0.80555900  0.27736600  1
  C  C42  1  0.67966400  0.73885800  0.25856200  1
  C  C43  1  0.72793000  0.70332200  0.31451000  1
  C  C44  1  0.72792300  0.73483900  0.38935300  1
  C  C45  1  0.67962800  0.80161300  0.40856700  1
  C  C46  1  0.68536200  0.50651600  0.11079600  1
  C  C47  1  0.71057600  0.44935900  0.04794300  1
  C  C48  1  0.77629400  0.47365900  0.99793100  1
  C  C49  1  0.80079200  0.42090400  0.93883700  1
  C  C50  1  0.76047700  0.34321900  0.92986200  1
  C  C51  1  0.69598400  0.31799100  0.98038900  1
  C  C52  1  0.67125700  0.37059500  0.03951300  1
  C  C53  1  0.89435900  0.43294000  0.38504000  1
  C  C54  1  0.87462400  0.34454400  0.36441700  1
  C  C55  1  0.89232900  0.31654400  0.28970800  1
  C  C56  1  0.87456700  0.23387900  0.26970400  1
  C  C57  1  0.83964800  0.17847000  0.32423800  1
  C  C58  1  0.82295600  0.20560900  0.39905200  1
  C  C59  1  0.84065600  0.28819800  0.41932700  1
  C  C60  1  0.58137300  0.90516900  0.62974000  1
  C  C61  1  0.55983700  0.84555500  0.69410200  1
  C  C62  1  0.62115100  0.82811800  0.74749300  1
  C  C63  1  0.60418400  0.77159100  0.80733100  1
  C  C64  1  0.52611500  0.73121500  0.81415000  1
  C  C65  1  0.46504500  0.74707400  0.76080400  1
  C  C66  1  0.48150600  0.80388800  0.70108000  1
  N  N1  1  0.53745000  0.50078000  0.02018600  1
  N  N2  1  0.46881300  0.49686200  0.98642900  1
  N  N3  1  0.28158500  0.48330300  0.49658000  1
  N  N4  1  0.02021800  0.46403800  0.49091700  1
  N  N5  1  0.98578200  0.52926900  0.51091400  1
  N  N6  1  0.72386400  0.51054800  0.50995700  1
  O  O1  1  0.58067200  0.50139500  0.38975000  1
  O  O2  1  0.43593900  0.49238200  0.38418200  1
  O  O3  1  0.57699900  0.37653500  0.50665300  1
  O  O4  1  0.43207300  0.36767300  0.50120800  1
  O  O5  1  0.56955200  0.50156800  0.62256900  1
  O  O6  1  0.42463000  0.49296000  0.61704600  1
  O  O7  1  0.57341800  0.62627900  0.50588700  1
  O  O8  1  0.42838100  0.61741600  0.50006300  1
  O  O9  1  0.52527100  0.92735500  0.32030400  1
  O  O10  1  0.73713500  0.55819500  0.13572200  1
  O  O11  1  0.94301700  0.47523000  0.34371700  1
  O  O12  1  0.65547700  0.92046900  0.61407300  1
