# generated using pymatgen
data_FeH13C31N2O11
_symmetry_space_group_name_H-M   'P 1'
_cell_length_a   14.27904500
_cell_length_b   24.24074000
_cell_length_c   11.08473600
_cell_angle_alpha   118.67087200
_cell_angle_beta   94.40710200
_cell_angle_gamma   76.57118500
_symmetry_Int_Tables_number   1
_chemical_formula_structural   FeH13C31N2O11
_chemical_formula_sum   'Fe2 H26 C62 N4 O22'
_cell_volume   3271.65160186
_cell_formula_units_Z   2
loop_
 _symmetry_equiv_pos_site_id
 _symmetry_equiv_pos_as_xyz
  1  'x, y, z'
loop_
 _atom_site_type_symbol
 _atom_site_label
 _atom_site_symmetry_multiplicity
 _atom_site_fract_x
 _atom_site_fract_y
 _atom_site_fract_z
 _atom_site_occupancy
  Fe  Fe1  1  0.48495000  0.00908000  0.28947300  1
  Fe  Fe2  1  0.47172700  0.01695800  0.78970700  1
  H  H1  1  0.84939600  0.98182400  0.24291700  1
  H  H2  1  0.78223400  0.01891400  0.84312000  1
  H  H3  1  0.94742700  0.02194900  0.82938600  1
  H  H4  1  0.11088800  0.02410300  0.81458100  1
  H  H5  1  0.01153000  0.98205700  0.22579700  1
  H  H6  1  0.28024500  0.25419300  0.97058300  1
  H  H7  1  0.20602800  0.33779400  0.90940000  1
  H  H8  1  0.66523100  0.81303400  0.58275500  1
  H  H9  1  0.98315900  0.72581000  0.64391400  1
  H  H10  1  0.08161500  0.64957400  0.69783200  1
  H  H11  1  0.13816200  0.59089400  0.78158700  1
  H  H12  1  0.31074600  0.21274200  0.49431300  1
  H  H13  1  0.01030500  0.29099600  0.36910900  1
  H  H14  1  0.80894700  0.43914600  0.30990000  1
  H  H15  1  0.63516500  0.76890800  0.10222300  1
  H  H16  1  0.71540500  0.51797800  0.25870500  1
  H  H17  1  0.72176000  0.68457100  0.15414100  1
  H  H18  1  0.91641600  0.36654800  0.30967800  1
  H  H19  1  0.21838200  0.01528800  0.32289000  1
  H  H20  1  0.25981800  0.94519300  0.41212300  1
  H  H21  1  0.31991400  0.86915000  0.27190400  1
  H  H22  1  0.20199000  0.87778100  0.33642200  1
  H  H23  1  0.23480800  0.56358300  0.93356600  1
  H  H24  1  0.39226600  0.56771800  0.98410000  1
  H  H25  1  0.44460400  0.55471500  0.82650200  1
  H  H26  1  0.47982800  0.49428900  0.88257300  1
  C  C1  1  0.83403100  0.98940800  0.15435200  1
  C  C2  1  0.74145700  0.99425000  0.10752200  1
  C  C3  1  0.72358900  0.00425600  0.99387600  1
  C  C4  1  0.79671500  0.01173100  0.93234400  1
  C  C5  1  0.88877800  0.00678700  0.97967600  1
  C  C6  1  0.90744900  0.99519100  0.09001000  1
  C  C7  1  0.96230000  0.01285900  0.91612700  1
  C  C8  1  0.05428900  0.00865000  0.96479100  1
  C  C9  1  0.07324400  0.99702700  0.07532000  1
  C  C10  1  0.99941300  0.99014700  0.13766800  1
  C  C11  1  0.12679200  0.01670600  0.90329300  1
  C  C12  1  0.21816300  0.01619800  0.95511300  1
  C  C13  1  0.23607600  0.00741800  0.07077300  1
  C  C14  1  0.16462000  0.99530300  0.12691300  1
  C  C15  1  0.66355900  0.99193100  0.18349100  1
  C  C16  1  0.55779100  0.89223400  0.27834000  1
  C  C17  1  0.32642000  0.01627400  0.14183400  1
  C  C18  1  0.38481400  0.10957500  0.51874700  1
  C  C19  1  0.57296800  0.91492000  0.56534000  1
  C  C20  1  0.63114700  0.00067700  0.92836600  1
  C  C21  1  0.37621200  0.13358700  0.80515100  1
  C  C22  1  0.29444000  0.02218100  0.88202800  1
  C  C23  1  0.21775100  0.38874700  0.72587000  1
  C  C24  1  0.13921700  0.31192800  0.56022700  1
  C  C25  1  0.30527700  0.22219400  0.59954100  1
  C  C26  1  0.34457800  0.17349000  0.63185600  1
  C  C27  1  0.28800300  0.24436500  0.86550000  1
  C  C28  1  0.24701700  0.29229000  0.83155300  1
  C  C29  1  0.25438700  0.28115200  0.69797600  1
  C  C30  1  0.09838100  0.41962700  0.59146300  1
  C  C31  1  0.16678200  0.43540900  0.69082200  1
  C  C32  1  0.18062100  0.49794900  0.75532400  1
  C  C33  1  0.08581400  0.35725100  0.52566700  1
  C  C34  1  0.33585800  0.18428200  0.76608500  1
  C  C35  1  0.60148900  0.84056000  0.31359800  1
  C  C36  1  0.00317700  0.57330500  0.58508700  1
  C  C37  1  0.91120600  0.49612700  0.43556800  1
  C  C38  1  0.92884900  0.55760100  0.49491000  1
  C  C39  1  0.02204700  0.63435200  0.63509600  1
  C  C40  1  0.96585300  0.67909500  0.60219600  1
  C  C41  1  0.88961900  0.66439000  0.51816300  1
  C  C42  1  0.87163800  0.60376200  0.46381500  1
  C  C43  1  0.79580800  0.58986800  0.37794300  1
  C  C44  1  0.73926700  0.63633000  0.34830000  1
  C  C45  1  0.83230600  0.70989100  0.48664900  1
  C  C46  1  0.65799200  0.80315300  0.47688600  1
  C  C47  1  0.60891600  0.85160800  0.44881600  1
  C  C48  1  0.63995900  0.77936100  0.20853700  1
  C  C49  1  0.68864300  0.73107500  0.23750700  1
  C  C50  1  0.69974300  0.74323000  0.37207400  1
  C  C51  1  0.05697800  0.52786100  0.62234100  1
  C  C52  1  0.04237600  0.46556300  0.55832000  1
  C  C53  1  0.97166300  0.44891300  0.46186800  1
  C  C54  1  0.12527300  0.54324900  0.72294100  1
  C  C55  1  0.01970800  0.33997700  0.42492300  1
  C  C56  1  0.83219000  0.48370700  0.35240700  1
  C  C57  1  0.77575200  0.52989700  0.32384000  1
  C  C58  1  0.96368400  0.38489200  0.39279000  1
  C  C59  1  0.20339500  0.92290600  0.21232200  1
  C  C60  1  0.24915300  0.90272600  0.31478000  1
  C  C61  1  0.34106000  0.49891600  0.79708100  1
  C  C62  1  0.41898200  0.53106000  0.87788200  1
  N  N1  1  0.20356100  0.32821200  0.65960300  1
  N  N2  1  0.75794500  0.69550200  0.40319200  1
  N  N3  1  0.18272700  0.98551100  0.24293700  1
  N  N4  1  0.25146200  0.51713900  0.85379100  1
  O  O1  1  0.57292200  0.01350600  0.16655000  1
  O  O2  1  0.55692300  0.87938300  0.14904000  1
  O  O3  1  0.68474600  0.97343800  0.27771000  1
  O  O4  1  0.52503500  0.95195500  0.37401100  1
  O  O5  1  0.37619300  0.97338700  0.17593500  1
  O  O6  1  0.35378900  0.07044200  0.18249900  1
  O  O7  1  0.45910000  0.10017800  0.44326100  1
  O  O8  1  0.34416300  0.06153500  0.48930200  1
  O  O9  1  0.48941200  0.92850500  0.62673500  1
  O  O10  1  0.62683100  0.95754800  0.61329300  1
  O  O11  1  0.58593300  0.04594300  0.89857200  1
  O  O12  1  0.59593000  0.94955200  0.89058000  1
  O  O13  1  0.27246800  0.03382000  0.77803800  1
  O  O14  1  0.43319500  0.07945400  0.71850200  1
  O  O15  1  0.38535000  0.01075100  0.91192300  1
  O  O16  1  0.35614800  0.14263900  0.92777500  1
  O  O17  1  0.28153900  0.40297100  0.82600400  1
  O  O18  1  0.85230200  0.76833200  0.53660400  1
  O  O19  1  0.12384300  0.25186200  0.49870500  1
  O  O20  1  0.66399900  0.62301600  0.26693800  1
  O  O21  1  0.18443400  0.88235600  0.10006200  1
  O  O22  1  0.35873500  0.45591300  0.67881600  1
