# Generated by REPEAT Assigner based on pymatgen
data_DB0-m3_o500_o23_f0_fsc.sym.8
_audit_creation_date              2022-05-24
_audit_creation_method            REPEAT_Assigner
_cell_length_a                    11.368500
_cell_length_b                    14.207930
_cell_length_c                    8.502983
_cell_angle_alpha                 90.000000
_cell_angle_beta                  107.385635
_cell_angle_gamma                 90.000000
_cell_volume                      1310.681450
_symmetry_space_group_name_H-M    P1
_symmetry_Int_Tables_number       1
loop_
    _symmetry_equiv_pos_site_id
    _symmetry_equiv_pos_as_xyz
    1  x,y,z
loop_
    _atom_site_type_symbol
    _atom_site_label
    _atom_site_fract_x
    _atom_site_fract_y
    _atom_site_fract_z
    _atom_type_partial_charge
    C   C1   0.691999  0.032756  0.573356  -0.000736
    C   C2   0.753577  0.021220  0.737736  -0.244257
    C   C3   0.876978  0.996853  0.788216  0.170879
    C   C4   0.932323  0.971656  0.669584  -0.123145
    H   H1   0.024796  0.943751  0.704788  0.098456
    C   C5   0.865256  0.973262  0.504142  -0.091622
    C   C6   0.746349  0.007815  0.455767  -0.128148
    C   C7   0.945291  0.996211  0.965663  -0.220034
    C   C8   0.067784  0.008366  0.020558  -0.191466
    H   H2   0.893126  0.988868  0.052485  0.145908
    H   H3   0.119880  0.015733  0.933653  0.129858
    C   C9   0.259672  0.983724  0.248382  -0.136918
    C   C10  0.321386  0.972394  0.412853  -0.122092
    C   C11  0.266944  0.997091  0.530551  -0.072713
    C   C12  0.147886  0.031336  0.482150  -0.128672
    C   C13  0.080802  0.032859  0.316695  -0.047403
    H   H4   0.988229  0.060565  0.281515  0.068690
    C   C14  0.136168  0.007805  0.197995  0.096008
    H   H5   0.595483  0.051360  0.536139  0.123547
    H   H6   0.906140  0.947403  0.413050  0.089267
    H   H7   0.417971  0.953986  0.450030  0.117724
    H   H8   0.106892  0.057010  0.573242  0.098376
    O   O1   0.619671  0.085027  0.216195  -0.686023
    O   O2   0.640351  0.923285  0.213372  -0.665534
    C   C15  0.669036  0.005653  0.284304  0.789556
    O   O3   0.386717  0.911919  0.105881  -0.744522
    O   O4   0.366339  0.073443  0.102130  -0.720248
    C   C16  0.334912  0.989094  0.137467  0.899607
    O   O5   0.393689  0.919954  0.770298  -0.690135
    O   O6   0.372979  0.081575  0.773135  -0.633400
    C   C17  0.344167  0.999251  0.702184  0.764345
    O   O7   0.626589  0.093063  0.880160  -0.781441
    O   O8   0.646985  0.931438  0.883935  -0.744275
    C   C18  0.678173  0.015825  0.848320  0.958638
    Zn  Zn1  0.517757  0.898967  0.992202  1.096391
    Zn  Zn2  0.496216  0.105941  0.994290  1.018613
    C   C19  0.589744  0.548148  0.888836  -0.026305
    C   C20  0.598388  0.443078  0.920265  -0.244183
    C   C21  0.379429  0.560911  0.921918  0.058163
    C   C22  0.374360  0.454021  0.892295  0.117965
    H   H9   0.589933  0.404490  0.804253  0.062601
    H   H10  0.545342  0.563382  0.756827  0.032620
    H   H11  0.335439  0.574822  0.019702  -0.024485
    H   H12  0.301417  0.424910  0.940516  -0.023780
    N   N1   0.488809  0.229306  0.999429  0.103856
    N   N2   0.529625  0.775785  0.989669  -0.041017
    C   C23  0.514586  0.591663  0.990619  0.070074
    C   C24  0.497913  0.413451  0.994592  0.670576
    C   C25  0.526224  0.452676  0.169454  -0.234239
    C   C26  0.562180  0.556749  0.167920  0.311363
    C   C27  0.491829  0.310705  0.998202  -0.308907
    C   C28  0.524818  0.694440  0.989912  -0.095299
    H   H13  0.513021  0.596436  0.241445  -0.038115
    H   H14  0.439213  0.450915  0.202924  -0.028686
    H   H15  0.683847  0.578057  0.921651  0.026663
    H   H16  0.689969  0.426108  0.006423  0.051130
    C   C29  0.306197  0.618007  0.771584  0.130719
    C   C30  0.169035  0.603753  0.743282  -0.262132
    H   H17  0.149837  0.533068  0.784800  0.031282
    H   H18  0.135966  0.656981  0.815628  0.065270
    H   H19  0.119074  0.613152  0.610626  0.083819
    H   H20  0.322105  0.694420  0.792832  0.019706
    H   H21  0.332056  0.600436  0.659546  -0.061753
    C   C31  0.341806  0.426335  0.709264  0.029711
    C   C32  0.333189  0.320429  0.684910  -0.223738
    H   H22  0.425273  0.290152  0.696659  0.075797
    H   H23  0.290413  0.287398  0.772621  0.043783
    H   H24  0.273785  0.305682  0.557939  0.042658
    H   H25  0.249857  0.454224  0.641600  0.022893
    H   H26  0.408331  0.454129  0.649342  0.010177
    C   C33  0.699781  0.578117  0.241042  0.152118
    C   C34  0.725981  0.615934  0.415437  -0.288613
    H   H27  0.695215  0.690286  0.409296  0.061436
    H   H28  0.676533  0.575808  0.487788  0.053995
    H   H29  0.826573  0.613115  0.478308  0.067097
    H   H30  0.758262  0.516269  0.238167  -0.056988
    H   H31  0.727364  0.634906  0.170343  -0.000450
    C   C35  0.618504  0.391177  0.296070  0.145834
    C   C36  0.550429  0.322764  0.375287  -0.183776
    H   H32  0.479498  0.282763  0.281634  0.048669
    H   H33  0.617560  0.272741  0.453948  0.035913
    H   H34  0.505194  0.362314  0.453740  0.048827
    H   H35  0.678279  0.351468  0.237774  -0.011557
    H   H36  0.677571  0.433157  0.398324  -0.013771
