data_DB0-m29_o96_o1530_f0_pts.sym.4_repeat
_audit_creation_date              2024-02-24
_audit_creation_method            'Materials Studio'
_symmetry_space_group_name_H-M    'P1'
_symmetry_Int_Tables_number       1
_symmetry_cell_setting            triclinic
loop_
_symmetry_equiv_pos_as_xyz
  x,y,z
_cell_length_a                    17.2521
_cell_length_b                    13.8807
_cell_length_c                    18.3668
_cell_angle_alpha                 84.2932
_cell_angle_beta                  90.6353
_cell_angle_gamma                 116.6297
loop_
_atom_site_label
_atom_site_type_symbol
_atom_site_fract_x
_atom_site_fract_y
_atom_site_fract_z
_atom_site_U_iso_or_equiv
_atom_site_adp_type
_atom_site_occupancy
C1     C     0.24281   0.07036   0.10051   0.00000  Uiso   1.00
C2     C     0.22222   0.14212   0.13001   0.00000  Uiso   1.00
C3     C     0.14165   0.12505   0.10566   0.00000  Uiso   1.00
N1     N     0.11369   0.04739   0.05936   0.00000  Uiso   1.00
C4     C     0.17638   0.01474   0.05551   0.00000  Uiso   1.00
C5     C     0.09483   0.17131   0.12907   0.00000  Uiso   1.00
C6     C     0.00232   0.13204   0.11434   0.00000  Uiso   1.00
C7     C     0.93797   0.12377   0.16308   0.00000  Uiso   1.00
C8     C     0.86399   0.09316   0.12490   0.00000  Uiso   1.00
C9     C     0.88315   0.08011   0.05496   0.00000  Uiso   1.00
N2     N     0.96803   0.10483   0.04859   0.00000  Uiso   1.00
C10    C     0.81987   0.04268   0.99727   0.00000  Uiso   1.00
C11    C     0.82131   0.97616   0.95022   0.00000  Uiso   1.00
C12    C     0.75623   0.92401   0.90314   0.00000  Uiso   1.00
C13    C     0.77788   0.85480   0.87133   0.00000  Uiso   1.00
C14    C     0.85746   0.86933   0.89696   0.00000  Uiso   1.00
N3     N     0.88381   0.94314   0.94606   0.00000  Uiso   1.00
C15    C     0.90449   0.82366   0.87273   0.00000  Uiso   1.00
C16    C     0.99451   0.85359   0.89292   0.00000  Uiso   1.00
C17    C     0.05807   0.85627   0.84660   0.00000  Uiso   1.00
C18    C     0.13215   0.88898   0.88413   0.00000  Uiso   1.00
C19    C     0.11313   0.90580   0.95312   0.00000  Uiso   1.00
N4     N     0.02848   0.88358   0.95840   0.00000  Uiso   1.00
C20    C     0.17694   0.94576   0.01017   0.00000  Uiso   1.00
H1     H     0.12240   0.23086   0.16762   0.00000  Uiso   1.00
H2     H     0.76401   0.05843   0.99957   0.00000  Uiso   1.00
H3     H     0.87945   0.77104   0.82969   0.00000  Uiso   1.00
H4     H     0.23299   0.93037   0.00803   0.00000  Uiso   1.00
H5     H     0.00188   0.10848   0.00092   0.00000  Uiso   1.00
H6     H     0.99498   0.88499   0.00482   0.00000  Uiso   1.00
C21    C     0.05639   0.83773   0.77435   0.00000  Uiso   1.00
C22    C     0.13337   0.85449   0.74033   0.00000  Uiso   1.00
C23    C     0.21001   0.88918   0.77846   0.00000  Uiso   1.00
C24    C     0.20946   0.90611   0.85175   0.00000  Uiso   1.00
C25    C     0.31690   0.06072   0.11865   0.00000  Uiso   1.00
C26    C     0.37170   0.12981   0.16638   0.00000  Uiso   1.00
C27    C     0.35245   0.20705   0.19349   0.00000  Uiso   1.00
C28    C     0.27627   0.21255   0.17652   0.00000  Uiso   1.00
C29    C     0.93712   0.13736   0.23686   0.00000  Uiso   1.00
C30    C     0.85986   0.12312   0.26904   0.00000  Uiso   1.00
C31    C     0.78479   0.09304   0.22945   0.00000  Uiso   1.00
C32    C     0.78653   0.07709   0.15629   0.00000  Uiso   1.00
C33    C     0.68186   0.93361   0.88582   0.00000  Uiso   1.00
C34    C     0.62754   0.86658   0.83682   0.00000  Uiso   1.00
C35    C     0.64802   0.79201   0.80719   0.00000  Uiso   1.00
C36    C     0.72456   0.78682   0.82322   0.00000  Uiso   1.00
H7     H     0.99767   0.81302   0.74408   0.00000  Uiso   1.00
H8     H     0.26825   0.93472   0.88203   0.00000  Uiso   1.00
H9     H     0.33161   0.00039   0.09792   0.00000  Uiso   1.00
H10    H     0.39477   0.25978   0.23153   0.00000  Uiso   1.00
H11    H     0.26055   0.27020   0.20004   0.00000  Uiso   1.00
H12    H     0.72866   0.05163   0.12489   0.00000  Uiso   1.00
H13    H     0.66608   0.99165   0.90873   0.00000  Uiso   1.00
H14    H     0.60608   0.74084   0.76829   0.00000  Uiso   1.00
H15    H     0.74072   0.73056   0.79830   0.00000  Uiso   1.00
H16    H     0.13314   0.84127   0.68333   0.00000  Uiso   1.00
H17    H     0.85801   0.13236   0.32662   0.00000  Uiso   1.00
O1     O     0.63414   0.05420   0.22694   0.00000  Uiso   1.00
C37    C     0.70337   0.07519   0.26563   0.00000  Uiso   1.00
O2     O     0.56172   0.84082   0.32034   0.00000  Uiso   1.00
O3     O     0.69911   0.07768   0.33664   0.00000  Uiso   1.00
O4     O     0.46889   0.90401   0.35722   0.00000  Uiso   1.00
C38    C     0.50186   0.83493   0.36644   0.00000  Uiso   1.00
Fe1    Fe    0.53164   0.03335   0.28619   0.00000  Uiso   1.00
O5     O     0.43798   0.01960   0.21621   0.00000  Uiso   1.00
O6     O     0.51409   0.20224   0.21316   0.00000  Uiso   1.00
C39    C     0.44638   0.11699   0.19424   0.00000  Uiso   1.00
O7     O     0.58277   0.16117   0.34449   0.00000  Uiso   1.00
O8     O     0.43810   0.08901   0.36884   0.00000  Uiso   1.00
C40    C     0.51704   0.16289   0.37888   0.00000  Uiso   1.00
C41    C     0.48875   0.62060   0.51612   0.00000  Uiso   1.00
C42    C     0.47718   0.66699   0.57650   0.00000  Uiso   1.00
C43    C     0.47396   0.61811   0.64650   0.00000  Uiso   1.00
C44    C     0.48109   0.52336   0.65732   0.00000  Uiso   1.00
C45    C     0.49189   0.47557   0.59875   0.00000  Uiso   1.00
C46    C     0.49644   0.52320   0.52781   0.00000  Uiso   1.00
C47    C     0.49764   0.37914   0.61255   0.00000  Uiso   1.00
C48    C     0.50772   0.32697   0.55579   0.00000  Uiso   1.00
C49    C     0.51491   0.37534   0.48495   0.00000  Uiso   1.00
C50    C     0.50853   0.47120   0.47110   0.00000  Uiso   1.00
C51    C     0.51118   0.22799   0.56776   0.00000  Uiso   1.00
C52    C     0.52380   0.18202   0.50857   0.00000  Uiso   1.00
C53    C     0.52968   0.22956   0.43845   0.00000  Uiso   1.00
C54    C     0.52494   0.32600   0.42646   0.00000  Uiso   1.00
C55    C     0.49518   0.67534   0.44634   0.00000  Uiso   1.00
C56    C     0.48571   0.76947   0.43752   0.00000  Uiso   1.00
C57    C     0.47151   0.81138   0.49780   0.00000  Uiso   1.00
C58    C     0.47012   0.76328   0.56690   0.00000  Uiso   1.00
H18    H     0.46379   0.65114   0.69417   0.00000  Uiso   1.00
H19    H     0.47742   0.48619   0.71258   0.00000  Uiso   1.00
H20    H     0.52077   0.10218   0.51591   0.00000  Uiso   1.00
H21    H     0.52518   0.35998   0.37084   0.00000  Uiso   1.00
H22    H     0.51257   0.50178   0.41454   0.00000  Uiso   1.00
H23    H     0.49501   0.34621   0.66871   0.00000  Uiso   1.00
H24    H     0.50825   0.64849   0.39715   0.00000  Uiso   1.00
H25    H     0.47081   0.88922   0.49217   0.00000  Uiso   1.00
O9     O     0.55995   0.97570   0.78822   0.00000  Uiso   1.00
O10    O     0.48361   0.79302   0.79286   0.00000  Uiso   1.00
C59    C     0.55183   0.87862   0.81063   0.00000  Uiso   1.00
O11    O     0.41737   0.83804   0.65720   0.00000  Uiso   1.00
O12    O     0.56231   0.89948   0.63991   0.00000  Uiso   1.00
C60    C     0.48277   0.83035   0.62673   0.00000  Uiso   1.00
O13    O     0.42299   0.14275   0.67839   0.00000  Uiso   1.00
O14    O     0.36267   0.93712   0.77800   0.00000  Uiso   1.00
C61    C     0.29160   0.91029   0.74082   0.00000  Uiso   1.00
O15    O     0.52848   0.09560   0.64974   0.00000  Uiso   1.00
C62    C     0.49165   0.16051   0.63856   0.00000  Uiso   1.00
O16    O     0.29415   0.90616   0.66989   0.00000  Uiso   1.00
Fe2    Fe    0.46638   0.96301   0.71828   0.00000  Uiso   1.00
C63    C     0.01085   0.15713   0.28371   0.00000  Uiso   1.00
C64    C     0.04289   0.08188   0.29429   0.00000  Uiso   1.00
C65    C     0.11022   0.09878   0.34060   0.00000  Uiso   1.00
C66    C     0.14495   0.19015   0.37724   0.00000  Uiso   1.00
C67    C     0.11187   0.26420   0.36801   0.00000  Uiso   1.00
C68    C     0.04450   0.24735   0.32174   0.00000  Uiso   1.00
H26    H     0.01514   0.00941   0.26640   0.00000  Uiso   1.00
H27    H     0.13556   0.04015   0.34838   0.00000  Uiso   1.00
H28    H     0.19768   0.20333   0.41359   0.00000  Uiso   1.00
H29    H     0.13863   0.33542   0.39720   0.00000  Uiso   1.00
H30    H     0.01868   0.30557   0.31484   0.00000  Uiso   1.00
