# generated using pymatgen
data_Zn2H19C31N3O8
_symmetry_space_group_name_H-M   'P 1'
_cell_length_a   8.52179000
_cell_length_b   10.66133000
_cell_length_c   14.40820300
_cell_angle_alpha   97.75208800
_cell_angle_beta   90.09397500
_cell_angle_gamma   90.00842800
_symmetry_Int_Tables_number   1
_chemical_formula_structural   Zn2H19C31N3O8
_chemical_formula_sum   'Zn2 H19 C31 N3 O8'
_cell_volume   1297.07218420
_cell_formula_units_Z   1
loop_
 _symmetry_equiv_pos_site_id
 _symmetry_equiv_pos_as_xyz
  1  'x, y, z'
loop_
 _atom_site_type_symbol
 _atom_site_label
 _atom_site_symmetry_multiplicity
 _atom_site_fract_x
 _atom_site_fract_y
 _atom_site_fract_z
 _atom_site_occupancy
  Zn  Zn1  1  0.50414600  0.47898400  0.10608600  1
  Zn  Zn2  1  0.50270300  0.49740900  0.90100900  1
  H  H1  1  0.00040100  0.58077000  0.06412500  1
  H  H2  1  0.99938500  0.39484800  0.94268800  1
  H  H3  1  0.25870600  0.89190800  0.99938200  1
  H  H4  1  0.25808900  0.08534100  0.00999100  1
  H  H5  1  0.61437000  0.09087200  0.98628900  1
  H  H6  1  0.47587900  0.28716900  0.41106200  1
  H  H7  1  0.47416900  0.30929700  0.58250100  1
  H  H8  1  0.52498500  0.68302400  0.42236100  1
  H  H9  1  0.61196500  0.79428700  0.59396500  1
  H  H10  1  0.39014500  0.83702300  0.48519200  1
  H  H11  1  0.39586300  0.94028000  0.59204100  1
  H  H12  1  0.18787100  0.70378400  0.55581200  1
  H  H13  1  0.12685700  0.86434400  0.54770200  1
  H  H14  1  0.05997200  0.80239700  0.70262800  1
  H  H15  1  0.20195800  0.92946500  0.71374000  1
  H  H16  1  0.26302200  0.64707600  0.71070400  1
  H  H17  1  0.27777400  0.76680600  0.81125000  1
  H  H18  1  0.55234500  0.73206700  0.75074900  1
  H  H19  1  0.48010400  0.88000800  0.73450400  1
  C  C1  1  0.00211600  0.67911000  0.05337700  1
  C  C2  1  0.14261700  0.73641400  0.03946400  1
  C  C3  1  0.14562800  0.85719900  0.01674800  1
  C  C4  1  0.86352200  0.73959000  0.03926800  1
  C  C5  1  0.86535500  0.86396100  0.02087500  1
  C  C6  1  0.00723900  0.92533000  0.01254200  1
  C  C7  1  0.00702100  0.05076500  0.99491300  1
  C  C8  1  0.14509900  0.11952300  0.99179200  1
  C  C9  1  0.14190900  0.24002500  0.96869100  1
  C  C10  1  0.72631000  0.04587300  0.99411900  1
  C  C11  1  0.86473100  0.11096500  0.98524400  1
  C  C12  1  0.86245000  0.23571400  0.96675800  1
  C  C13  1  0.00127000  0.29656800  0.95359000  1
  C  C14  1  0.28358700  0.65907000  0.02900500  1
  C  C15  1  0.28297900  0.31753300  0.97903800  1
  C  C16  1  0.72136300  0.31461000  0.97769400  1
  C  C17  1  0.72173100  0.66171000  0.02849600  1
  C  C18  1  0.47942700  0.39298200  0.54778800  1
  C  C19  1  0.48583700  0.51088100  0.60100300  1
  C  C20  1  0.49023500  0.62044600  0.55676900  1
  C  C21  1  0.50481600  0.60369900  0.45984500  1
  C  C22  1  0.49707900  0.48569500  0.40781300  1
  C  C23  1  0.48169400  0.38004200  0.45165400  1
  C  C24  1  0.49549900  0.51045300  0.70040100  1
  C  C25  1  0.50262300  0.47483700  0.30751600  1
  C  C26  1  0.49326600  0.75660600  0.60538000  1
  C  C27  1  0.37601600  0.84036300  0.56158300  1
  C  C28  1  0.20907600  0.80484900  0.58252800  1
  C  C29  1  0.18237400  0.82811800  0.68718100  1
  C  C30  1  0.29437800  0.74669900  0.73440600  1
  C  C31  1  0.46331100  0.77757800  0.71070800  1
  N  N1  1  0.72908900  0.92462700  0.01091500  1
  N  N2  1  0.50561800  0.46940300  0.22679600  1
  N  N3  1  0.50150300  0.50732500  0.78033300  1
  O  O1  1  0.33402100  0.62438600  0.94353700  1
  O  O2  1  0.33932700  0.61380500  0.10264700  1
  O  O3  1  0.33464300  0.35203900  0.06445500  1
  O  O4  1  0.33791500  0.36271200  0.90520500  1
  O  O5  1  0.67239600  0.35148600  0.06333900  1
  O  O6  1  0.66690600  0.36195500  0.90446200  1
  O  O7  1  0.67172600  0.62482200  0.94299100  1
  O  O8  1  0.66824400  0.61429600  0.10175800  1
