# Generated by REPEAT Assigner based on pymatgen
data_DB0-m3_o90_o22_f0_fsc.sym.5_sqe
_audit_creation_date              2022-05-24
_audit_creation_method            REPEAT_Assigner
_cell_length_a                    6.641037
_cell_length_b                    9.018369
_cell_length_c                    15.883283
_cell_angle_alpha                 96.194658
_cell_angle_beta                  81.380380
_cell_angle_gamma                 89.930091
_cell_volume                      934.888207
_symmetry_space_group_name_H-M    P1
_symmetry_Int_Tables_number       1
loop_
    _symmetry_equiv_pos_site_id
    _symmetry_equiv_pos_as_xyz
    1  x,y,z
loop_
    _atom_site_type_symbol
    _atom_site_label
    _atom_site_fract_x
    _atom_site_fract_y
    _atom_site_fract_z
    _atom_type_partial_charge
    C   C1   0.322600  0.022634  0.698295  -0.157865
    C   C2   0.193095  0.012834  0.773814  0.192525
    H   H1   0.033829  0.992967  0.772161  0.000902
    C   C3   0.264770  0.026332  0.851068  -0.494870
    C   C4   0.468074  0.051891  0.853276  0.142282
    H   H2   0.525527  0.063921  0.913785  -0.000698
    C   C5   0.599424  0.057319  0.777781  -0.162621
    H   H3   0.759352  0.073610  0.779614  0.115120
    C   C6   0.529247  0.038794  0.699809  0.002429
    N   N1   0.193776  0.024378  0.005603  -0.254169
    N   N2   0.066659  0.010531  0.076696  -0.290914
    C   C7   0.868463  0.984395  0.073275  0.754760
    N   N3   0.799484  0.972627  0.997476  -0.248444
    N   N4   0.926598  0.986474  0.926385  -0.295808
    C   C8   0.124791  0.012614  0.929804  0.771826
    C   C9   0.525151  0.945119  0.149721  0.114865
    H   H4   0.467822  0.933067  0.089183  0.004810
    C   C10  0.393672  0.939725  0.225179  -0.153948
    H   H5   0.233770  0.923428  0.223285  0.128207
    C   C11  0.463674  0.958306  0.303185  -0.029542
    C   C12  0.670329  0.974368  0.304768  -0.117021
    C   C13  0.799960  0.984174  0.229280  0.159764
    H   H6   0.959206  0.004033  0.230990  -0.007017
    C   C14  0.728425  0.970683  0.151994  -0.456644
    O   O1   0.756349  0.889905  0.593718  -0.639325
    O   O2   0.756222  0.145270  0.592772  -0.648731
    C   C15  0.679815  0.023578  0.621934  0.742986
    O   O3   0.174506  0.139878  0.594390  -0.643326
    O   O4   0.175876  0.883062  0.588984  -0.635069
    C   C16  0.232013  0.014524  0.619810  0.706864
    O   O5   0.237263  0.107524  0.409520  -0.651280
    O   O6   0.236686  0.851536  0.410142  -0.676454
    C   C17  0.312913  0.973495  0.381002  0.776157
    O   O7   0.818553  0.857333  0.408689  -0.677749
    O   O8   0.818255  0.113700  0.413721  -0.548762
    C   C18  0.760785  0.982515  0.383294  0.679668
    Zn  Zn1  0.000662  0.164173  0.502869  0.901559
    Zn  Zn2  0.992422  0.832950  0.500189  0.950151
    C   C19  0.132735  0.431250  0.560629  -0.118025
    H   H7   0.282640  0.372879  0.551560  0.057319
    H   H8   0.056826  0.428445  0.627552  0.019052
    C   C20  0.160354  0.592213  0.542000  0.007855
    H   H9   0.162320  0.664508  0.602931  0.042855
    H   H10  0.306095  0.602871  0.499069  -0.024867
    H   H11  0.248565  0.390365  0.406741  0.022774
    H   H12  0.142501  0.615409  0.372777  0.016094
    C   C21  0.080013  0.400804  0.417940  -0.088021
    C   C22  0.799808  0.419668  0.531547  0.512928
    N   N5   0.005157  0.358878  0.502717  0.181954
    H   H13  0.738509  0.377951  0.593310  -0.061630
    N   N6   0.993837  0.638330  0.500134  0.366965
    C   C23  0.020526  0.561791  0.414048  0.029161
    C   C24  0.805762  0.588182  0.545984  -0.361792
    H   H14  0.799206  0.624013  0.615377  0.064930
    H   H15  0.673963  0.636917  0.522550  0.071569
    H   H16  0.019776  0.325928  0.367889  0.047911
    H   H17  0.875895  0.567744  0.387565  -0.002653
    C   C25  0.658062  0.372390  0.467406  -0.516391
    H   H18  0.523041  0.447999  0.480127  0.170150
    H   H19  0.733058  0.378684  0.400929  0.101638
    H   H20  0.606091  0.257450  0.475541  0.105604
