# Generated by REPEAT Assigner based on pymatgen
data_DB0-m3_o115_o4_f0_fsc.sym.17_sqe
_audit_creation_date              2022-05-24
_audit_creation_method            REPEAT_Assigner
_cell_length_a                    9.270125
_cell_length_b                    16.523677
_cell_length_c                    16.653254
_cell_angle_alpha                 90.000000
_cell_angle_beta                  99.037893
_cell_angle_gamma                 90.000000
_cell_volume                      2519.217784
_symmetry_space_group_name_H-M    P1
_symmetry_Int_Tables_number       1
loop_
    _symmetry_equiv_pos_site_id
    _symmetry_equiv_pos_as_xyz
    1  x,y,z
loop_
    _atom_site_type_symbol
    _atom_site_label
    _atom_site_fract_x
    _atom_site_fract_y
    _atom_site_fract_z
    _atom_type_partial_charge
    H   H1   0.130636  0.914648  0.725867  0.153907
    H   H2   0.869364  0.914648  0.274133  0.153912
    C   C1   0.006662  0.252397  0.959487  -0.325143
    C   C2   0.993338  0.252397  0.040513  -0.325147
    C   C3   0.988970  0.172198  0.063496  0.506665
    C   C4   0.011030  0.172198  0.936504  0.506662
    N   N1   0.000000  0.123294  0.000000  -0.616363
    C   C5   0.971182  0.147343  0.137814  -0.288294
    C   C6   0.028818  0.147343  0.862186  -0.288292
    C   C7   0.956748  0.061435  0.160238  0.209976
    C   C8   0.043251  0.061435  0.839762  0.209968
    C   C9   0.902213  0.036579  0.228791  -0.212668
    C   C10  0.097787  0.036579  0.771209  -0.212656
    C   C11  0.906698  0.953412  0.229308  -0.254914
    C   C12  0.093301  0.953413  0.770692  -0.254913
    C   C13  0.964598  0.930245  0.161456  0.248193
    C   C14  0.035402  0.930245  0.838544  0.248193
    N   N2   0.997239  0.996261  0.120091  -0.188060
    N   N3   0.002761  0.996261  0.879909  -0.188056
    C   C15  0.981895  0.844730  0.139319  -0.314244
    C   C16  0.018104  0.844730  0.860681  -0.314247
    C   C17  0.993300  0.819632  0.064086  0.454691
    C   C18  0.006700  0.819632  0.935914  0.454692
    C   C19  0.997144  0.739442  0.040931  -0.274478
    C   C20  0.002856  0.739442  0.959069  -0.274475
    N   N4   0.000000  0.868575  0.000000  -0.583680
    H   H3   0.014721  0.305972  0.923219  0.173575
    H   H4   0.985279  0.305972  0.076781  0.173576
    H   H5   0.862490  0.073520  0.274098  0.144932
    H   H6   0.137510  0.073520  0.725902  0.144930
    H   H7   0.995867  0.685601  0.077580  0.144363
    H   H8   0.004133  0.685601  0.922420  0.144361
    H   H9   0.053210  0.996647  0.070792  0.227278
    H   H10  0.946790  0.996647  0.929208  0.227280
    C   C21  0.917566  0.781125  0.730894  -0.171861
    C   C22  0.082434  0.781125  0.269106  -0.171868
    H   H11  0.827083  0.823056  0.725867  0.112204
    H   H12  0.172917  0.823056  0.274133  0.112205
    C   C23  0.921638  0.723130  0.672081  -0.093975
    C   C24  0.078362  0.723130  0.327919  -0.093970
    C   C25  0.036216  0.668743  0.677463  -0.132118
    C   C26  0.963784  0.668743  0.322537  -0.132123
    C   C27  0.149099  0.673042  0.743691  0.021723
    C   C28  0.850901  0.673041  0.256309  0.021727
    C   C29  0.142684  0.731574  0.802882  -0.226575
    C   C30  0.857316  0.731574  0.197118  -0.226581
    H   H13  0.227864  0.737193  0.854841  0.141779
    H   H14  0.772136  0.737193  0.145159  0.141781
    C   C31  0.026198  0.784279  0.797180  0.282588
    C   C32  0.973801  0.784279  0.202820  0.282592
    C   C33  0.159853  0.228768  0.770745  -0.110400
    C   C34  0.840147  0.228768  0.229255  -0.110389
    H   H15  0.260874  0.198873  0.795391  0.099920
    H   H16  0.739126  0.198873  0.204609  0.099919
    C   C35  0.158909  0.286809  0.710749  -0.198442
    C   C36  0.841091  0.286809  0.289251  -0.198457
    H   H17  0.259435  0.301288  0.688746  0.151613
    H   H18  0.740564  0.301288  0.311254  0.151616
    C   C37  0.029782  0.325079  0.678950  -0.005888
    C   C38  0.970218  0.325079  0.321050  -0.005871
    C   C39  0.903059  0.305859  0.709026  -0.111910
    C   C40  0.096941  0.305858  0.290974  -0.111928
    H   H19  0.800893  0.335641  0.686880  0.140567
    H   H20  0.199107  0.335641  0.313121  0.140567
    C   C41  0.904554  0.248288  0.768727  -0.198052
    C   C42  0.095446  0.248288  0.231273  -0.198031
    H   H21  0.804747  0.233578  0.791469  0.120268
    H   H22  0.195253  0.233578  0.208532  0.120264
    C   C43  0.032034  0.208817  0.799049  0.214268
    C   C44  0.967966  0.208817  0.200951  0.214257
    H   H23  0.166125  0.721068  0.378948  0.120890
    H   H24  0.833875  0.721068  0.621052  0.120890
    O   O1   0.898231  0.580623  0.581345  -0.642472
    O   O2   0.101769  0.580623  0.418656  -0.642479
    O   O3   0.148435  0.579733  0.590738  -0.570649
    O   O4   0.851565  0.579733  0.409262  -0.570647
    C   C45  0.028306  0.606205  0.614033  0.677968
    C   C46  0.971694  0.606205  0.385967  0.677973
    O   O5   0.144194  0.411999  0.590644  -0.613900
    O   O6   0.855806  0.411999  0.409356  -0.613898
    O   O7   0.893690  0.412118  0.582421  -0.640907
    O   O8   0.106310  0.412118  0.417579  -0.640906
    C   C47  0.023271  0.385610  0.613914  0.651702
    C   C48  0.976729  0.385610  0.386086  0.651696
    Zn  Zn1  0.161943  0.495737  0.504541  1.012376
    Zn  Zn2  0.838056  0.495737  0.495459  1.012361
    C   C49  0.569742  0.428229  0.496883  0.192281
    C   C50  0.430258  0.428229  0.503117  0.192299
    N   N5   0.648053  0.495769  0.493456  -0.142561
    N   N6   0.351947  0.495769  0.506544  -0.142571
    C   C51  0.574529  0.566098  0.497054  0.004757
    C   C52  0.425471  0.566098  0.502946  0.004759
    H   H25  0.631194  0.623133  0.495830  0.143087
    H   H26  0.368806  0.623133  0.504170  0.143087
    C   C53  0.416466  0.338885  0.503558  -0.114559
    C   C54  0.583533  0.338885  0.496442  -0.114531
    H   H27  0.394248  0.315354  0.562741  0.073446
    H   H28  0.605752  0.315354  0.437259  0.073439
    H   H29  0.347098  0.315074  0.448396  0.064179
    H   H30  0.652902  0.315074  0.551604  0.064171
    C   C55  0.273246  0.613612  0.754828  0.583166
    F   F1   0.363934  0.628017  0.697941  -0.236787
    F   F2   0.219466  0.535488  0.746695  -0.183355
    F   F3   0.354831  0.621064  0.831386  -0.220136
    C   C56  0.726753  0.613612  0.245172  0.583164
    F   F4   0.636066  0.628017  0.302060  -0.236788
    F   F5   0.780534  0.535488  0.253305  -0.183357
    F   F6   0.645169  0.621064  0.168614  -0.220131
