# generated using pymatgen
data_CuH10(C7O2)2
_symmetry_space_group_name_H-M   'P 1'
_cell_length_a   36.59834100
_cell_length_b   30.03938900
_cell_length_c   21.17444400
_cell_angle_alpha   90.00000000
_cell_angle_beta   55.22033600
_cell_angle_gamma   90.00000000
_symmetry_Int_Tables_number   1
_chemical_formula_structural   CuH10(C7O2)2
_chemical_formula_sum   'Cu12 H120 C168 O48'
_cell_volume   19120.25504394
_cell_formula_units_Z   12
loop_
 _symmetry_equiv_pos_site_id
 _symmetry_equiv_pos_as_xyz
  1  'x, y, z'
loop_
 _atom_site_type_symbol
 _atom_site_label
 _atom_site_symmetry_multiplicity
 _atom_site_fract_x
 _atom_site_fract_y
 _atom_site_fract_z
 _atom_site_occupancy
  Cu  Cu1  1  0.00000200  0.45219900  0.99999800  1
  Cu  Cu2  1  0.50000200  0.95219900  0.99999800  1
  Cu  Cu3  1  0.00000100  0.53923900  0.00000000  1
  Cu  Cu4  1  0.50000100  0.03923900  0.00000000  1
  Cu  Cu5  1  0.04337400  0.50350500  0.45905700  1
  Cu  Cu6  1  0.95663000  0.50350600  0.54093900  1
  Cu  Cu7  1  0.54337400  0.00350500  0.45905700  1
  Cu  Cu8  1  0.45663000  0.00350600  0.54093900  1
  Cu  Cu9  1  0.49952500  0.50353700  0.56206500  1
  Cu  Cu10  1  0.50047900  0.50353600  0.43793000  1
  Cu  Cu11  1  0.99952500  0.00353700  0.56206500  1
  Cu  Cu12  1  0.00047900  0.00353600  0.43793000  1
  H  H1  1  0.00093600  0.57610000  0.28306300  1
  H  H2  1  0.99911000  0.57609900  0.71689100  1
  H  H3  1  0.50093600  0.07610000  0.28306300  1
  H  H4  1  0.49911000  0.07609900  0.71689100  1
  H  H5  1  0.93652800  0.53346300  0.27062900  1
  H  H6  1  0.06349500  0.53342800  0.72934700  1
  H  H7  1  0.43652800  0.03346300  0.27062900  1
  H  H8  1  0.56349500  0.03342800  0.72934700  1
  H  H9  1  0.93838300  0.46033200  0.35284400  1
  H  H10  1  0.06159900  0.46029700  0.64717400  1
  H  H11  1  0.43838300  0.96033200  0.35284400  1
  H  H12  1  0.56159900  0.96029700  0.64717400  1
  H  H13  1  0.07025400  0.46419100  0.22286700  1
  H  H14  1  0.92973000  0.46422800  0.77715200  1
  H  H15  1  0.57025400  0.96419100  0.22286700  1
  H  H16  1  0.42973000  0.96422800  0.77715200  1
  H  H17  1  0.06800300  0.53731000  0.14156600  1
  H  H18  1  0.93202200  0.53734700  0.85841000  1
  H  H19  1  0.56800300  0.03731000  0.14156600  1
  H  H20  1  0.43202200  0.03734700  0.85841000  1
  H  H21  1  0.78267900  0.56451500  0.18445300  1
  H  H22  1  0.21732500  0.56451700  0.81554300  1
  H  H23  1  0.28267900  0.06451500  0.18445300  1
  H  H24  1  0.71732500  0.06451700  0.81554300  1
  H  H25  1  0.86341400  0.56106300  0.10409800  1
  H  H26  1  0.13658900  0.56106500  0.89589900  1
  H  H27  1  0.36341400  0.06106300  0.10409800  1
  H  H28  1  0.63658900  0.06106500  0.89589900  1
  H  H29  1  0.77748700  0.43407800  0.26881300  1
  H  H30  1  0.22251600  0.43408100  0.73118100  1
  H  H31  1  0.27748700  0.93407800  0.26881300  1
  H  H32  1  0.72251600  0.93408100  0.73118100  1
  H  H33  1  0.71880200  0.47222200  0.37880200  1
  H  H34  1  0.28120200  0.47222500  0.62119300  1
  H  H35  1  0.21880200  0.97222200  0.37880200  1
  H  H36  1  0.78120200  0.97222500  0.62119300  1
  H  H37  1  0.63828700  0.47359300  0.45764200  1
  H  H38  1  0.36171600  0.47359600  0.54235300  1
  H  H39  1  0.13828700  0.97359300  0.45764200  1
  H  H40  1  0.86171600  0.97359600  0.54235300  1
  H  H41  1  0.64006200  0.53228600  0.27171200  1
  H  H42  1  0.35994200  0.53228700  0.72828300  1
  H  H43  1  0.14006200  0.03228600  0.27171200  1
  H  H44  1  0.85994200  0.03228700  0.72828300  1
  H  H45  1  0.72065600  0.53019700  0.19267100  1
  H  H46  1  0.27934800  0.53020000  0.80732400  1
  H  H47  1  0.22065600  0.03019700  0.19267100  1
  H  H48  1  0.77934800  0.03020000  0.80732400  1
  H  H49  1  0.93721800  0.36447800  0.51423200  1
  H  H50  1  0.06278400  0.36447700  0.48576400  1
  H  H51  1  0.43721800  0.86447800  0.51423200  1
  H  H52  1  0.56278400  0.86447700  0.48576400  1
  H  H53  1  0.52484900  0.72326300  0.57009100  1
  H  H54  1  0.47515300  0.72326300  0.42990500  1
  H  H55  1  0.02484900  0.22326300  0.57009100  1
  H  H56  1  0.97515300  0.22326300  0.42990500  1
  H  H57  1  0.52534000  0.64270900  0.56948700  1
  H  H58  1  0.47466300  0.64270800  0.43050800  1
  H  H59  1  0.02534000  0.14270900  0.56948700  1
  H  H60  1  0.97466300  0.14270800  0.43050800  1
  H  H61  1  0.93452200  0.72321400  0.60387500  1
  H  H62  1  0.06548400  0.72321400  0.39612100  1
  H  H63  1  0.43452200  0.22321400  0.60387500  1
  H  H64  1  0.56548400  0.22321400  0.39612100  1
  H  H65  1  0.93457000  0.64261000  0.60437200  1
  H  H66  1  0.06543600  0.64261000  0.39562400  1
  H  H67  1  0.43457000  0.14261000  0.60437200  1
  H  H68  1  0.56543600  0.14261000  0.39562400  1
  H  H69  1  0.93704500  0.28390200  0.51510500  1
  H  H70  1  0.06295700  0.28390200  0.48489000  1
  H  H71  1  0.43704500  0.78390200  0.51510500  1
  H  H72  1  0.56295700  0.78390200  0.48489000  1
  H  H73  1  0.52948800  0.28375900  0.37908500  1
  H  H74  1  0.47051800  0.28376000  0.62091000  1
  H  H75  1  0.02948800  0.78375900  0.37908500  1
  H  H76  1  0.97051800  0.78376000  0.62091000  1
  H  H77  1  0.52986300  0.36436400  0.37879400  1
  H  H78  1  0.47014100  0.36436400  0.62120200  1
  H  H79  1  0.02986300  0.86436400  0.37879400  1
  H  H80  1  0.97014100  0.86436400  0.62120200  1
  H  H81  1  0.03892400  0.38580800  0.25993800  1
  H  H82  1  0.97875100  0.38467400  0.32292200  1
  H  H83  1  0.00831000  0.34359500  0.24778500  1
  H  H84  1  0.97528100  0.40061500  0.21085800  1
  H  H85  1  0.03546200  0.40283000  0.14867400  1
  H  H86  1  0.96101500  0.38582700  0.74013100  1
  H  H87  1  0.02118700  0.38466000  0.67714300  1
  H  H88  1  0.99160700  0.34359800  0.75230400  1
  H  H89  1  0.02467000  0.40060100  0.78919400  1
  H  H90  1  0.96449000  0.40285000  0.85138000  1
  H  H91  1  0.53892400  0.88580800  0.25993800  1
  H  H92  1  0.47875100  0.88467400  0.32292200  1
  H  H93  1  0.50831000  0.84359500  0.24778500  1
  H  H94  1  0.47528100  0.90061500  0.21085800  1
  H  H95  1  0.53546200  0.90283000  0.14867400  1
  H  H96  1  0.46101500  0.88582700  0.74013100  1
  H  H97  1  0.52118700  0.88466000  0.67714300  1
  H  H98  1  0.49160700  0.84359800  0.75230400  1
  H  H99  1  0.52467000  0.90060100  0.78919400  1
  H  H100  1  0.46449000  0.90285000  0.85138000  1
  H  H101  1  0.82808800  0.37156400  0.17440400  1
  H  H102  1  0.87994600  0.39086000  0.08989100  1
  H  H103  1  0.88031700  0.35238700  0.15527200  1
  H  H104  1  0.89744800  0.42639200  0.17951500  1
  H  H105  1  0.84354500  0.41038400  0.25845500  1
  H  H106  1  0.17191600  0.37156700  0.82558600  1
  H  H107  1  0.12006000  0.39086200  0.91010100  1
  H  H108  1  0.11968800  0.35239000  0.84471900  1
  H  H109  1  0.10255500  0.42639500  0.82048100  1
  H  H110  1  0.15645800  0.41038800  0.74153900  1
  H  H111  1  0.32808800  0.87156400  0.17440400  1
  H  H112  1  0.37994600  0.89086000  0.08989100  1
  H  H113  1  0.38031700  0.85238700  0.15527200  1
  H  H114  1  0.39744800  0.92639200  0.17951500  1
  H  H115  1  0.34354500  0.91038400  0.25845500  1
  H  H116  1  0.67191600  0.87156700  0.82558600  1
  H  H117  1  0.62006000  0.89086200  0.91010100  1
  H  H118  1  0.61968800  0.85239000  0.84471900  1
  H  H119  1  0.60255500  0.92639500  0.82048100  1
  H  H120  1  0.65645800  0.91038800  0.74153900  1
  C  C1  1  0.91567300  0.49539000  0.08894400  1
  C  C2  1  0.08433100  0.49539200  0.91105300  1
  C  C3  1  0.41567300  0.99539000  0.08894400  1
  C  C4  1  0.58433100  0.99539200  0.91105300  1
  C  C5  1  0.00313500  0.49570200  0.11640000  1
  C  C6  1  0.99686800  0.49570300  0.88359800  1
  C  C7  1  0.50313500  0.99570200  0.11640000  1
  C  C8  1  0.49686800  0.99570300  0.88359800  1
  C  C9  1  0.96500600  0.34718200  0.50793400  1
  C  C10  1  0.03499700  0.34718200  0.49206200  1
  C  C11  1  0.46500600  0.84718200  0.50793400  1
  C  C12  1  0.53499700  0.84718200  0.49206200  1
  C  C13  1  0.51432000  0.70586400  0.53838700  1
  C  C14  1  0.48568200  0.70586400  0.46160800  1
  C  C15  1  0.01432000  0.20586400  0.53838700  1
  C  C16  1  0.98568200  0.20586400  0.46160800  1
  C  C17  1  0.96511100  0.30129900  0.50761200  1
  C  C18  1  0.03489200  0.30129900  0.49238300  1
  C  C19  1  0.46511100  0.80129900  0.50761200  1
  C  C20  1  0.53489200  0.80129900  0.49238300  1
  C  C21  1  0.96678300  0.51777300  0.26084800  1
  C  C22  1  0.03323100  0.51775300  0.73913800  1
  C  C23  1  0.46678300  0.01777300  0.26084800  1
  C  C24  1  0.53323100  0.01775300  0.73913800  1
  C  C25  1  0.00196500  0.54100900  0.26586800  1
  C  C26  1  0.99806100  0.54100900  0.73410600  1
  C  C27  1  0.50196500  0.04100900  0.26586800  1
  C  C28  1  0.49806100  0.04100900  0.73410600  1
  C  C29  1  0.00307500  0.50107900  0.30784800  1
  C  C30  1  0.99692900  0.50107900  0.69214900  1
  C  C31  1  0.50307500  0.00107900  0.30784800  1
  C  C32  1  0.49692900  0.00107900  0.69214900  1
  C  C33  1  0.96775400  0.47785200  0.30424800  1
  C  C34  1  0.03223800  0.47783300  0.69576100  1
  C  C35  1  0.46775400  0.97785200  0.30424800  1
  C  C36  1  0.53223800  0.97783300  0.69576100  1
  C  C37  1  0.00445200  0.45725300  0.22895000  1
  C  C38  1  0.99552900  0.45725500  0.77107100  1
  C  C39  1  0.50445200  0.95725300  0.22895000  1
  C  C40  1  0.49552900  0.95725500  0.77107100  1
  C  C41  1  0.03983600  0.47995300  0.23343600  1
  C  C42  1  0.96015700  0.47997400  0.76657400  1
  C  C43  1  0.53983600  0.97995300  0.23343600  1
  C  C44  1  0.46015700  0.97997400  0.76657400  1
  C  C45  1  0.03861500  0.51984300  0.19023000  1
  C  C46  1  0.96140000  0.51986300  0.80975700  1
  C  C47  1  0.53861500  0.01984300  0.19023000  1
  C  C48  1  0.46140000  0.01986300  0.80975700  1
  C  C49  1  0.00339300  0.49658500  0.18626000  1
  C  C50  1  0.99661000  0.49658600  0.81373800  1
  C  C51  1  0.50339300  0.99658500  0.18626000  1
  C  C52  1  0.49661000  0.99658600  0.81373800  1
  C  C53  1  0.79899100  0.53474300  0.18522300  1
  C  C54  1  0.20101200  0.53474500  0.81477300  1
  C  C55  1  0.29899100  0.03474300  0.18522300  1
  C  C56  1  0.70101200  0.03474500  0.81477300  1
  C  C57  1  0.84479300  0.53302800  0.14047300  1
  C  C58  1  0.15521000  0.53303100  0.85952300  1
  C  C59  1  0.34479300  0.03302800  0.14047300  1
  C  C60  1  0.65521000  0.03303100  0.85952300  1
  C  C61  1  0.86686800  0.49564600  0.14017300  1
  C  C62  1  0.13313500  0.49564900  0.85982300  1
  C  C63  1  0.36686800  0.99564600  0.14017300  1
  C  C64  1  0.63313500  0.99564900  0.85982300  1
  C  C65  1  0.84225100  0.45990700  0.18771700  1
  C  C66  1  0.15775200  0.45991000  0.81227800  1
  C  C67  1  0.34225100  0.95990700  0.18771700  1
  C  C68  1  0.65775200  0.95991000  0.81227800  1
  C  C69  1  0.79632900  0.46213500  0.23281100  1
  C  C70  1  0.20367500  0.46213800  0.76718300  1
  C  C71  1  0.29632900  0.96213500  0.23281100  1
  C  C72  1  0.70367500  0.96213800  0.76718300  1
  C  C73  1  0.77443800  0.49923900  0.23164900  1
  C  C74  1  0.22556500  0.49924200  0.76834500  1
  C  C75  1  0.27443800  0.99923900  0.23164900  1
  C  C76  1  0.72556500  0.99924200  0.76834500  1
  C  C77  1  0.70179200  0.48504500  0.35446200  1
  C  C78  1  0.29821100  0.48504800  0.64553200  1
  C  C79  1  0.20179200  0.98504500  0.35446200  1
  C  C80  1  0.79821100  0.98504800  0.64553200  1
  C  C81  1  0.65593900  0.48623800  0.39957800  1
  C  C82  1  0.34406400  0.48624000  0.60041700  1
  C  C83  1  0.15593900  0.98623800  0.39957800  1
  C  C84  1  0.84406400  0.98624000  0.60041700  1
  C  C85  1  0.63319300  0.50300000  0.37049800  1
  C  C86  1  0.36681100  0.50300100  0.62949700  1
  C  C87  1  0.13319300  0.00300000  0.37049800  1
  C  C88  1  0.86681100  0.00300100  0.62949700  1
  C  C89  1  0.65694400  0.51900900  0.29598100  1
  C  C90  1  0.34305900  0.51901000  0.70401300  1
  C  C91  1  0.15694400  0.01900900  0.29598100  1
  C  C92  1  0.84305900  0.01901000  0.70401300  1
  C  C93  1  0.70282900  0.51821300  0.25116900  1
  C  C94  1  0.29717500  0.51821600  0.74882600  1
  C  C95  1  0.20282900  0.01821300  0.25116900  1
  C  C96  1  0.79717500  0.01821600  0.74882600  1
  C  C97  1  0.72557500  0.50096500  0.27991400  1
  C  C98  1  0.27442800  0.50096800  0.72008000  1
  C  C99  1  0.22557500  0.00096500  0.27991400  1
  C  C100  1  0.77442800  0.00096800  0.72008000  1
  C  C101  1  0.00000100  0.37040100  0.49999800  1
  C  C102  1  0.50000100  0.87040100  0.49999800  1
  C  C103  1  0.00000100  0.27803000  0.49999800  1
  C  C104  1  0.50000100  0.77803000  0.49999800  1
  C  C105  1  0.50000300  0.27793000  0.49999800  1
  C  C106  1  0.00000300  0.77793000  0.49999800  1
  C  C107  1  0.00000300  0.58783500  0.49999800  1
  C  C108  1  0.50000300  0.08783500  0.49999800  1
  C  C109  1  0.00235000  0.50311800  0.37845600  1
  C  C110  1  0.99765500  0.50311800  0.62154100  1
  C  C111  1  0.50235000  0.00311800  0.37845600  1
  C  C112  1  0.49765500  0.00311800  0.62154100  1
  C  C113  1  0.00000200  0.41919100  0.49999800  1
  C  C114  1  0.50000200  0.91919100  0.49999800  1
  C  C115  1  0.50000200  0.63674200  0.49999700  1
  C  C116  1  0.00000200  0.13674200  0.49999700  1
  C  C117  1  0.50000200  0.58792800  0.49999700  1
  C  C118  1  0.00000200  0.08792800  0.49999700  1
  C  C119  1  0.58436800  0.50346800  0.41807300  1
  C  C120  1  0.41563600  0.50346900  0.58192200  1
  C  C121  1  0.08436800  0.00346800  0.41807300  1
  C  C122  1  0.91563600  0.00346900  0.58192200  1
  C  C123  1  0.51419400  0.65997800  0.53861500  1
  C  C124  1  0.48580900  0.65997800  0.46138100  1
  C  C125  1  0.01419400  0.15997800  0.53861500  1
  C  C126  1  0.98580900  0.15997800  0.46138100  1
  C  C127  1  0.50000200  0.41914000  0.49999800  1
  C  C128  1  0.00000200  0.91914000  0.49999800  1
  C  C129  1  0.96365700  0.70578300  0.55836600  1
  C  C130  1  0.03634900  0.70578300  0.44163000  1
  C  C131  1  0.46365700  0.20578300  0.55836600  1
  C  C132  1  0.53634900  0.20578300  0.44163000  1
  C  C133  1  0.96354600  0.65989200  0.55819800  1
  C  C134  1  0.03646000  0.65989200  0.44179700  1
  C  C135  1  0.46354600  0.15989200  0.55819800  1
  C  C136  1  0.53646000  0.15989200  0.44179700  1
  C  C137  1  0.00000300  0.63665400  0.49999800  1
  C  C138  1  0.50000300  0.13665400  0.49999800  1
  C  C139  1  0.00000300  0.72904400  0.49999800  1
  C  C140  1  0.50000300  0.22904400  0.49999800  1
  C  C141  1  0.51686900  0.30119100  0.43241000  1
  C  C142  1  0.48313600  0.30119100  0.56758600  1
  C  C143  1  0.01686900  0.80119100  0.43241000  1
  C  C144  1  0.98313600  0.80119100  0.56758600  1
  C  C145  1  0.51667900  0.34708200  0.43243300  1
  C  C146  1  0.48332600  0.34708200  0.56756200  1
  C  C147  1  0.01667900  0.84708200  0.43243300  1
  C  C148  1  0.98332600  0.84708200  0.56756200  1
  C  C149  1  0.50000200  0.37032000  0.49999800  1
  C  C150  1  0.00000200  0.87032000  0.49999800  1
  C  C151  1  0.50000100  0.72913500  0.49999800  1
  C  C152  1  0.00000100  0.22913500  0.49999800  1
  C  C153  1  0.00578400  0.40870900  0.20790200  1
  C  C154  1  0.00809200  0.37888300  0.26335200  1
  C  C155  1  0.99417000  0.40871200  0.79214800  1
  C  C156  1  0.99184300  0.37888600  0.73671800  1
  C  C157  1  0.50578400  0.90870900  0.20790200  1
  C  C158  1  0.50809200  0.87888300  0.26335200  1
  C  C159  1  0.49417000  0.90871200  0.79214800  1
  C  C160  1  0.49184300  0.87888600  0.73671800  1
  C  C161  1  0.86315000  0.41982000  0.19683500  1
  C  C162  1  0.86286100  0.38117600  0.15103200  1
  C  C163  1  0.13685400  0.41982300  0.80315900  1
  C  C164  1  0.13714400  0.38117800  0.84896000  1
  C  C165  1  0.36315000  0.91982000  0.19683500  1
  C  C166  1  0.36286100  0.88117600  0.15103200  1
  C  C167  1  0.63685400  0.91982300  0.80315900  1
  C  C168  1  0.63714400  0.88117800  0.84896000  1
  O  O1  1  0.93610300  0.45896500  0.04927700  1
  O  O2  1  0.06390200  0.45896600  0.95071900  1
  O  O3  1  0.43610300  0.95896500  0.04927700  1
  O  O4  1  0.56390200  0.95896600  0.95071900  1
  O  O5  1  0.93698300  0.53247000  0.08257400  1
  O  O6  1  0.06301900  0.53247100  0.91742500  1
  O  O7  1  0.43698300  0.03247000  0.08257400  1
  O  O8  1  0.56301900  0.03247100  0.91742500  1
  O  O9  1  0.99030200  0.45893300  0.10026100  1
  O  O10  1  0.00970300  0.45893400  0.89973500  1
  O  O11  1  0.49030200  0.95893300  0.10026100  1
  O  O12  1  0.50970300  0.95893400  0.89973500  1
  O  O13  1  0.01440000  0.53250000  0.07524000  1
  O  O14  1  0.98560300  0.53250000  0.92475900  1
  O  O15  1  0.51440000  0.03250000  0.07524000  1
  O  O16  1  0.48560300  0.03250000  0.92475900  1
  O  O17  1  0.03692100  0.56690700  0.44705400  1
  O  O18  1  0.96308400  0.56690700  0.55294200  1
  O  O19  1  0.53692100  0.06690700  0.44705400  1
  O  O20  1  0.46308400  0.06690700  0.55294200  1
  O  O21  1  0.03842500  0.49069000  0.37378300  1
  O  O22  1  0.96157900  0.49069000  0.62621400  1
  O  O23  1  0.53842500  0.99069000  0.37378300  1
  O  O24  1  0.46157900  0.99069000  0.62621400  1
  O  O25  1  0.96526100  0.51622100  0.44280200  1
  O  O26  1  0.03474400  0.51622000  0.55719500  1
  O  O27  1  0.46526100  0.01622100  0.44280200  1
  O  O28  1  0.53474400  0.01622000  0.55719500  1
  O  O29  1  0.03616000  0.44010800  0.48397300  1
  O  O30  1  0.96384400  0.44010900  0.51602300  1
  O  O31  1  0.53616000  0.94010800  0.48397300  1
  O  O32  1  0.46384400  0.94010900  0.51602300  1
  O  O33  1  0.51207800  0.56699300  0.54024900  1
  O  O34  1  0.48792500  0.56699300  0.45974500  1
  O  O35  1  0.01207800  0.06699300  0.54024900  1
  O  O36  1  0.98792500  0.06699300  0.45974500  1
  O  O37  1  0.56301300  0.49105600  0.49078900  1
  O  O38  1  0.43699000  0.49105600  0.50920600  1
  O  O39  1  0.06301300  0.99105600  0.49078900  1
  O  O40  1  0.93699000  0.99105600  0.50920600  1
  O  O41  1  0.56382800  0.51600000  0.38606100  1
  O  O42  1  0.43617500  0.51600100  0.61393300  1
  O  O43  1  0.06382800  0.01600000  0.38606100  1
  O  O44  1  0.93617500  0.01600100  0.61393300  1
  O  O45  1  0.48711700  0.44007900  0.56446600  1
  O  O46  1  0.51288600  0.44007900  0.43553000  1
  O  O47  1  0.98711700  0.94007900  0.56446600  1
  O  O48  1  0.01288600  0.94007900  0.43553000  1
