# Generated by REPEAT Assigner based on pymatgen
data_DB0-m3_o17_o93_f0_fsc.sym.7_sqe
_audit_creation_date              2022-05-24
_audit_creation_method            REPEAT_Assigner
_cell_length_a                    6.538510
_cell_length_b                    13.300064
_cell_length_c                    13.269566
_cell_angle_alpha                 100.665651
_cell_angle_beta                  100.539983
_cell_angle_gamma                 89.926932
_cell_volume                      1114.252259
_symmetry_space_group_name_H-M    P1
_symmetry_Int_Tables_number       1
loop_
    _symmetry_equiv_pos_site_id
    _symmetry_equiv_pos_as_xyz
    1  x,y,z
loop_
    _atom_site_type_symbol
    _atom_site_label
    _atom_site_fract_x
    _atom_site_fract_y
    _atom_site_fract_z
    _atom_type_partial_charge
    C   C1   0.429532  0.066504  0.841203  -0.163295
    C   C2   0.570466  0.933496  0.158797  -0.163356
    H   H1   0.269974  0.083740  0.846910  0.113905
    H   H2   0.730025  0.916260  0.153090  0.113938
    C   C3   0.572267  0.059339  0.930264  -0.156517
    C   C4   0.427732  0.940661  0.069736  -0.156468
    H   H3   0.525569  0.074275  0.005547  0.106584
    H   H4   0.474429  0.925725  0.994453  0.106542
    C   C5   0.771774  0.029194  0.922518  0.381385
    C   C6   0.228225  0.970806  0.077482  0.381367
    C   C7   0.830197  0.011960  0.826700  -0.270227
    C   C8   0.169802  0.988040  0.173300  -0.270257
    H   H5   0.988183  0.991530  0.820713  0.171802
    H   H6   0.011816  0.008470  0.179287  0.171823
    C   C9   0.690003  0.022165  0.738359  -0.100293
    C   C10  0.309996  0.977835  0.261641  -0.100395
    C   C11  0.487233  0.046781  0.744458  -0.075847
    C   C12  0.512766  0.953219  0.255542  -0.075693
    N   N1   0.915832  0.015526  0.011662  -0.190846
    N   N2   0.084166  0.984474  0.988338  -0.190803
    O   O1   0.840279  0.924058  0.605736  -0.728570
    O   O2   0.159719  0.075942  0.394264  -0.728864
    O   O3   0.804761  0.097360  0.609686  -0.722520
    O   O4   0.195238  0.902640  0.390314  -0.722646
    C   C13  0.767911  0.012645  0.641625  0.842930
    C   C14  0.232088  0.987355  0.358375  0.843303
    O   O5   0.232768  0.111967  0.620240  -0.745978
    O   O6   0.767231  0.888033  0.379760  -0.745780
    O   O7   0.263724  0.937357  0.607604  -0.727836
    O   O8   0.736275  0.062643  0.392396  -0.727597
    C   C15  0.325702  0.031974  0.650232  0.902626
    C   C16  0.674297  0.968026  0.349768  0.902189
    Zn  Zn1  0.984695  0.112575  0.504976  1.058341
    Zn  Zn2  0.015303  0.887425  0.495024  1.058356
    C   C17  0.981621  0.686704  0.402206  -0.299935
    C   C18  0.018377  0.313296  0.597794  -0.299971
    N   N3   0.031583  0.755168  0.492124  0.182348
    N   N4   0.968416  0.244832  0.507876  0.182408
    C   C19  0.070346  0.724349  0.584789  -0.158598
    C   C20  0.929653  0.275651  0.415211  -0.158609
    C   C21  0.059626  0.621866  0.589175  0.284494
    C   C22  0.940372  0.378134  0.410825  0.284518
    C   C23  0.007782  0.551185  0.498299  -0.118648
    C   C24  0.992217  0.448815  0.501701  -0.118673
    C   C25  0.969817  0.583473  0.404121  0.246547
    C   C26  0.030181  0.416527  0.595879  0.246555
    C   C27  0.097073  0.590151  0.684009  -0.018506
    C   C28  0.902925  0.409849  0.315991  -0.018532
    C   C29  0.083084  0.487280  0.687369  -0.182559
    C   C30  0.916915  0.512720  0.312631  -0.182546
    H   H7   0.945747  0.712784  0.328680  0.221856
    H   H8   0.054252  0.287216  0.671320  0.221893
    H   H9   0.113399  0.462241  0.761536  0.111872
    H   H10  0.886599  0.537759  0.238464  0.111878
    Cl  Cl1  0.126555  0.815339  0.700559  0.154757
    Cl  Cl2  0.873444  0.184661  0.299441  0.154783
    Cl  Cl3  0.162370  0.680300  0.799982  -0.119316
    Cl  Cl4  0.837628  0.319700  0.200018  -0.119320
