# generated using pymatgen
data_Zn3H4C18(O3F2)4
_symmetry_space_group_name_H-M   'P 1'
_cell_length_a   28.46507400
_cell_length_b   18.60709700
_cell_length_c   18.60318200
_cell_angle_alpha   90.00000000
_cell_angle_beta   49.23224100
_cell_angle_gamma   90.00000000
_symmetry_Int_Tables_number   1
_chemical_formula_structural   Zn3H4C18(O3F2)4
_chemical_formula_sum   'Zn12 H16 C72 O48 F32'
_cell_volume   7462.46044278
_cell_formula_units_Z   4
loop_
 _symmetry_equiv_pos_site_id
 _symmetry_equiv_pos_as_xyz
  1  'x, y, z'
loop_
 _atom_site_type_symbol
 _atom_site_label
 _atom_site_symmetry_multiplicity
 _atom_site_fract_x
 _atom_site_fract_y
 _atom_site_fract_z
 _atom_site_occupancy
  Zn  Zn1  1  0.99985400  0.91860900  0.00048900  1
  Zn  Zn2  1  0.00014600  0.08139100  0.99951100  1
  Zn  Zn3  1  0.50009200  0.41862600  0.99907200  1
  Zn  Zn4  1  0.49990800  0.58137400  0.00092800  1
  Zn  Zn5  1  0.50067900  0.00027000  0.41791200  1
  Zn  Zn6  1  0.49932100  0.99973000  0.58208800  1
  Zn  Zn7  1  0.00074200  0.49953400  0.41787400  1
  Zn  Zn8  1  0.99925800  0.50046600  0.58212600  1
  Zn  Zn9  1  0.07029700  0.00031800  0.43005500  1
  Zn  Zn10  1  0.92970300  0.99968200  0.56994500  1
  Zn  Zn11  1  0.57029700  0.49980400  0.42999400  1
  Zn  Zn12  1  0.42970300  0.50019600  0.57000600  1
  H  H1  1  0.19760500  0.88451200  0.78719300  1
  H  H2  1  0.80239500  0.11548800  0.21280700  1
  H  H3  1  0.79859800  0.88310000  0.20818000  1
  H  H4  1  0.20140200  0.11690000  0.79182000  1
  H  H5  1  0.70110800  0.38524500  0.80254400  1
  H  H6  1  0.29889200  0.61475500  0.19745600  1
  H  H7  1  0.30229500  0.38420500  0.22406900  1
  H  H8  1  0.69770500  0.61579500  0.77593100  1
  H  H9  1  0.30286300  0.95401100  0.80153300  1
  H  H10  1  0.69713700  0.04598900  0.19846700  1
  H  H11  1  0.69952300  0.94924200  0.19860300  1
  H  H12  1  0.30047700  0.05075800  0.80139700  1
  H  H13  1  0.79974700  0.45869700  0.80542900  1
  H  H14  1  0.20025300  0.54130300  0.19457100  1
  H  H15  1  0.19647500  0.44469900  0.20318400  1
  H  H16  1  0.80352500  0.55530100  0.79681600  1
  C  C1  1  0.99879500  0.00086200  0.86062900  1
  C  C2  1  0.00120500  0.99913800  0.13937100  1
  C  C3  1  0.49886800  0.49984200  0.86054900  1
  C  C4  1  0.50113200  0.50015800  0.13945100  1
  C  C5  1  0.12151600  0.00115900  0.87711200  1
  C  C6  1  0.87848400  0.99884100  0.12288800  1
  C  C7  1  0.62151200  0.50160500  0.87692600  1
  C  C8  1  0.37848800  0.49839500  0.12307400  1
  C  C9  1  0.21446000  0.93425100  0.74401000  1
  C  C10  1  0.78554000  0.06574900  0.25599000  1
  C  C11  1  0.78493900  0.93125900  0.25315000  1
  C  C12  1  0.21506100  0.06874100  0.74685000  1
  C  C13  1  0.71474900  0.43021900  0.75314800  1
  C  C14  1  0.28525000  0.56978100  0.24685200  1
  C  C15  1  0.28523200  0.43619800  0.26243700  1
  C  C16  1  0.71476800  0.56380200  0.73756300  1
  C  C17  1  0.28467100  0.93270700  0.67496800  1
  C  C18  1  0.71532900  0.06729300  0.32503200  1
  C  C19  1  0.71482900  0.93321400  0.32701700  1
  C  C20  1  0.28517100  0.06678600  0.67298400  1
  C  C21  1  0.78484800  0.43163300  0.67862600  1
  C  C22  1  0.21515200  0.56836700  0.32137400  1
  C  C23  1  0.21502500  0.43459200  0.33089900  1
  C  C24  1  0.78497400  0.56540800  0.66910100  1
  C  C25  1  0.21488000  0.99862100  0.85992000  1
  C  C26  1  0.78512000  0.00137900  0.14008000  1
  C  C27  1  0.71493200  0.51027100  0.85909500  1
  C  C28  1  0.28506700  0.48972900  0.14090500  1
  C  C29  1  0.19091300  0.00067000  0.80716400  1
  C  C30  1  0.80908700  0.99933000  0.19283600  1
  C  C31  1  0.69091200  0.50144500  0.80687900  1
  C  C32  1  0.30908800  0.49855500  0.19312100  1
  C  C33  1  0.30895800  0.00008700  0.68788800  1
  C  C34  1  0.69104200  0.99991300  0.31211200  1
  C  C35  1  0.80896400  0.50106900  0.68766100  1
  C  C36  1  0.19103600  0.49893100  0.31233900  1
  C  C37  1  0.28513400  0.00108300  0.78898300  1
  C  C38  1  0.71486600  0.99891700  0.21101700  1
  C  C39  1  0.78513300  0.50641000  0.78856500  1
  C  C40  1  0.21486700  0.49359000  0.21143500  1
  C  C41  1  0.99843400  0.00029500  0.78389300  1
  C  C42  1  0.00156600  0.99970500  0.21610700  1
  C  C43  1  0.49856100  0.50077900  0.78376200  1
  C  C44  1  0.50143900  0.49922100  0.21623800  1
  C  C45  1  0.99828100  0.00002100  0.71929200  1
  C  C46  1  0.00171900  0.99997900  0.28070800  1
  C  C47  1  0.49841300  0.50107900  0.71915700  1
  C  C48  1  0.50158700  0.49892100  0.28084300  1
  C  C49  1  0.49999900  0.85948700  0.49820700  1
  C  C50  1  0.50000100  0.14051300  0.50179300  1
  C  C51  1  0.99970400  0.35947600  0.49956100  1
  C  C52  1  0.00029600  0.64052400  0.50043900  1
  C  C53  1  0.37844200  0.00000300  0.61872100  1
  C  C54  1  0.62155700  0.99999700  0.38127900  1
  C  C55  1  0.87844700  0.50066100  0.61855300  1
  C  C56  1  0.12155300  0.49933900  0.38144700  1
  C  C57  1  0.00073500  0.14049800  0.49953400  1
  C  C58  1  0.99926500  0.85950200  0.50046600  1
  C  C59  1  0.49907300  0.64049500  0.49982600  1
  C  C60  1  0.50092600  0.35950500  0.50017400  1
  C  C61  1  0.99824100  0.99987500  0.64223200  1
  C  C62  1  0.00175900  0.00012500  0.35776900  1
  C  C63  1  0.49833500  0.50099800  0.64213500  1
  C  C64  1  0.50166500  0.49900200  0.35786500  1
  C  C65  1  0.49977800  0.78236900  0.49851600  1
  C  C66  1  0.50022200  0.21763100  0.50148400  1
  C  C67  1  0.99990800  0.28236600  0.50001700  1
  C  C68  1  0.00009200  0.71763400  0.49998300  1
  C  C69  1  0.00022400  0.21761000  0.49997500  1
  C  C70  1  0.99977600  0.78239000  0.50002500  1
  C  C71  1  0.49949500  0.71761000  0.49900400  1
  C  C72  1  0.50050500  0.28239000  0.50099600  1
  O  O1  1  0.99748100  0.93906700  0.89585700  1
  O  O2  1  0.00251900  0.06093300  0.10414300  1
  O  O3  1  0.99926700  0.93684300  0.10846900  1
  O  O4  1  0.00073300  0.06315700  0.89153200  1
  O  O5  1  0.49765400  0.43734900  0.89423900  1
  O  O6  1  0.50234600  0.56265100  0.10576100  1
  O  O7  1  0.49946600  0.43856900  0.10683400  1
  O  O8  1  0.50053300  0.56143100  0.89316600  1
  O  O9  1  0.09211900  0.93939000  0.90894700  1
  O  O10  1  0.90788100  0.06061000  0.09105300  1
  O  O11  1  0.90721700  0.93666500  0.09576900  1
  O  O12  1  0.09278300  0.06333500  0.90423100  1
  O  O13  1  0.59227900  0.43970600  0.90419800  1
  O  O14  1  0.40772000  0.56029400  0.09580200  1
  O  O15  1  0.40738500  0.43637500  0.09109500  1
  O  O16  1  0.59261500  0.56362500  0.90890500  1
  O  O17  1  0.49903700  0.89283400  0.43707800  1
  O  O18  1  0.50096300  0.10716600  0.56292200  1
  O  O19  1  0.50092600  0.89292000  0.55935900  1
  O  O20  1  0.49907400  0.10708000  0.44064100  1
  O  O21  1  0.99881900  0.39224000  0.43806600  1
  O  O22  1  0.00118100  0.60776000  0.56193400  1
  O  O23  1  0.00064800  0.39349200  0.56038700  1
  O  O24  1  0.99935200  0.60650800  0.43961400  1
  O  O25  1  0.40786400  0.99865200  0.52757200  1
  O  O26  1  0.59213600  0.00134800  0.47242800  1
  O  O27  1  0.90790600  0.49818200  0.52742000  1
  O  O28  1  0.09209400  0.50181800  0.47258000  1
  O  O29  1  0.40727200  0.00146200  0.65207800  1
  O  O30  1  0.59272800  0.99853800  0.34792200  1
  O  O31  1  0.90723300  0.50251200  0.65197500  1
  O  O32  1  0.09276600  0.49748800  0.34802500  1
  O  O33  1  0.05454600  0.10763200  0.44399600  1
  O  O34  1  0.94545400  0.89236800  0.55600400  1
  O  O35  1  0.94735000  0.10662500  0.55441300  1
  O  O36  1  0.05265000  0.89337500  0.44558700  1
  O  O37  1  0.55250000  0.60670100  0.44504300  1
  O  O38  1  0.44750000  0.39329900  0.55495700  1
  O  O39  1  0.44530500  0.60754800  0.55555200  1
  O  O40  1  0.55469500  0.39245200  0.44444800  1
  O  O41  1  0.05181800  0.00183000  0.55530000  1
  O  O42  1  0.94818200  0.99817000  0.44470000  1
  O  O43  1  0.55189200  0.49890100  0.55518800  1
  O  O44  1  0.44810800  0.50109900  0.44481200  1
  O  O45  1  0.94467500  0.99791400  0.66241200  1
  O  O46  1  0.05532500  0.00208600  0.33758800  1
  O  O47  1  0.44474300  0.50265100  0.66237900  1
  O  O48  1  0.55525700  0.49734900  0.33762100  1
  F  F1  1  0.19389500  0.93445300  0.69417400  1
  F  F2  1  0.80610500  0.06554700  0.30582600  1
  F  F3  1  0.80886200  0.92496000  0.29792300  1
  F  F4  1  0.19113800  0.07504000  0.70207700  1
  F  F5  1  0.69059100  0.41764900  0.70957600  1
  F  F6  1  0.30940800  0.58235100  0.29042400  1
  F  F7  1  0.30531400  0.44305300  0.31260300  1
  F  F8  1  0.69468600  0.55694700  0.68739700  1
  F  F9  1  0.30613300  0.92814600  0.58364700  1
  F  F10  1  0.69386700  0.07185400  0.41635300  1
  F  F11  1  0.69686400  0.93323500  0.41629900  1
  F  F12  1  0.30313600  0.06676500  0.58370100  1
  F  F13  1  0.80244300  0.42608200  0.58980600  1
  F  F14  1  0.19755700  0.57391800  0.41019400  1
  F  F15  1  0.19311500  0.43541600  0.42262600  1
  F  F16  1  0.80688500  0.56458400  0.57737400  1
  F  F17  1  0.30425400  0.87252800  0.69259600  1
  F  F18  1  0.69574600  0.12747200  0.30740400  1
  F  F19  1  0.69120200  0.87239000  0.31790000  1
  F  F20  1  0.30879800  0.12761000  0.68210000  1
  F  F21  1  0.80854800  0.37346700  0.69212900  1
  F  F22  1  0.19145200  0.62653300  0.30787100  1
  F  F23  1  0.19566000  0.37173000  0.31761700  1
  F  F24  1  0.80434000  0.62827000  0.68238300  1
  F  F25  1  0.19556000  0.93622200  0.91277300  1
  F  F26  1  0.80444000  0.06377800  0.08722700  1
  F  F27  1  0.80756400  0.94308000  0.07963600  1
  F  F28  1  0.19243600  0.05692000  0.92036400  1
  F  F29  1  0.69164700  0.45620800  0.92560500  1
  F  F30  1  0.30835200  0.54379200  0.07439500  1
  F  F31  1  0.30343900  0.42410600  0.09496900  1
  F  F32  1  0.69656100  0.57589400  0.90503200  1
