# generated using pymatgen
data_CuH10C24Br2(NO3)2
_symmetry_space_group_name_H-M   'P 1'
_cell_length_a   23.30465900
_cell_length_b   10.82845300
_cell_length_c   9.43232900
_cell_angle_alpha   89.98650200
_cell_angle_beta   89.98880600
_cell_angle_gamma   90.01235800
_symmetry_Int_Tables_number   1
_chemical_formula_structural   CuH10C24Br2(NO3)2
_chemical_formula_sum   'Cu2 H20 C48 Br4 N4 O12'
_cell_volume   2380.28017018
_cell_formula_units_Z   2
loop_
 _symmetry_equiv_pos_site_id
 _symmetry_equiv_pos_as_xyz
  1  'x, y, z'
loop_
 _atom_site_type_symbol
 _atom_site_label
 _atom_site_symmetry_multiplicity
 _atom_site_fract_x
 _atom_site_fract_y
 _atom_site_fract_z
 _atom_site_occupancy
  Cu  Cu1  1  0.49926800  0.49792800  0.63413000  1
  Cu  Cu2  1  0.49788800  0.50289000  0.35493600  1
  H  H1  1  0.94382200  0.19783400  0.57959600  1
  H  H2  1  0.05197900  0.79452300  0.42706100  1
  H  H3  1  0.94861500  0.79600600  0.41904100  1
  H  H4  1  0.21633200  0.63049200  0.67126200  1
  H  H5  1  0.32090100  0.62906400  0.66478100  1
  H  H6  1  0.21201400  0.35645900  0.34715000  1
  H  H7  1  0.78231400  0.43688600  0.70592200  1
  H  H8  1  0.67820700  0.43601800  0.70532500  1
  H  H9  1  0.67877700  0.56438500  0.27581000  1
  H  H10  1  0.78332500  0.56328000  0.27748200  1
  H  H11  1  0.49154200  0.10976100  0.27335400  1
  H  H12  1  0.55431800  0.21340200  0.74126200  1
  H  H13  1  0.54643400  0.11394100  0.96876900  1
  H  H14  1  0.50171200  0.90938100  0.98848700  1
  H  H15  1  0.47096700  0.80116900  0.78028100  1
  H  H16  1  0.48654500  0.88699000  0.27938600  1
  H  H17  1  0.43524500  0.37126900  0.12747000  1
  H  H18  1  0.56043800  0.70166600  0.24209200  1
  H  H19  1  0.64593300  0.77944800  0.86610500  1
  H  H20  1  0.59135100  0.63493900  0.74389000  1
  C  C1  1  0.50347000  0.26544300  0.49197200  1
  C  C2  1  0.38940500  0.49443700  0.49885100  1
  C  C3  1  0.49418000  0.73604800  0.50271200  1
  C  C4  1  0.60787800  0.49986900  0.49083800  1
  C  C5  1  0.88051300  0.60318000  0.46615800  1
  C  C6  1  0.87899800  0.39268800  0.52311500  1
  C  C7  1  0.93831200  0.39020600  0.52788000  1
  C  C8  1  0.96898500  0.49599600  0.50137000  1
  C  C9  1  0.93989200  0.60338300  0.47002200  1
  C  C10  1  0.96703300  0.28226900  0.55864900  1
  C  C11  1  0.02608800  0.27888800  0.56337400  1
  C  C12  1  0.05765800  0.38634200  0.53675300  1
  C  C13  1  0.02831200  0.49443700  0.50600600  1
  C  C14  1  0.05844500  0.60163800  0.47940700  1
  C  C15  1  0.02928300  0.70949900  0.44833100  1
  C  C16  1  0.97026900  0.71043900  0.44370300  1
  C  C17  1  0.11752500  0.38943000  0.53944000  1
  C  C18  1  0.11764500  0.60037500  0.48235100  1
  C  C19  1  0.23825400  0.57020100  0.59770700  1
  C  C20  1  0.29744200  0.56829900  0.59477800  1
  C  C21  1  0.32636100  0.49191200  0.50139700  1
  C  C22  1  0.29501800  0.41466100  0.41279500  1
  C  C23  1  0.23591100  0.41659400  0.41703200  1
  C  C24  1  0.20725800  0.49430600  0.50865800  1
  C  C25  1  0.75968800  0.46403100  0.61084500  1
  C  C26  1  0.70058000  0.46431800  0.61038400  1
  C  C27  1  0.67082900  0.50009600  0.49035200  1
  C  C28  1  0.70099000  0.53613000  0.37098700  1
  C  C29  1  0.76022600  0.53630000  0.37195200  1
  C  C30  1  0.78980100  0.49985600  0.49176900  1
  C  C31  1  0.53406200  0.12390700  0.74510500  1
  C  C32  1  0.53142900  0.06666400  0.87490000  1
  C  C33  1  0.50728200  0.95178100  0.88565900  1
  C  C34  1  0.49183900  0.88883400  0.76503700  1
  C  C35  1  0.49984600  0.94091500  0.63138400  1
  C  C36  1  0.51340800  0.06564100  0.62385000  1
  C  C37  1  0.50696300  0.12922400  0.49586400  1
  C  C38  1  0.49649200  0.06292600  0.37379200  1
  C  C39  1  0.49209800  0.93599200  0.37815300  1
  C  C40  1  0.49345300  0.87300000  0.50596800  1
  C  C41  1  0.56533500  0.67747400  0.13387500  1
  C  C42  1  0.60500500  0.74703700  0.06302400  1
  C  C43  1  0.61385100  0.72686200  0.92278900  1
  C  C44  1  0.58079700  0.64218800  0.85246800  1
  C  C45  1  0.53814700  0.57290100  0.92022200  1
  C  C46  1  0.53339800  0.58530000  0.06704100  1
  C  C47  1  0.46415700  0.43123900  0.07042500  1
  C  C48  1  0.46357800  0.42921200  0.92366400  1
  Br  Br1  1  0.05840800  0.12045100  0.60608700  1
  Br  Br2  1  0.64819800  0.86979200  0.16090500  1
  Br  Br3  1  0.40601800  0.32846900  0.83768200  1
  Br  Br4  1  0.33018900  0.29615700  0.29040400  1
  N  N1  1  0.85105400  0.49850000  0.49283600  1
  N  N2  1  0.14601500  0.49512200  0.51137100  1
  N  N3  1  0.49778200  0.51027400  0.14225900  1
  N  N4  1  0.50198500  0.49601500  0.84704900  1
  O  O1  1  0.48667400  0.32124100  0.60882600  1
  O  O2  1  0.51213300  0.32535300  0.37097800  1
  O  O3  1  0.41668500  0.52505800  0.61669000  1
  O  O4  1  0.41586200  0.47161500  0.37778400  1
  O  O5  1  0.51147200  0.67553300  0.61521100  1
  O  O6  1  0.48314700  0.67906300  0.38244900  1
  O  O7  1  0.58138600  0.46972300  0.60836400  1
  O  O8  1  0.58022200  0.53204200  0.37554300  1
  O  O9  1  0.85190900  0.70838800  0.43948200  1
  O  O10  1  0.84895000  0.28859900  0.54582000  1
  O  O11  1  0.14810300  0.28853800  0.57256700  1
  O  O12  1  0.14728800  0.70354200  0.45214900  1
