# Generated by REPEAT Assigner based on pymatgen
data_DB0-m29_o89_o45_f0_pts.sym.45
_audit_creation_date              2022-05-24
_audit_creation_method            REPEAT_Assigner
_cell_length_a                    14.145422
_cell_length_b                    9.395611
_cell_length_c                    17.831834
_cell_angle_alpha                 89.206319
_cell_angle_beta                  90.968202
_cell_angle_gamma                 109.593222
_cell_volume                      2232.308636
_symmetry_space_group_name_H-M    P1
_symmetry_Int_Tables_number       1
loop_
    _symmetry_equiv_pos_site_id
    _symmetry_equiv_pos_as_xyz
    1  x,y,z
loop_
    _atom_site_type_symbol
    _atom_site_label
    _atom_site_fract_x
    _atom_site_fract_y
    _atom_site_fract_z
    _atom_type_partial_charge
    C   C1   0.835256  0.006839  0.098349  -0.173538
    C   C2   0.748133  0.014937  0.065281  0.054962
    C   C3   0.742163  0.027258  0.987786  -0.006081
    C   C4   0.824899  0.036845  0.945377  -0.181417
    C   C5   0.911618  0.027773  0.978944  0.159986
    C   C6   0.917889  0.014126  0.055833  0.097976
    C   C7   0.990463  0.026175  0.934977  -0.260419
    C   C8   0.076002  0.011378  0.967352  0.196536
    C   C9   0.083809  0.999413  0.044225  0.051290
    C   C10  0.005010  0.002530  0.089078  -0.095541
    C   C11  0.154348  0.011196  0.922237  -0.206080
    C   C12  0.243239  0.004753  0.953093  0.114650
    C   C13  0.252259  0.997175  0.030633  -0.056806
    C   C14  0.172379  0.991327  0.075353  -0.155527
    H   H1   0.835435  0.989198  0.157942  0.140644
    H   H2   0.819270  0.041561  0.884925  0.144750
    H   H3   0.984900  0.035647  0.874704  0.170956
    H   H4   0.145852  0.018697  0.862145  0.149972
    H   H5   0.184454  0.991198  0.135207  0.129272
    N   N1   0.020004  0.870518  0.207984  -0.172448
    C   C15  0.014089  0.894897  0.281685  -0.206666
    C   C16  0.004094  0.034443  0.291541  0.293394
    C   C17  0.004670  0.098045  0.221364  -0.349604
    C   C18  0.013472  0.992879  0.171033  0.197094
    H   H6   0.023872  0.772116  0.183899  0.301989
    H   H7   0.012937  0.813398  0.325354  0.165024
    H   H8   0.993509  0.203963  0.208079  0.175303
    O   O1   0.587878  0.046246  0.089674  -0.418636
    C   C19  0.664990  0.011170  0.114637  0.490817
    O   O2   0.493612  0.736667  0.160792  -0.440774
    O   O3   0.670921  0.982486  0.186435  -0.521920
    O   O4   0.484368  0.884371  0.257869  -0.442616
    C   C20  0.489913  0.756183  0.233282  0.455883
    Fe  Fe1  0.491820  0.023511  0.172028  1.389530
    O   O5   0.353678  0.935304  0.127225  -0.642487
    O   O6   0.426607  0.134459  0.050160  -0.478266
    C   C21  0.348505  0.017057  0.067912  0.668194
    O   O7   0.536991  0.234033  0.212802  -0.626051
    O   O8   0.440146  0.117305  0.311219  -0.521737
    C   C22  0.495467  0.241243  0.277306  0.611437
    O   O9   0.457859  0.791147  0.803861  -0.584175
    O   O10  0.560006  0.910402  0.708510  -0.509844
    C   C23  0.502732  0.785587  0.740632  0.582061
    O   O11  0.639520  0.089566  0.891202  -0.607999
    O   O12  0.568418  0.886497  0.966326  -0.488324
    C   C24  0.646066  0.005022  0.949093  0.622472
    O   O13  0.317347  0.035284  0.830716  -0.503252
    O   O14  0.510268  0.141147  0.759655  -0.452880
    C   C25  0.501657  0.267449  0.784101  0.485530
    O   O15  0.404462  0.976742  0.926936  -0.411385
    C   C26  0.325129  0.007159  0.902403  0.445865
    O   O16  0.494041  0.284718  0.856403  -0.442589
    Fe  Fe2  0.501895  0.001214  0.845280  1.380202
    C   C27  0.499843  0.388386  0.731643  0.171815
    C   C28  0.503698  0.370270  0.655062  -0.344262
    H   H9   0.505798  0.265103  0.632658  0.168479
    C   C29  0.504314  0.485936  0.606053  0.409793
    C   C30  0.504258  0.622828  0.634257  -0.217505
    H   H10  0.507572  0.718078  0.598446  0.115104
    C   C31  0.498204  0.639721  0.710487  0.093965
    C   C32  0.494429  0.522263  0.758928  -0.245732
    N   N2   0.504945  0.461015  0.528002  -0.176966
    N   N3   0.499083  0.569418  0.489583  -0.191441
    C   C33  0.495439  0.657430  0.362432  -0.364493
    H   H11  0.492782  0.762296  0.384826  0.168452
    C   C34  0.495382  0.637205  0.285766  0.205555
    C   C35  0.500608  0.503192  0.258414  -0.267158
    C   C36  0.501086  0.387947  0.307054  0.094964
    C   C37  0.499585  0.407315  0.383407  -0.199013
    H   H12  0.499573  0.313707  0.419321  0.091661
    C   C38  0.498670  0.543848  0.411525  0.419092
    H   H13  0.491995  0.538585  0.818619  0.174720
    H   H14  0.499672  0.484966  0.198684  0.172481
    C   C39  0.983047  0.096032  0.363366  -0.352265
    C   C40  0.064715  0.107270  0.419083  0.335350
    C   C41  0.044670  0.023128  0.484692  -0.285696
    C   C42  0.120330  0.036441  0.536704  -0.037943
    C   C43  0.215900  0.134248  0.523491  -0.162078
    C   C44  0.235870  0.218500  0.458153  -0.038379
    C   C45  0.160475  0.204737  0.405871  -0.269283
    H   H15  0.910445  0.020013  0.385094  0.108951
    H   H16  0.977402  0.209680  0.353336  0.119474
    H   H17  0.969895  0.946620  0.495875  0.135194
    H   H18  0.104586  0.970545  0.588006  0.097707
    H   H19  0.275106  0.145143  0.564424  0.127699
    H   H20  0.310576  0.295865  0.448066  0.120329
    H   H21  0.176355  0.271507  0.354839  0.102700
