data_DB0-m3_o11_o23_f0_pcu.sym.62_repeat
_audit_creation_date              2024-02-23
_audit_creation_method            'Materials Studio'
_symmetry_space_group_name_H-M    'P1'
_symmetry_Int_Tables_number       1
_symmetry_cell_setting            triclinic
loop_
_symmetry_equiv_pos_as_xyz
  x,y,z
_cell_length_a                    15.9633
_cell_length_b                    11.1358
_cell_length_c                    9.9120
_cell_angle_alpha                 89.9974
_cell_angle_beta                  89.9750
_cell_angle_gamma                 89.9982
loop_
_atom_site_label
_atom_site_type_symbol
_atom_site_fract_x
_atom_site_fract_y
_atom_site_fract_z
_atom_site_U_iso_or_equiv
_atom_site_adp_type
_atom_site_occupancy
O1     O     0.49812   0.32431   0.60910   0.00000  Uiso   1.00
O2     O     0.50054   0.32323   0.37654   0.00000  Uiso   1.00
C1     C     0.49945   0.26771   0.49317   0.00000  Uiso   1.00
O3     O     0.37173   0.50153   0.59990   0.00000  Uiso   1.00
O4     O     0.37430   0.50034   0.36719   0.00000  Uiso   1.00
C2     C     0.33408   0.50028   0.48260   0.00000  Uiso   1.00
Zn1    Zn    0.49571   0.50365   0.64298   0.00000  Uiso   1.00
Zn2    Zn    0.49975   0.50153   0.33577   0.00000  Uiso   1.00
O5     O     0.49568   0.68185   0.60270   0.00000  Uiso   1.00
O6     O     0.49836   0.68120   0.36921   0.00000  Uiso   1.00
O7     O     0.62120   0.50515   0.61197   0.00000  Uiso   1.00
O8     O     0.62383   0.50365   0.37843   0.00000  Uiso   1.00
C3     C     0.49645   0.73738   0.48610   0.00000  Uiso   1.00
C4     C     0.66134   0.50482   0.49622   0.00000  Uiso   1.00
C5     C     0.04254   0.41069   0.60770   0.00000  Uiso   1.00
C6     C     0.04201   0.45547   0.35499   0.00000  Uiso   1.00
C7     C     0.94844   0.47755   0.35199   0.00000  Uiso   1.00
H1     H     0.93457   0.31070   0.52958   0.00000  Uiso   1.00
H2     H     0.07201   0.51133   0.27592   0.00000  Uiso   1.00
H3     H     0.05443   0.36064   0.33004   0.00000  Uiso   1.00
H4     H     0.91633   0.39851   0.30772   0.00000  Uiso   1.00
H5     H     0.93465   0.55771   0.28937   0.00000  Uiso   1.00
C8     C     0.75123   0.50396   0.49781   0.00000  Uiso   1.00
C9     C     0.07717   0.49050   0.49275   0.00000  Uiso   1.00
C10    C     0.94887   0.39578   0.58252   0.00000  Uiso   1.00
C11    C     0.91830   0.49835   0.49468   0.00000  Uiso   1.00
C12    C     0.95357   0.61661   0.54494   0.00000  Uiso   1.00
C13    C     0.04750   0.61769   0.52134   0.00000  Uiso   1.00
C14    C     0.82670   0.50208   0.49700   0.00000  Uiso   1.00
C15    C     0.16878   0.49309   0.48607   0.00000  Uiso   1.00
C16    C     0.24422   0.49694   0.48188   0.00000  Uiso   1.00
H6     H     0.07971   0.65433   0.61155   0.00000  Uiso   1.00
H7     H     0.06220   0.67615   0.43386   0.00000  Uiso   1.00
H8     H     0.94000   0.62682   0.65412   0.00000  Uiso   1.00
H9     H     0.04658   0.46533   0.70091   0.00000  Uiso   1.00
H10    H     0.91480   0.39810   0.68006   0.00000  Uiso   1.00
H11    H     0.92443   0.69232   0.48944   0.00000  Uiso   1.00
C17    C     0.49971   0.93721   0.38031   0.00000  Uiso   1.00
C18    C     0.49563   0.86884   0.49109   0.00000  Uiso   1.00
H12    H     0.50297   0.89436   0.28231   0.00000  Uiso   1.00
H13    H     0.49140   0.90737   0.59066   0.00000  Uiso   1.00
C19    C     0.49932   0.07032   0.38309   0.00000  Uiso   1.00
C20    C     0.50036   0.13612   0.49644   0.00000  Uiso   1.00
H14    H     0.49854   0.11556   0.28633   0.00000  Uiso   1.00
H15    H     0.50209   0.09577   0.59533   0.00000  Uiso   1.00
C21    C     0.54263   0.57363   0.91392   0.00000  Uiso   1.00
N1     N     0.49246   0.50768   0.84466   0.00000  Uiso   1.00
H16    H     0.58930   0.62726   0.86215   0.00000  Uiso   1.00
H17    H     0.44216   0.47122   0.89462   0.00000  Uiso   1.00
C22    C     0.53558   0.58363   0.06245   0.00000  Uiso   1.00
N2     N     0.50414   0.49869   0.13412   0.00000  Uiso   1.00
H18    H     0.56082   0.66254   0.11183   0.00000  Uiso   1.00
H19    H     0.49116   0.41945   0.08548   0.00000  Uiso   1.00
C23    C     0.08786   0.29018   0.64326   0.00000  Uiso   1.00
C24    C     0.17187   0.31431   0.71308   0.00000  Uiso   1.00
C25    C     0.03463   0.21939   0.74416   0.00000  Uiso   1.00
C26    C     0.10359   0.20880   0.52211   0.00000  Uiso   1.00
H20    H     0.17500   0.40656   0.75470   0.00000  Uiso   1.00
H21    H     0.22453   0.29990   0.64219   0.00000  Uiso   1.00
H22    H     0.18151   0.25131   0.79814   0.00000  Uiso   1.00
H23    H     0.01902   0.27676   0.83215   0.00000  Uiso   1.00
H24    H     0.06896   0.13897   0.78026   0.00000  Uiso   1.00
H25    H     0.97631   0.18503   0.69762   0.00000  Uiso   1.00
H26    H     0.14852   0.24956   0.45038   0.00000  Uiso   1.00
H27    H     0.04426   0.18720   0.46960   0.00000  Uiso   1.00
H28    H     0.13135   0.12323   0.55787   0.00000  Uiso   1.00
