# generated using pymatgen
data_ZnH18C21N3O4
_symmetry_space_group_name_H-M   'P 1'
_cell_length_a   17.78160600
_cell_length_b   16.59439600
_cell_length_c   11.91939800
_cell_angle_alpha   90.00000000
_cell_angle_beta   89.99709600
_cell_angle_gamma   90.00000000
_symmetry_Int_Tables_number   1
_chemical_formula_structural   ZnH18C21N3O4
_chemical_formula_sum   'Zn2 H36 C42 N6 O8'
_cell_volume   3517.11649717
_cell_formula_units_Z   2
loop_
 _symmetry_equiv_pos_site_id
 _symmetry_equiv_pos_as_xyz
  1  'x, y, z'
loop_
 _atom_site_type_symbol
 _atom_site_label
 _atom_site_symmetry_multiplicity
 _atom_site_fract_x
 _atom_site_fract_y
 _atom_site_fract_z
 _atom_site_occupancy
  Zn  Zn1  1  0.50074600  0.59170400  0.49888500  1
  Zn  Zn2  1  0.50074600  0.40829500  0.49888600  1
  H  H1  1  0.41469400  0.71838600  0.37871700  1
  H  H2  1  0.58370900  0.28161800  0.62379100  1
  H  H3  1  0.58679700  0.71838700  0.61905500  1
  H  H4  1  0.41778100  0.28162100  0.37398600  1
  H  H5  1  0.87780400  0.62825000  0.49870900  1
  H  H6  1  0.12368600  0.37175500  0.49860800  1
  H  H7  1  0.12368900  0.62825000  0.49906500  1
  H  H8  1  0.87780700  0.37175400  0.49916300  1
  H  H9  1  0.74066900  0.62914400  0.49872400  1
  H  H10  1  0.26082000  0.37085600  0.49857900  1
  H  H11  1  0.26082400  0.62914400  0.49904800  1
  H  H12  1  0.74067300  0.37085600  0.49919200  1
  H  H13  1  0.47677100  0.87403200  0.22370900  1
  H  H14  1  0.38247700  0.90648200  0.19101700  1
  H  H15  1  0.40108800  0.80135400  0.21929500  1
  H  H16  1  0.31969400  0.82876900  0.46391900  1
  H  H17  1  0.29312500  0.84134700  0.31842200  1
  H  H18  1  0.29995500  0.92783300  0.40976300  1
  H  H19  1  0.68590100  0.12620400  0.52682200  1
  H  H20  1  0.71046800  0.09363500  0.66645700  1
  H  H21  1  0.69089100  0.19876800  0.63971000  1
  H  H22  1  0.52925800  0.17101300  0.76781200  1
  H  H23  1  0.62750200  0.15853100  0.80338300  1
  H  H24  1  0.56620700  0.07197100  0.79556600  1
  H  H25  1  0.68179300  0.82877400  0.53387000  1
  H  H26  1  0.70835600  0.84135100  0.67937000  1
  H  H27  1  0.70152700  0.92783800  0.58803000  1
  H  H28  1  0.52470400  0.87402800  0.77406600  1
  H  H29  1  0.61899600  0.90648200  0.80676800  1
  H  H30  1  0.60039100  0.80135400  0.77848500  1
  H  H31  1  0.47222100  0.17101100  0.22996800  1
  H  H32  1  0.37397400  0.15854100  0.19440400  1
  H  H33  1  0.43526100  0.07197400  0.20221400  1
  H  H34  1  0.31558200  0.12621200  0.47096900  1
  H  H35  1  0.29100900  0.09364700  0.33133400  1
  H  H36  1  0.31059200  0.19877800  0.35808300  1
  C  C1  1  0.35346500  0.49999900  0.49888200  1
  C  C2  1  0.64802800  0.49999900  0.49888900  1
  C  C3  1  0.50074600  0.50000000  0.27960300  1
  C  C4  1  0.50074700  0.50000200  0.71816800  1
  C  C5  1  0.45203900  0.83554200  0.43022100  1
  C  C6  1  0.54816100  0.16445800  0.56953000  1
  C  C7  1  0.54944600  0.83554300  0.56755600  1
  C  C8  1  0.45332200  0.16446000  0.42825000  1
  C  C9  1  0.45287700  0.75215100  0.43128600  1
  C  C10  1  0.54740800  0.24784900  0.56833800  1
  C  C11  1  0.54861300  0.75215200  0.56648600  1
  C  C12  1  0.45408100  0.24785100  0.42944000  1
  C  C13  1  0.50074100  0.96368200  0.49889000  1
  C  C14  1  0.50074000  0.03632000  0.49889000  1
  C  C15  1  0.50074700  0.50000000  0.15921200  1
  C  C16  1  0.50074800  0.50000200  0.83856000  1
  C  C17  1  0.50074800  0.50000100  0.05811700  1
  C  C18  1  0.50074800  0.50000100  0.93965500  1
  C  C19  1  0.50074200  0.87717500  0.49888900  1
  C  C20  1  0.50074100  0.12282700  0.49889100  1
  C  C21  1  0.84737800  0.57185300  0.49880600  1
  C  C22  1  0.15411300  0.42815000  0.49871400  1
  C  C23  1  0.15411500  0.57185400  0.49896700  1
  C  C24  1  0.84738000  0.42815000  0.49905800  1
  C  C25  1  0.76982700  0.57201500  0.49881000  1
  C  C26  1  0.23166400  0.42798500  0.49870900  1
  C  C27  1  0.23166600  0.57201500  0.49896200  1
  C  C28  1  0.76982900  0.42798500  0.49906200  1
  C  C29  1  0.73055300  0.50000000  0.49891700  1
  C  C30  1  0.27094000  0.50000000  0.49885400  1
  C  C31  1  0.88616000  0.50000200  0.49892000  1
  C  C32  1  0.11533300  0.50000200  0.49885300  1
  C  C33  1  0.96686300  0.50000300  0.49889700  1
  C  C34  1  0.03463000  0.50000300  0.49887600  1
  C  C35  1  0.41635500  0.86402000  0.24213900  1
  C  C36  1  0.32472200  0.86828600  0.38930800  1
  C  C37  1  0.67522300  0.13610600  0.61745100  1
  C  C38  1  0.57915900  0.13157100  0.75817900  1
  C  C39  1  0.67676000  0.86829000  0.60848200  1
  C  C40  1  0.58512200  0.86401900  0.75564200  1
  C  C41  1  0.42231600  0.13157500  0.23960400  1
  C  C42  1  0.32625800  0.13611500  0.38034000  1
  N  N1  1  0.50074600  0.71218300  0.49888500  1
  N  N2  1  0.50074600  0.28781700  0.49888700  1
  N  N3  1  0.40263100  0.87881300  0.35945600  1
  N  N4  1  0.59701100  0.12118600  0.64115100  1
  N  N5  1  0.59885000  0.87881400  0.63832600  1
  N  N6  1  0.40446800  0.12119000  0.35663400  1
  O  O1  1  0.38869600  0.56953400  0.49890100  1
  O  O2  1  0.61279700  0.43046300  0.49889300  1
  O  O3  1  0.61279700  0.56953300  0.49887000  1
  O  O4  1  0.38869500  0.43046400  0.49887900  1
  O  O5  1  0.50073900  0.56959500  0.33172000  1
  O  O6  1  0.50074000  0.43040700  0.66605200  1
  O  O7  1  0.50075400  0.56959600  0.66605100  1
  O  O8  1  0.50075300  0.43040600  0.33172100  1
