# generated using pymatgen
data_ZnH11C21NO4
_symmetry_space_group_name_H-M   'P 1'
_cell_length_a   13.38601900
_cell_length_b   14.53495100
_cell_length_c   17.42424500
_cell_angle_alpha   90.00000000
_cell_angle_beta   86.56814600
_cell_angle_gamma   90.00000000
_symmetry_Int_Tables_number   1
_chemical_formula_structural   ZnH11C21NO4
_chemical_formula_sum   'Zn2 H22 C42 N2 O8'
_cell_volume   3384.07094731
_cell_formula_units_Z   2
loop_
 _symmetry_equiv_pos_site_id
 _symmetry_equiv_pos_as_xyz
  1  'x, y, z'
loop_
 _atom_site_type_symbol
 _atom_site_label
 _atom_site_symmetry_multiplicity
 _atom_site_fract_x
 _atom_site_fract_y
 _atom_site_fract_z
 _atom_site_occupancy
  Zn  Zn1  1  0.39570600  0.46445700  0.50679200  1
  Zn  Zn2  1  0.62307000  0.46429700  0.50647000  1
  H  H1  1  0.65070400  0.45855600  0.75078100  1
  H  H2  1  0.36815900  0.45655300  0.26175600  1
  H  H3  1  0.68715100  0.45966800  0.26197500  1
  H  H4  1  0.33447000  0.48523200  0.74996700  1
  H  H5  1  0.59585100  0.39375400  0.00014900  1
  H  H6  1  0.42480700  0.53296700  0.01371800  1
  H  H7  1  0.37892200  0.44656600  0.12333100  1
  H  H8  1  0.64237100  0.46932100  0.88876900  1
  H  H9  1  0.28751900  0.56164000  0.92931900  1
  H  H10  1  0.29243600  0.44226900  0.95652600  1
  H  H11  1  0.15436500  0.60649500  0.85753900  1
  H  H12  1  0.01037800  0.56763800  0.78344600  1
  H  H13  1  0.98148400  0.40748600  0.74512300  1
  H  H14  1  0.09678300  0.28560400  0.78185500  1
  H  H15  1  0.24127400  0.32376700  0.85625700  1
  H  H16  1  0.72986500  0.45273700  0.04977400  1
  H  H17  1  0.77287600  0.39818400  0.13360800  1
  H  H18  1  0.67390200  0.62865500  0.07639900  1
  H  H19  1  0.75563000  0.77394500  0.10753500  1
  H  H20  1  0.90741700  0.77284700  0.18035400  1
  H  H21  1  0.97754700  0.62600300  0.22203300  1
  H  H22  1  0.89642700  0.48059600  0.19153300  1
  C  C1  1  0.50962300  0.64417400  0.50469900  1
  C  C2  1  0.50915000  0.28458000  0.50855300  1
  C  C3  1  0.49801000  0.46694000  0.65721500  1
  C  C4  1  0.52078500  0.46184400  0.35607200  1
  C  C5  1  0.49197800  0.46947700  0.74160600  1
  C  C6  1  0.52715600  0.45908400  0.27172900  1
  C  C7  1  0.57814200  0.46461800  0.78099100  1
  C  C8  1  0.44123500  0.45650100  0.23185800  1
  C  C9  1  0.57315800  0.46936000  0.85993200  1
  C  C10  1  0.44744800  0.45193200  0.15279600  1
  C  C11  1  0.48196400  0.47778000  0.90108300  1
  C  C12  1  0.53939600  0.45061500  0.11201700  1
  C  C13  1  0.39434500  0.48154500  0.86204400  1
  C  C14  1  0.62642200  0.45427400  0.15204000  1
  C  C15  1  0.40044400  0.47854500  0.78207900  1
  C  C16  1  0.61925200  0.45791000  0.23148500  1
  C  C17  1  0.47903300  0.48697600  0.98548800  1
  C  C18  1  0.54265700  0.44113100  0.02775100  1
  C  C19  1  0.50967100  0.74289200  0.50477800  1
  C  C20  1  0.50909100  0.18586300  0.50846600  1
  C  C21  1  0.50959900  0.82579300  0.50528100  1
  C  C22  1  0.50914600  0.10296300  0.50795600  1
  C  C23  1  0.50943900  0.92293000  0.50618800  1
  C  C24  1  0.50929000  0.00582700  0.50704400  1
  C  C25  1  0.85891000  0.46426900  0.50645500  1
  C  C26  1  0.15985100  0.46445700  0.50695500  1
  C  C27  1  0.96437400  0.46432300  0.50668200  1
  C  C28  1  0.05437800  0.46438400  0.50684600  1
  C  C29  1  0.29514300  0.49038000  0.90705200  1
  C  C30  1  0.20788700  0.46763200  0.86108200  1
  C  C31  1  0.14235400  0.53582100  0.84113900  1
  C  C32  1  0.06128200  0.51414500  0.79937100  1
  C  C33  1  0.04504800  0.42436200  0.77789900  1
  C  C34  1  0.10971000  0.35606800  0.79844200  1
  C  C35  1  0.19083500  0.37757200  0.84018500  1
  C  C36  1  0.72938300  0.45720700  0.11302500  1
  C  C37  1  0.77932000  0.54519700  0.13231400  1
  C  C38  1  0.74035600  0.62773200  0.10872500  1
  C  C39  1  0.78630300  0.70940300  0.12603600  1
  C  C40  1  0.87141000  0.70879500  0.16680700  1
  C  C41  1  0.91071500  0.62646800  0.19015400  1
  C  C42  1  0.86492100  0.54469900  0.17286700  1
  N  N1  1  0.77248900  0.46424200  0.50630300  1
  N  N2  1  0.24628000  0.46450600  0.50699000  1
  O  O1  1  0.42326800  0.60151600  0.50519900  1
  O  O2  1  0.59550800  0.32723700  0.50798600  1
  O  O3  1  0.59584200  0.60138100  0.50503400  1
  O  O4  1  0.42292700  0.32737500  0.50829600  1
  O  O5  1  0.41454000  0.46638300  0.62129500  1
  O  O6  1  0.60425400  0.46246300  0.39197200  1
  O  O7  1  0.58687700  0.46605900  0.62103500  1
  O  O8  1  0.43187000  0.46258200  0.39221600  1
