# Generated by REPEAT Assigner based on pymatgen
data_DB0-m3_o1_o19_f0_nbo.sym.67_sqe
_audit_creation_date              2022-05-24
_audit_creation_method            REPEAT_Assigner
_cell_length_a                    21.657673
_cell_length_b                    21.657674
_cell_length_c                    23.833514
_cell_angle_alpha                 90.000000
_cell_angle_beta                  90.000000
_cell_angle_gamma                 90.000000
_cell_volume                      11179.225052
_symmetry_space_group_name_H-M    P1
_symmetry_Int_Tables_number       1
loop_
    _symmetry_equiv_pos_site_id
    _symmetry_equiv_pos_as_xyz
    1  x,y,z
loop_
    _atom_site_type_symbol
    _atom_site_label
    _atom_site_fract_x
    _atom_site_fract_y
    _atom_site_fract_z
    _atom_type_partial_charge
    O   O1    0.091787  0.551954  0.001962  -0.593011
    O   O2    0.552036  0.908114  0.999267  -0.590786
    O   O3    0.908106  0.448064  0.999713  -0.591523
    O   O4    0.448114  0.091785  0.001969  -0.592620
    O   O5    0.092134  0.445356  0.997986  -0.577727
    O   O6    0.554713  0.092147  0.998001  -0.577790
    O   O7    0.907756  0.554766  0.000728  -0.576460
    O   O8    0.445335  0.907757  0.000270  -0.575682
    O   O9    0.592267  0.054435  0.501735  -0.576184
    O   O10   0.052317  0.408224  0.499538  -0.591327
    O   O11   0.407620  0.945618  0.499464  -0.575078
    O   O12   0.947839  0.591656  0.502148  -0.593610
    O   O13   0.591655  0.947836  0.497770  -0.593714
    O   O14   0.054443  0.592263  0.498270  -0.575958
    O   O15   0.408228  0.052320  0.500464  -0.591703
    O   O16   0.945615  0.407620  0.500451  -0.574889
    C   C1    0.120659  0.498730  0.999995  0.484051
    C   C2    0.498764  0.879250  0.999734  0.481158
    C   C3    0.879245  0.501338  0.000237  0.482642
    C   C4    0.501338  0.120664  0.000068  0.483977
    C   C5    0.620659  0.000992  0.499678  0.483550
    C   C6    0.999112  0.379237  0.499958  0.481186
    C   C7    0.379239  0.999116  0.500002  0.481966
    C   C8    0.000998  0.620657  0.500284  0.483144
    O   O17   0.997977  0.554638  0.083899  -0.642005
    O   O18   0.552099  0.001987  0.083314  -0.652104
    O   O19   0.002244  0.447990  0.083529  -0.652459
    O   O20   0.445449  0.997719  0.083667  -0.641335
    O   O21   0.000428  0.445403  0.916291  -0.642913
    O   O22   0.554677  0.000693  0.916072  -0.642762
    O   O23   0.999157  0.552114  0.916655  -0.653604
    O   O24   0.447968  0.999424  0.916428  -0.653473
    O   O25   0.500805  0.054679  0.583658  -0.643338
    O   O26   0.052002  0.502092  0.583588  -0.651965
    O   O27   0.499299  0.947972  0.583304  -0.654111
    O   O28   0.945364  0.497590  0.583849  -0.641512
    O   O29   0.497590  0.945458  0.416065  -0.641522
    O   O30   0.054775  0.500801  0.416348  -0.643246
    O   O31   0.502097  0.052095  0.416416  -0.651909
    O   O32   0.948068  0.499299  0.416612  -0.654221
    C   C9    0.000223  0.501224  0.109748  0.733613
    C   C10   0.498862  0.999868  0.109523  0.732785
    C   C11   0.999717  0.498850  0.890436  0.738306
    C   C12   0.501232  0.000080  0.890211  0.739547
    C   C13   0.500074  0.001236  0.609520  0.739152
    C   C14   0.998743  0.499857  0.609751  0.734224
    C   C15   0.499859  0.998864  0.390207  0.734000
    C   C16   0.001358  0.500072  0.390441  0.740032
    Zn  Zn1   0.000023  0.570041  0.000089  1.249251
    Zn  Zn2   0.570055  0.999911  0.999904  1.248527
    Zn  Zn3   0.999901  0.430030  0.000125  1.249282
    Zn  Zn4   0.430043  0.000023  0.999863  1.248335
    Zn  Zn5   0.500079  0.070059  0.499826  1.248342
    Zn  Zn6   0.070060  0.500074  0.500194  1.247976
    Zn  Zn7   0.499838  0.930044  0.499868  1.249134
    Zn  Zn8   0.930045  0.499839  0.500031  1.249013
    C   C17   0.000475  0.500975  0.169929  -0.104089
    C   C18   0.499107  0.999726  0.169702  -0.103822
    C   C19   0.999513  0.499095  0.830257  -0.107553
    C   C20   0.500981  0.000270  0.830030  -0.109305
    C   C21   0.500263  0.000985  0.669701  -0.107943
    C   C22   0.998929  0.499714  0.669931  -0.105733
    C   C23   0.499719  0.999109  0.330028  -0.105949
    C   C24   0.001166  0.500261  0.330259  -0.109687
    C   C25   0.000702  0.500742  0.220479  0.008804
    C   C26   0.499318  0.999556  0.220251  0.009513
    C   C27   0.999328  0.499308  0.779708  0.011645
    C   C28   0.500747  0.000478  0.779481  0.012644
    C   C29   0.500472  0.000752  0.720250  0.011439
    C   C30   0.999107  0.499544  0.720479  0.010865
    C   C31   0.499551  0.999321  0.279480  0.011762
    C   C32   0.000965  0.500469  0.279710  0.014124
    C   C33   0.219982  0.457098  0.967579  -0.287182
    C   C34   0.456977  0.779945  0.967551  -0.290443
    C   C35   0.779980  0.543082  0.967909  -0.287961
    C   C36   0.542937  0.220002  0.967681  -0.286522
    C   C37   0.219702  0.540982  0.032441  -0.278571
    C   C38   0.459071  0.219690  0.032560  -0.280010
    C   C39   0.780233  0.458915  0.032459  -0.282119
    C   C40   0.541160  0.780278  0.032083  -0.282272
    C   C41   0.719721  0.958529  0.467404  -0.281442
    C   C42   0.957510  0.279972  0.467562  -0.287441
    C   C43   0.280227  0.041683  0.467857  -0.283130
    C   C44   0.042424  0.719957  0.467706  -0.283250
    C   C45   0.719957  0.042409  0.532270  -0.283744
    C   C46   0.958537  0.719716  0.532565  -0.280838
    C   C47   0.279978  0.957516  0.532407  -0.287380
    C   C48   0.041672  0.280228  0.532117  -0.283083
    H   H1    0.195153  0.424890  0.941296  0.132195
    H   H2    0.424679  0.804807  0.941383  0.131353
    H   H3    0.804882  0.575378  0.941771  0.130980
    H   H4    0.575135  0.195184  0.941379  0.132145
    H   H5    0.194656  0.573022  0.058723  0.130294
    H   H6    0.427033  0.194632  0.058835  0.130619
    H   H7    0.805321  0.426791  0.058625  0.129360
    H   H8    0.573296  0.805403  0.058207  0.129410
    H   H9    0.694697  0.926501  0.441091  0.131180
    H   H10   0.925207  0.304869  0.441428  0.130380
    H   H11   0.305316  0.073798  0.441683  0.129945
    H   H12   0.074644  0.695106  0.441452  0.130659
    H   H13   0.695106  0.074628  0.558524  0.130711
    H   H14   0.926506  0.694689  0.558872  0.131097
    H   H15   0.304879  0.925211  0.558537  0.130343
    H   H16   0.073787  0.305318  0.558291  0.129920
    C   C49   0.283562  0.458932  0.965515  -0.016179
    C   C50   0.458821  0.716363  0.965500  -0.013208
    C   C51   0.716404  0.541178  0.965721  -0.016136
    C   C52   0.541072  0.283581  0.965606  -0.016445
    C   C53   0.283293  0.539552  0.034530  -0.023661
    C   C54   0.460470  0.283283  0.034637  -0.023870
    C   C55   0.716643  0.460338  0.034535  -0.020577
    C   C56   0.539678  0.716692  0.034297  -0.019255
    C   C57   0.783323  0.959896  0.465432  -0.022669
    C   C58   0.959378  0.216400  0.465414  -0.015410
    C   C59   0.216632  0.040226  0.465749  -0.017285
    C   C60   0.040530  0.783525  0.465531  -0.019764
    C   C61   0.783525  0.040513  0.534450  -0.019457
    C   C62   0.959907  0.783317  0.534545  -0.022591
    C   C63   0.216407  0.959386  0.534563  -0.014877
    C   C64   0.040215  0.216632  0.534231  -0.017430
    C   C65   0.315596  0.499350  0.000020  0.071905
    C   C66   0.499341  0.684355  0.999935  0.067165
    C   C67   0.684350  0.500635  0.000103  0.070822
    C   C68   0.500657  0.315601  0.000127  0.073793
    C   C69   0.815593  0.000100  0.499965  0.072872
    C   C70   0.999876  0.184344  0.499832  0.066990
    C   C71   0.184346  0.999886  0.500150  0.066601
    C   C72   0.000115  0.815590  0.500016  0.072757
    O   O33   0.530415  0.586972  0.961207  -0.546904
    O   O34   0.587011  0.469515  0.961295  -0.546851
    O   O35   0.469554  0.412920  0.961293  -0.546594
    O   O36   0.412958  0.530374  0.961207  -0.547372
    O   O37   0.530999  0.413196  0.038905  -0.546206
    O   O38   0.586766  0.531050  0.038846  -0.546291
    O   O39   0.468911  0.586815  0.038779  -0.546709
    O   O40   0.413148  0.468961  0.038841  -0.546610
    O   O41   0.030730  0.086855  0.461162  -0.546890
    O   O42   0.086914  0.969199  0.461270  -0.548299
    O   O43   0.969261  0.913015  0.461224  -0.545964
    O   O44   0.913077  0.030667  0.461126  -0.547008
    O   O45   0.030676  0.913077  0.538857  -0.547378
    O   O46   0.086855  0.030734  0.538821  -0.547097
    O   O47   0.969196  0.086909  0.538713  -0.548260
    O   O48   0.913020  0.969252  0.538759  -0.545972
    C   C73   0.499563  0.616845  0.999977  0.521107
    C   C74   0.616840  0.500395  0.000076  0.519114
    C   C75   0.500390  0.383108  0.000112  0.518007
    C   C76   0.383103  0.499569  0.000021  0.520813
    C   C77   0.999959  0.116834  0.499917  0.523112
    C   C78   0.116837  0.999965  0.500066  0.523569
    C   C79   0.999985  0.883096  0.500048  0.519824
    C   C80   0.883099  0.999974  0.499935  0.519040
    C   C81   0.188016  0.498943  0.000001  0.271966
    C   C82   0.498983  0.811916  0.999771  0.277900
    C   C83   0.811911  0.501121  0.000215  0.276472
    C   C84   0.501122  0.188020  0.000121  0.272043
    C   C85   0.688014  0.000634  0.499763  0.272499
    C   C86   0.999465  0.311904  0.499864  0.276825
    C   C87   0.311907  0.999471  0.500103  0.276433
    C   C88   0.000643  0.688011  0.500205  0.272104
    Zn  Zn9   0.499990  0.499934  0.945903  1.113617
    Zn  Zn10  0.499951  0.500018  0.054191  1.113523
    Zn  Zn11  0.000007  0.999924  0.445848  1.113345
    Zn  Zn12  0.999926  0.000005  0.554135  1.113339
    C   C89   0.316001  0.416742  0.927623  0.269487
    C   C90   0.309376  0.353861  0.934209  -0.153707
    C   C91   0.341074  0.313717  0.899783  0.039302
    Cl  Cl1   0.335225  0.233935  0.910298  -0.102054
    C   C92   0.377554  0.336361  0.857151  -0.071388
    C   C93   0.381690  0.399125  0.848541  -0.098826
    C   C94   0.350693  0.439220  0.883494  -0.286913
    H   H17   0.279979  0.335970  0.966937  0.112776
    H   H18   0.402372  0.304906  0.830115  0.091425
    H   H19   0.409490  0.416950  0.814542  0.107999
    H   H20   0.353427  0.488260  0.875953  0.144817
    C   C95   0.416594  0.683906  0.927655  0.273120
    C   C96   0.353719  0.690615  0.934221  -0.156427
    C   C97   0.313545  0.658922  0.899820  0.041721
    Cl  Cl2   0.233769  0.664873  0.910320  -0.102391
    C   C98   0.336155  0.622372  0.857223  -0.073497
    C   C99   0.398915  0.618168  0.848616  -0.096064
    C   C100  0.439039  0.649156  0.883548  -0.291338
    H   H21   0.335854  0.720075  0.966914  0.112968
    H   H22   0.304676  0.597559  0.830206  0.091664
    H   H23   0.416713  0.590323  0.814637  0.107592
    H   H24   0.488078  0.646377  0.876000  0.145854
    C   C101  0.684001  0.583357  0.927785  0.272472
    C   C102  0.690757  0.646242  0.934243  -0.156344
    C   C103  0.659078  0.686370  0.899786  0.042458
    Cl  Cl3   0.665088  0.766164  0.910153  -0.102481
    C   C104  0.622493  0.663704  0.857239  -0.073893
    C   C105  0.618264  0.600931  0.848722  -0.096438
    C   C106  0.649245  0.560855  0.883704  -0.290050
    H   H25   0.720236  0.664155  0.966899  0.112805
    H   H26   0.597686  0.695145  0.830182  0.091675
    H   H27   0.590406  0.583085  0.814772  0.107587
    H   H28   0.646450  0.511808  0.876217  0.145416
    C   C107  0.583207  0.316027  0.927666  0.270318
    C   C108  0.646098  0.309392  0.934168  -0.154582
    C   C109  0.686193  0.341112  0.899712  0.039943
    Cl  Cl4   0.765990  0.335262  0.910135  -0.101804
    C   C110  0.663489  0.377619  0.857125  -0.071789
    C   C111  0.600713  0.381745  0.848581  -0.097046
    C   C112  0.560669  0.350724  0.883565  -0.288748
    H   H29   0.664036  0.279970  0.966856  0.112632
    H   H30   0.694905  0.402457  0.830067  0.091315
    H   H31   0.582840  0.409555  0.814611  0.107457
    H   H32   0.511620  0.353447  0.876070  0.145163
    C   C113  0.315444  0.581924  0.072458  0.273321
    C   C114  0.308371  0.644765  0.065941  -0.156552
    C   C115  0.339815  0.685091  0.100384  0.041059
    Cl  Cl5   0.333404  0.764841  0.089943  -0.101741
    C   C116  0.376486  0.662654  0.142971  -0.072061
    C   C117  0.381054  0.599911  0.151528  -0.096548
    C   C118  0.350307  0.559642  0.116558  -0.288416
    H   H33   0.278822  0.662488  0.033251  0.112804
    H   H34   0.401108  0.694251  0.170018  0.090884
    H   H35   0.408995  0.582242  0.185498  0.107267
    H   H36   0.353376  0.510614  0.124062  0.144430
    C   C119  0.418059  0.315424  0.072535  0.274302
    C   C120  0.355225  0.308339  0.065972  -0.158270
    C   C121  0.314865  0.339757  0.100400  0.042580
    Cl  Cl6   0.235124  0.333323  0.089911  -0.102463
    C   C122  0.337258  0.376419  0.143013  -0.072794
    C   C123  0.399994  0.381015  0.151601  -0.097354
    C   C124  0.440300  0.350297  0.116646  -0.287825
    H   H37   0.337536  0.278801  0.033258  0.113428
    H   H38   0.305634  0.401019  0.170050  0.091098
    H   H39   0.417629  0.408958  0.185585  0.107736
    H   H40   0.489322  0.353391  0.124171  0.144281
    C   C125  0.684488  0.417908  0.072405  0.271633
    C   C126  0.691635  0.355078  0.065867  -0.153949
    C   C127  0.660234  0.314702  0.100293  0.040111
    Cl  Cl7   0.666738  0.234964  0.089825  -0.101921
    C   C128  0.623541  0.337078  0.142890  -0.072625
    C   C129  0.618903  0.399813  0.151471  -0.097329
    C   C130  0.649599  0.440133  0.116513  -0.287323
    H   H41   0.721212  0.337401  0.033176  0.112296
    H   H42   0.598958  0.305442  0.169928  0.091260
    H   H43   0.590946  0.417434  0.185451  0.107679
    H   H44   0.646482  0.489156  0.124042  0.144261
    C   C131  0.582077  0.684588  0.072239  0.270254
    C   C132  0.644914  0.691761  0.065772  -0.153393
    C   C133  0.685258  0.660372  0.100238  0.039503
    Cl  Cl8   0.765008  0.666910  0.089860  -0.101538
    C   C134  0.662842  0.623660  0.142805  -0.071787
    C   C135  0.600101  0.619015  0.151331  -0.097732
    C   C136  0.559814  0.649708  0.116339  -0.286912
    H   H45   0.662626  0.721343  0.033100  0.112221
    H   H46   0.694453  0.599080  0.169870  0.091012
    H   H47   0.582446  0.591058  0.185296  0.107588
    H   H48   0.510787  0.646590  0.123833  0.144447
    C   C137  0.815535  0.917492  0.427576  0.272886
    C   C138  0.808593  0.854650  0.434217  -0.157130
    C   C139  0.840084  0.814312  0.399819  0.042076
    Cl  Cl9   0.833789  0.734568  0.410359  -0.102708
    C   C140  0.876708  0.836728  0.357189  -0.073444
    C   C141  0.881181  0.899462  0.348539  -0.098010
    C   C142  0.850368  0.939745  0.383446  -0.286985
    H   H49   0.779116  0.836940  0.466967  0.113715
    H   H50   0.901372  0.805121  0.330184  0.091762
    H   H51   0.909094  0.917112  0.314543  0.107846
    H   H52   0.853369  0.988763  0.375875  0.144763
    C   C143  0.917143  0.184014  0.427529  0.271966
    C   C144  0.854275  0.190866  0.434021  -0.157049
    C   C145  0.814076  0.159249  0.399591  0.044888
    Cl  Cl10  0.734303  0.165342  0.410042  -0.103388
    C   C146  0.836660  0.122661  0.357010  -0.075300
    C   C147  0.899423  0.118331  0.348462  -0.096815
    C   C148  0.939571  0.149224  0.383441  -0.288495
    H   H53   0.836433  0.220388  0.466679  0.112946
    H   H54   0.805162  0.097914  0.329962  0.091799
    H   H55   0.917203  0.090456  0.314494  0.107890
    H   H56   0.988615  0.146350  0.375937  0.144376
    C   C149  0.184456  0.082604  0.427835  0.267848
    C   C150  0.191506  0.145451  0.434345  -0.153245
    C   C151  0.160044  0.185760  0.399896  0.040848
    Cl  Cl11  0.166466  0.265518  0.410285  -0.102441
    C   C152  0.123354  0.163306  0.357330  -0.074049
    C   C153  0.118817  0.100562  0.348775  -0.097101
    C   C154  0.149600  0.060310  0.383733  -0.285428
    H   H57   0.221041  0.163196  0.467036  0.112464
    H   H58   0.098711  0.194889  0.330286  0.092016
    H   H59   0.090876  0.082878  0.314810  0.107386
    H   H60   0.146563  0.011284  0.376217  0.144327
    C   C155  0.082687  0.815906  0.427569  0.271784
    C   C156  0.145569  0.809151  0.434031  -0.155128
    C   C157  0.185700  0.840802  0.399560  0.041488
    Cl  Cl12  0.265489  0.834835  0.409974  -0.102184
    C   C158  0.163035  0.877330  0.356972  -0.072176
    C   C159  0.100260  0.881562  0.348456  -0.098218
    C   C160  0.060180  0.850629  0.383471  -0.287156
    H   H61   0.163473  0.779681  0.466699  0.112643
    H   H62   0.194479  0.902107  0.329894  0.091016
    H   H63   0.082417  0.909390  0.314484  0.107822
    H   H64   0.011129  0.853430  0.375997  0.144127
    C   C161  0.815903  0.082668  0.572418  0.271999
    C   C162  0.809148  0.145550  0.565960  -0.154830
    C   C163  0.840795  0.185678  0.600436  0.041289
    Cl  Cl13  0.834829  0.265467  0.590028  -0.102227
    C   C164  0.877321  0.163009  0.643025  -0.071676
    C   C165  0.881553  0.100233  0.651536  -0.098558
    C   C166  0.850623  0.060157  0.616516  -0.287342
    H   H65   0.779680  0.163456  0.533292  0.112480
    H   H66   0.902095  0.194450  0.670107  0.090771
    H   H67   0.909379  0.082387  0.685508  0.107909
    H   H68   0.853425  0.011105  0.623986  0.144362
    C   C167  0.917504  0.815526  0.572404  0.271707
    C   C168  0.854662  0.808581  0.565767  -0.156075
    C   C169  0.814325  0.840068  0.600169  0.041939
    Cl  Cl14  0.734581  0.833771  0.589634  -0.102809
    C   C170  0.836743  0.876690  0.642800  -0.073311
    C   C171  0.899477  0.881165  0.651446  -0.098244
    C   C172  0.939759  0.850357  0.616535  -0.286406
    H   H69   0.836950  0.779106  0.533016  0.113348
    H   H70   0.805137  0.901350  0.669809  0.091645
    H   H71   0.917129  0.909077  0.685443  0.107870
    H   H72   0.988777  0.853358  0.624103  0.144735
    C   C173  0.184025  0.917152  0.572453  0.271063
    C   C174  0.190881  0.854284  0.565967  -0.156422
    C   C175  0.159267  0.814087  0.600401  0.044823
    Cl  Cl15  0.165365  0.734313  0.589957  -0.103499
    C   C176  0.122678  0.836673  0.642981  -0.075115
    C   C177  0.118345  0.899437  0.651524  -0.096843
    C   C178  0.149235  0.939583  0.616541  -0.288113
    H   H73   0.220402  0.836440  0.533310  0.112752
    H   H74   0.097934  0.805176  0.670032  0.091616
    H   H75   0.090471  0.917218  0.685491  0.107848
    H   H76   0.146358  0.988627  0.624041  0.144357
    C   C179  0.082590  0.184461  0.572151  0.268008
    C   C180  0.145437  0.191513  0.565647  -0.153697
    C   C181  0.185744  0.160055  0.600101  0.041270
    Cl  Cl16  0.265503  0.166480  0.589718  -0.102540
    C   C182  0.163286  0.123365  0.642665  -0.073991
    C   C183  0.100542  0.118825  0.651215  -0.097118
    C   C184  0.060293  0.149605  0.616252  -0.285252
    H   H77   0.163185  0.221048  0.532956  0.112574
    H   H78   0.194868  0.098725  0.669713  0.091821
    H   H79   0.082856  0.090885  0.685179  0.107359
    H   H80   0.011266  0.146566  0.623765  0.144283
