data_DB0-m29_o96_o470_f0_pts.sym.31_repeat
_audit_creation_date              2024-02-23
_audit_creation_method            'Materials Studio'
_symmetry_space_group_name_H-M    'P1'
_symmetry_Int_Tables_number       1
_symmetry_cell_setting            triclinic
loop_
_symmetry_equiv_pos_as_xyz
  x,y,z
_cell_length_a                    17.1681
_cell_length_b                    12.0842
_cell_length_c                    18.5493
_cell_angle_alpha                 77.9298
_cell_angle_beta                  90.6222
_cell_angle_gamma                 114.7160
loop_
_atom_site_label
_atom_site_type_symbol
_atom_site_fract_x
_atom_site_fract_y
_atom_site_fract_z
_atom_site_U_iso_or_equiv
_atom_site_adp_type
_atom_site_occupancy
C1     C     0.24776   0.08400   0.09372   0.00000  Uiso   1.00
C2     C     0.22555   0.16530   0.11904   0.00000  Uiso   1.00
C3     C     0.14501   0.14713   0.09679   0.00000  Uiso   1.00
N1     N     0.11859   0.05981   0.05578   0.00000  Uiso   1.00
C4     C     0.18201   0.02173   0.05341   0.00000  Uiso   1.00
C5     C     0.09697   0.19953   0.11786   0.00000  Uiso   1.00
C6     C     0.00612   0.16102   0.10323   0.00000  Uiso   1.00
C7     C     0.94325   0.15730   0.15075   0.00000  Uiso   1.00
C8     C     0.86846   0.11619   0.11845   0.00000  Uiso   1.00
C9     C     0.88605   0.09520   0.05150   0.00000  Uiso   1.00
N2     N     0.97078   0.12351   0.04212   0.00000  Uiso   1.00
C10    C     0.82183   0.05210   0.99866   0.00000  Uiso   1.00
C11    C     0.82280   0.97545   0.95651   0.00000  Uiso   1.00
C12    C     0.75896   0.91803   0.91229   0.00000  Uiso   1.00
C13    C     0.78240   0.83755   0.88688   0.00000  Uiso   1.00
C14    C     0.86074   0.85116   0.91268   0.00000  Uiso   1.00
N3     N     0.88531   0.93513   0.95575   0.00000  Uiso   1.00
C15    C     0.90823   0.79659   0.89327   0.00000  Uiso   1.00
C16    C     0.99812   0.83019   0.90999   0.00000  Uiso   1.00
C17    C     0.06009   0.82908   0.86379   0.00000  Uiso   1.00
C18    C     0.13505   0.86915   0.89622   0.00000  Uiso   1.00
C19    C     0.11812   0.89399   0.96218   0.00000  Uiso   1.00
N4     N     0.03383   0.86939   0.97058   0.00000  Uiso   1.00
C20    C     0.18320   0.94237   0.01358   0.00000  Uiso   1.00
H1     H     0.12204   0.26204   0.15500   0.00000  Uiso   1.00
H2     H     0.76713   0.07327   0.00155   0.00000  Uiso   1.00
H3     H     0.88387   0.73548   0.85536   0.00000  Uiso   1.00
H4     H     0.23957   0.92399   0.01200   0.00000  Uiso   1.00
H5     H     0.00338   0.12309   0.99519   0.00000  Uiso   1.00
H6     H     0.00173   0.87448   0.01624   0.00000  Uiso   1.00
C21    C     0.05603   0.80184   0.79515   0.00000  Uiso   1.00
C22    C     0.13151   0.81785   0.75919   0.00000  Uiso   1.00
C23    C     0.20911   0.86079   0.79175   0.00000  Uiso   1.00
C24    C     0.21103   0.88601   0.86169   0.00000  Uiso   1.00
C25    C     0.32261   0.07231   0.11117   0.00000  Uiso   1.00
C26    C     0.37669   0.15043   0.15317   0.00000  Uiso   1.00
C27    C     0.35582   0.23851   0.17544   0.00000  Uiso   1.00
C28    C     0.27887   0.24515   0.15966   0.00000  Uiso   1.00
C29    C     0.94665   0.18335   0.21965   0.00000  Uiso   1.00
C30    C     0.87057   0.16571   0.25623   0.00000  Uiso   1.00
C31    C     0.79252   0.12055   0.22337   0.00000  Uiso   1.00
C32    C     0.79209   0.09686   0.15311   0.00000  Uiso   1.00
C33    C     0.68516   0.93187   0.89057   0.00000  Uiso   1.00
C34    C     0.63456   0.85715   0.84462   0.00000  Uiso   1.00
C35    C     0.65760   0.77082   0.82293   0.00000  Uiso   1.00
C36    C     0.73262   0.76186   0.84270   0.00000  Uiso   1.00
H7     H     0.99659   0.77138   0.76875   0.00000  Uiso   1.00
H8     H     0.27060   0.92134   0.88745   0.00000  Uiso   1.00
H9     H     0.33854   0.00346   0.09425   0.00000  Uiso   1.00
H10    H     0.39755   0.29813   0.20908   0.00000  Uiso   1.00
H11    H     0.26213   0.31107   0.17937   0.00000  Uiso   1.00
H12    H     0.00704   0.21630   0.24452   0.00000  Uiso   1.00
H13    H     0.73303   0.06061   0.12681   0.00000  Uiso   1.00
H14    H     0.61880   0.71336   0.78709   0.00000  Uiso   1.00
H15    H     0.75037   0.69669   0.82323   0.00000  Uiso   1.00
H16    H     0.12937   0.79834   0.70476   0.00000  Uiso   1.00
O1     O     0.64078   0.06685   0.22412   0.00000  Uiso   1.00
C37    C     0.70952   0.09436   0.26134   0.00000  Uiso   1.00
O2     O     0.58265   0.82318   0.33815   0.00000  Uiso   1.00
O3     O     0.70221   0.09032   0.33227   0.00000  Uiso   1.00
O4     O     0.47274   0.87483   0.35820   0.00000  Uiso   1.00
C38    C     0.51216   0.80131   0.37681   0.00000  Uiso   1.00
Fe1    Fe    0.53404   0.03183   0.28262   0.00000  Uiso   1.00
O5     O     0.44376   0.02048   0.21127   0.00000  Uiso   1.00
O6     O     0.51814   0.23068   0.19380   0.00000  Uiso   1.00
C39    C     0.45172   0.13370   0.18116   0.00000  Uiso   1.00
O7     O     0.57570   0.17133   0.33643   0.00000  Uiso   1.00
O8     O     0.43102   0.10544   0.34961   0.00000  Uiso   1.00
C40    C     0.50836   0.18250   0.36122   0.00000  Uiso   1.00
C41    C     0.49436   0.72856   0.45380   0.00000  Uiso   1.00
C42    C     0.48675   0.79102   0.50511   0.00000  Uiso   1.00
C43    C     0.47593   0.73897   0.57896   0.00000  Uiso   1.00
C44    C     0.47209   0.62077   0.60404   0.00000  Uiso   1.00
C45    C     0.48343   0.55530   0.55337   0.00000  Uiso   1.00
C46    C     0.49295   0.60990   0.47769   0.00000  Uiso   1.00
C47    C     0.48872   0.43957   0.57594   0.00000  Uiso   1.00
C48    C     0.49495   0.37484   0.52349   0.00000  Uiso   1.00
C49    C     0.50247   0.43045   0.44894   0.00000  Uiso   1.00
C50    C     0.50118   0.54584   0.42672   0.00000  Uiso   1.00
C51    C     0.49636   0.25662   0.54299   0.00000  Uiso   1.00
C52    C     0.50958   0.20304   0.48837   0.00000  Uiso   1.00
C53    C     0.51596   0.25818   0.41507   0.00000  Uiso   1.00
C54    C     0.51101   0.37108   0.39520   0.00000  Uiso   1.00
H17    H     0.49399   0.88617   0.48787   0.00000  Uiso   1.00
H18    H     0.50660   0.10988   0.50287   0.00000  Uiso   1.00
H19    H     0.51273   0.41210   0.33723   0.00000  Uiso   1.00
H20    H     0.50615   0.58471   0.36816   0.00000  Uiso   1.00
O9     O     0.56156   0.97921   0.78450   0.00000  Uiso   1.00
O10    O     0.49368   0.76843   0.80341   0.00000  Uiso   1.00
C55    C     0.55823   0.86867   0.81478   0.00000  Uiso   1.00
O11    O     0.42069   0.81306   0.66955   0.00000  Uiso   1.00
O12    O     0.56147   0.91610   0.62677   0.00000  Uiso   1.00
C56    C     0.48615   0.82195   0.62886   0.00000  Uiso   1.00
O13    O     0.39831   0.13855   0.65157   0.00000  Uiso   1.00
O14    O     0.36224   0.92470   0.78195   0.00000  Uiso   1.00
C57    C     0.28920   0.88390   0.75099   0.00000  Uiso   1.00
O15    O     0.52037   0.11135   0.63866   0.00000  Uiso   1.00
C58    C     0.47403   0.17368   0.61723   0.00000  Uiso   1.00
O16    O     0.28838   0.87096   0.68249   0.00000  Uiso   1.00
Fe2    Fe    0.46533   0.95861   0.71851   0.00000  Uiso   1.00
N5     N     0.66171   0.01977   0.91395   0.00000  Uiso   1.00
H21    H     0.59834   0.97342   0.93778   0.00000  Uiso   1.00
H22    H     0.66679   0.08999   0.86811   0.00000  Uiso   1.00
N6     N     0.87331   0.19541   0.32701   0.00000  Uiso   1.00
H23    H     0.86117   0.27453   0.32072   0.00000  Uiso   1.00
H24    H     0.93539   0.21928   0.34373   0.00000  Uiso   1.00
N7     N     0.45628   0.56927   0.68175   0.00000  Uiso   1.00
H25    H     0.50662   0.62543   0.70819   0.00000  Uiso   1.00
H26    H     0.39851   0.56796   0.69997   0.00000  Uiso   1.00
N8     N     0.49854   0.39329   0.65122   0.00000  Uiso   1.00
H27    H     0.44111   0.36152   0.68408   0.00000  Uiso   1.00
H28    H     0.55081   0.46073   0.66997   0.00000  Uiso   1.00
