# Generated by REPEAT Assigner based on pymatgen
data_DB0-m9_o16_o23_f0_sra.sym.104
_audit_creation_date              2022-05-24
_audit_creation_method            REPEAT_Assigner
_cell_length_a                    20.938467
_cell_length_b                    6.820670
_cell_length_c                    19.862630
_cell_angle_alpha                 90.000000
_cell_angle_beta                  100.018080
_cell_angle_gamma                 90.000000
_cell_volume                      2793.417965
_symmetry_space_group_name_H-M    P1
_symmetry_Int_Tables_number       1
loop_
    _symmetry_equiv_pos_site_id
    _symmetry_equiv_pos_as_xyz
    1  x,y,z
loop_
    _atom_site_type_symbol
    _atom_site_label
    _atom_site_fract_x
    _atom_site_fract_y
    _atom_site_fract_z
    _atom_type_partial_charge
    O  O1   0.447539  0.608723  0.416458  -0.480933
    O  O2   0.552461  0.108723  0.583542  -0.480929
    O  O3   0.430788  0.264936  0.553019  -0.494878
    O  O4   0.569211  0.764936  0.446980  -0.494890
    C  C1   0.419214  0.437711  0.577363  0.488166
    C  C2   0.580786  0.937711  0.422636  0.488208
    O  O5   0.435772  0.265683  0.415703  -0.569549
    O  O6   0.564228  0.765683  0.584297  -0.569549
    O  O7   0.557129  0.107512  0.438832  -0.430420
    O  O8   0.442870  0.607512  0.561167  -0.430414
    C  C3   0.425028  0.442448  0.389487  0.693989
    C  C4   0.574972  0.942448  0.610513  0.693967
    O  O9   0.539286  0.433940  0.508457  -0.517207
    O  O10  0.460714  0.933940  0.491543  -0.517198
    V  V1   0.492314  0.159033  0.497656  1.354624
    V  V2   0.507686  0.659033  0.502344  1.354768
    C  C5   0.848242  0.543071  0.720357  -0.203537
    C  C6   0.151758  0.043071  0.279643  -0.203596
    H  H1   0.935325  0.478485  0.789680  0.112436
    H  H2   0.064675  0.978485  0.210320  0.112408
    H  H3   0.758387  0.515038  0.613310  0.124056
    H  H4   0.241613  0.015038  0.386690  0.124062
    H  H5   0.856113  0.430988  0.684202  0.120187
    H  H6   0.143887  0.930988  0.315798  0.120196
    C  C7   0.883302  0.717290  0.823705  -0.030622
    C  C8   0.116698  0.217290  0.176295  -0.030827
    C  C9   0.607440  0.102759  0.719960  -0.177535
    C  C10  0.392559  0.602759  0.280040  -0.177521
    C  C11  0.650811  0.136853  0.778970  0.321737
    C  C12  0.349188  0.636853  0.221030  0.321746
    C  C13  0.707831  0.031743  0.792005  -0.131276
    C  C14  0.292169  0.531743  0.207995  -0.131282
    C  C15  0.722608  0.896225  0.744799  -0.087794
    C  C16  0.277391  0.396225  0.255201  -0.087811
    C  C17  0.677865  0.860090  0.686145  0.259325
    C  C18  0.322135  0.360090  0.313855  0.259338
    C  C19  0.781170  0.795321  0.755332  0.146149
    C  C20  0.218829  0.295321  0.244668  0.146144
    C  C21  0.792595  0.654334  0.708725  0.170497
    C  C22  0.207405  0.154334  0.291275  0.170554
    C  C23  0.748399  0.622366  0.650155  -0.191674
    C  C24  0.251601  0.122366  0.349845  -0.191705
    C  C25  0.691755  0.727479  0.638203  -0.279001
    C  C26  0.308245  0.227479  0.361797  -0.279000
    C  C27  0.828617  0.831648  0.811726  -0.205644
    C  C28  0.171382  0.331648  0.188274  -0.205591
    C  C29  0.892692  0.570374  0.779040  -0.098240
    C  C30  0.107308  0.070374  0.220959  -0.098134
    C  C31  0.620229  0.962489  0.674368  -0.266852
    C  C32  0.379771  0.462489  0.325632  -0.266879
    H  H7   0.823806  0.942038  0.849076  0.160579
    H  H8   0.176194  0.442038  0.150924  0.160580
    H  H9   0.562858  0.185880  0.709408  0.107505
    H  H10  0.437141  0.685880  0.290592  0.107502
    H  H11  0.738804  0.053707  0.840381  0.143199
    H  H12  0.261196  0.553706  0.159619  0.143195
    H  H13  0.658763  0.703616  0.590968  0.214132
    H  H14  0.341237  0.203616  0.409032  0.214136
    C  C33  0.805013  0.681069  0.271384  -0.223171
    C  C34  0.194987  0.181068  0.728616  -0.223118
    C  C35  0.789061  0.015807  0.224816  -0.248739
    C  C36  0.210939  0.515807  0.775184  -0.248698
    C  C37  0.751735  0.051125  0.282745  0.366391
    C  C38  0.248265  0.551124  0.717254  0.366394
    H  H15  0.774871  0.726220  0.368711  0.024957
    H  H16  0.225129  0.226218  0.631289  0.024973
    H  H17  0.851575  0.737000  0.300228  0.038302
    H  H18  0.148425  0.236998  0.699772  0.038296
    H  H19  0.766870  0.102036  0.179398  0.024424
    H  H20  0.233130  0.602037  0.820601  0.024417
    H  H21  0.840202  0.061999  0.241092  0.060256
    H  H22  0.159797  0.561998  0.758907  0.060258
    H  H23  0.786142  0.071451  0.331395  -0.021412
    H  H24  0.213857  0.571449  0.668604  -0.021359
    C  C39  0.626597  0.936202  0.376019  0.070599
    C  C40  0.373403  0.436202  0.623981  0.070629
    C  C41  0.786436  0.799510  0.206480  0.583788
    C  C42  0.213564  0.299510  0.793520  0.583861
    C  C43  0.752290  0.702294  0.314570  0.012501
    C  C44  0.247710  0.202293  0.685430  0.012573
    C  C45  0.709248  0.875077  0.288951  0.500966
    C  C46  0.290752  0.375077  0.711049  0.500473
    C  C47  0.671390  0.825529  0.218803  -0.210674
    C  C48  0.328610  0.325531  0.781197  -0.211565
    C  C49  0.717608  0.747872  0.174053  -0.032018
    C  C50  0.282392  0.247873  0.825947  -0.031374
    C  C51  0.664272  0.915504  0.336698  -0.467128
    C  C52  0.335728  0.415504  0.663302  -0.466893
    C  C53  0.831457  0.759384  0.158753  -0.326886
    C  C54  0.168542  0.259384  0.841247  -0.327050
    C  C55  0.869435  0.739360  0.119719  -0.134974
    C  C56  0.130565  0.239360  0.880281  -0.134874
    H  H25  0.712931  0.586220  0.169680  -0.029706
    H  H26  0.287069  0.086221  0.830320  -0.029867
    H  H27  0.705764  0.814947  0.122532  0.028196
    H  H28  0.294236  0.314948  0.877468  0.028094
    H  H29  0.634365  0.712456  0.223485  0.061581
    H  H30  0.365635  0.212459  0.776516  0.061913
    H  H31  0.810356  0.524340  0.258577  0.044288
    H  H32  0.189644  0.024339  0.741423  0.044258
    H  H33  0.722519  0.566959  0.310433  -0.033755
    H  H34  0.277481  0.066958  0.689567  -0.033706
    H  H35  0.647113  0.959724  0.195427  -0.011713
    H  H36  0.352886  0.459726  0.804573  -0.011518
    O  O11  0.060064  0.069993  0.942341  -0.556305
    O  O12  0.939935  0.569993  0.057659  -0.556320
    O  O13  0.063654  0.410507  0.084487  -0.547677
    O  O14  0.936346  0.910507  0.915513  -0.547586
    C  C57  0.072116  0.235555  0.112199  0.572575
    C  C58  0.927883  0.735555  0.887801  0.572288
    O  O15  0.068865  0.413743  0.946037  -0.551517
    O  O16  0.931135  0.913743  0.053963  -0.551525
    O  O17  0.949484  0.569448  0.915131  -0.477732
    O  O18  0.050516  0.069448  0.084869  -0.477826
    C  C59  0.084022  0.239134  0.926101  0.705059
    C  C60  0.915978  0.739134  0.073898  0.705119
    O  O19  0.960905  0.242446  0.990367  -0.533412
    O  O20  0.039095  0.742446  0.009633  -0.533386
    V  V3   0.007685  0.517362  0.002207  1.461413
    V  V4   0.992314  0.017362  0.997793  1.461407
    N  N1   0.712038  0.222917  0.268508  -0.540118
    C  C61  0.682741  0.276724  0.320814  0.666499
    O  O21  0.704294  0.221520  0.378679  -0.497723
    C  C62  0.623726  0.402421  0.307943  -0.454233
    H  H37  0.683572  0.233502  0.220893  0.306512
    H  H38  0.611508  0.436723  0.252630  0.074068
    H  H39  0.632988  0.540505  0.337507  0.154482
    H  H40  0.582636  0.323395  0.324108  0.110801
    N  N2   0.287961  0.722917  0.731491  -0.540115
    C  C63  0.317258  0.776723  0.679185  0.666416
    O  O22  0.295705  0.721517  0.621320  -0.497735
    C  C64  0.376273  0.902421  0.692056  -0.453936
    H  H41  0.316426  0.733504  0.779106  0.306599
    H  H42  0.388491  0.936725  0.747369  0.073943
    H  H43  0.367011  0.040504  0.662492  0.154390
    H  H44  0.417363  0.823394  0.675892  0.110747
    N  N3   0.635602  0.275741  0.826393  -0.653252
    C  C65  0.685149  0.388869  0.856723  0.751784
    O  O23  0.740870  0.347350  0.852335  -0.501326
    C  C66  0.671531  0.569018  0.894139  -0.473691
    H  H45  0.590494  0.340241  0.817290  0.329519
    H  H46  0.618470  0.583693  0.892049  0.086284
    H  H47  0.689973  0.699092  0.870031  0.114160
    H  H48  0.696008  0.558428  0.948208  0.126399
    N  N4   0.364397  0.775741  0.173607  -0.653227
    C  C67  0.314851  0.888869  0.143277  0.751779
    O  O24  0.259130  0.847350  0.147665  -0.501331
    C  C68  0.328468  0.069018  0.105861  -0.473635
    H  H49  0.409506  0.840241  0.182710  0.329491
    H  H50  0.381530  0.083693  0.107951  0.086266
    H  H51  0.310026  0.199092  0.129969  0.114146
    H  H52  0.303991  0.058429  0.051792  0.126376
