# Generated by REPEAT Assigner based on pymatgen
data_DB0-m2_o24_o28_f0_pcu.sym.67
_audit_creation_date              2022-05-24
_audit_creation_method            REPEAT_Assigner
_cell_length_a                    23.317007
_cell_length_b                    10.713541
_cell_length_c                    9.364826
_cell_angle_alpha                 90.003091
_cell_angle_beta                  90.006455
_cell_angle_gamma                 90.002162
_cell_volume                      2339.405695
_symmetry_space_group_name_H-M    P1
_symmetry_Int_Tables_number       1
loop_
    _symmetry_equiv_pos_site_id
    _symmetry_equiv_pos_as_xyz
    1  x,y,z
loop_
    _atom_site_type_symbol
    _atom_site_label
    _atom_site_fract_x
    _atom_site_fract_y
    _atom_site_fract_z
    _atom_type_partial_charge
    O   O1   0.510007  0.304114  0.614301  -0.639720
    O   O2   0.510734  0.668068  0.369704  -0.605961
    O   O3   0.514159  0.305352  0.368759  -0.638915
    O   O4   0.510017  0.666965  0.615363  -0.552319
    C   C1   0.510842  0.246544  0.491019  0.713704
    C   C2   0.508683  0.725830  0.492705  0.591807
    O   O5   0.424845  0.481149  0.609119  -0.690232
    O   O6   0.593939  0.494878  0.374583  -0.572599
    O   O7   0.427333  0.487123  0.363856  -0.647516
    O   O8   0.591477  0.480912  0.620292  -0.599024
    C   C3   0.399135  0.483161  0.484712  0.708214
    C   C4   0.619437  0.488386  0.499228  0.700883
    Cu  Cu1  0.507947  0.485444  0.634889  0.915650
    Cu  Cu2  0.510889  0.486699  0.348990  0.881339
    C   C5   0.891204  0.586294  0.533823  0.472266
    C   C6   0.126824  0.376068  0.433829  0.429061
    N   N1   0.861779  0.482359  0.498809  -0.159424
    N   N2   0.156115  0.478954  0.473521  -0.165959
    C   C7   0.889504  0.377514  0.458830  0.419298
    C   C8   0.128189  0.582692  0.516098  0.391761
    C   C9   0.948801  0.375538  0.451839  -0.072918
    C   C10  0.068960  0.585183  0.520163  -0.072776
    C   C11  0.979347  0.480922  0.487711  0.071049
    C   C12  0.038487  0.480396  0.481947  0.106572
    C   C13  0.950467  0.586858  0.529566  -0.134618
    C   C14  0.067457  0.375067  0.438390  -0.117985
    C   C15  0.977765  0.269466  0.408436  -0.079420
    C   C16  0.040060  0.691530  0.562689  -0.093632
    C   C17  0.036856  0.269352  0.401313  -0.066342
    C   C18  0.981006  0.692496  0.566928  -0.046372
    O   O9   0.862644  0.688868  0.575799  -0.500612
    O   O10  0.155608  0.273134  0.394055  -0.473430
    O   O11  0.859179  0.275841  0.421978  -0.518712
    O   O12  0.158263  0.684760  0.552528  -0.472047
    H   H1   0.954859  0.185558  0.379337  0.136175
    H   H2   0.062953  0.775110  0.593043  0.128964
    H   H3   0.058468  0.185324  0.367019  0.118212
    H   H4   0.959416  0.776836  0.600278  0.119370
    C   C19  0.246095  0.500152  0.601430  -0.113639
    C   C20  0.770510  0.403205  0.587474  -0.188944
    H   H5   0.222449  0.516456  0.698960  0.108035
    H   H6   0.793175  0.337526  0.654512  0.158712
    C   C21  0.305128  0.500780  0.604353  -0.139781
    C   C22  0.711333  0.406700  0.590184  0.002325
    H   H7   0.326430  0.519320  0.704131  0.135224
    H   H8   0.688021  0.342473  0.657673  0.058724
    C   C23  0.336182  0.480706  0.480855  -0.025657
    C   C24  0.682074  0.488708  0.502943  -0.158451
    C   C25  0.307291  0.457862  0.354441  -0.038445
    C   C26  0.712184  0.570184  0.417289  0.032987
    H   H9   0.330587  0.440847  0.256626  0.081327
    H   H10  0.689555  0.637667  0.353100  0.062689
    C   C27  0.248050  0.455135  0.352153  -0.175172
    C   C28  0.771257  0.569006  0.417210  -0.210194
    H   H11  0.225875  0.438085  0.252660  0.122831
    H   H12  0.794411  0.633171  0.349287  0.130588
    C   C29  0.217284  0.477415  0.475536  0.263384
    C   C30  0.800638  0.484573  0.501069  0.245473
    C   C31  0.516237  0.028690  0.624673  -0.169477
    C   C32  0.503207  0.944303  0.358064  0.023376
    C   C33  0.556879  0.945602  0.542328  0.451545
    C   C34  0.462503  0.027076  0.440142  0.412305
    H   H13  0.520938  0.069241  0.732916  0.093589
    H   H14  0.495629  0.909521  0.248173  0.013295
    C   C35  0.508410  0.865044  0.492175  0.013475
    C   C36  0.510976  0.107542  0.490522  -0.039608
    C   C37  0.466144  0.947310  0.572827  -0.118502
    C   C38  0.553047  0.025631  0.409827  -0.237462
    H   H15  0.430457  0.913540  0.640568  0.028375
    H   H16  0.589896  0.059211  0.345564  0.086803
    C   C39  0.500823  0.595328  0.043571  -0.233912
    C   C40  0.518093  0.377225  0.940932  -0.093032
    C   C41  0.461951  0.520275  0.950962  0.354350
    C   C42  0.557082  0.452426  0.033302  0.352442
    H   H17  0.494779  0.689287  0.090595  0.125120
    H   H18  0.526704  0.283064  0.896799  0.076284
    N   N3   0.505822  0.484708  0.848613  0.095435
    N   N4   0.513046  0.487363  0.135320  0.155407
    C   C43  0.546210  0.558835  0.934201  -0.080684
    C   C44  0.472943  0.413400  0.049256  -0.131761
    H   H19  0.577238  0.621428  0.880358  0.055413
    H   H20  0.440436  0.352119  0.099838  0.086531
    N   N5   0.404887  0.551791  0.904581  -0.480450
    C   C45  0.386454  0.672035  0.946339  0.355367
    C   C46  0.335968  0.686034  0.022123  -0.353040
    C   C47  0.317348  0.803373  0.061033  0.024365
    C   C48  0.348705  0.907253  0.023287  -0.216431
    C   C49  0.398451  0.893848  0.945410  0.002496
    C   C50  0.417039  0.776585  0.906017  -0.208767
    H   H21  0.376057  0.483594  0.933306  0.264964
    H   H22  0.310779  0.605551  0.052299  0.144205
    H   H23  0.278071  0.813869  0.121160  0.083990
    H   H24  0.334086  0.999198  0.053867  0.112409
    H   H25  0.422789  0.975409  0.914678  0.059308
    H   H26  0.455537  0.767082  0.843069  0.107856
    N   N6   0.611665  0.406058  0.082238  -0.552010
    C   C51  0.659253  0.480627  0.043927  0.331400
    C   C52  0.706737  0.426045  0.981310  -0.296497
    C   C53  0.754259  0.497160  0.948773  0.014053
    C   C54  0.754827  0.622825  0.979687  -0.253515
    C   C55  0.707993  0.677218  0.044177  0.020773
    C   C56  0.660363  0.606385  0.076713  -0.141194
    H   H27  0.617304  0.313481  0.056718  0.251931
    H   H28  0.707164  0.327376  0.957360  0.135086
    H   H29  0.791298  0.454109  0.899946  0.067725
    H   H30  0.792216  0.678392  0.954842  0.124227
    H   H31  0.708923  0.775239  0.070996  0.068171
    H   H32  0.624601  0.649767  0.130851  0.106830
    N   N7   0.610792  0.896174  0.592080  -0.692844
    C   C57  0.625665  0.934898  0.731384  0.358557
    C   C58  0.675536  0.001820  0.754009  -0.216757
    C   C59  0.690449  0.038534  0.890153  -0.110709
    C   C60  0.655913  0.007758  0.004219  -0.041542
    C   C61  0.606871  0.938550  0.982394  -0.202387
    C   C62  0.591935  0.901582  0.846353  -0.165468
    H   H33  0.643072  0.913374  0.519853  0.315774
    H   H34  0.702995  0.026971  0.665554  0.119685
    H   H35  0.729320  0.091389  0.907404  0.113133
    H   H36  0.667648  0.036578  0.110916  0.076316
    H   H37  0.580201  0.912892  0.072045  0.109339
    H   H38  0.553698  0.846590  0.830115  0.146003
    N   N8   0.410652  0.077560  0.379193  -0.810551
    C   C63  0.359931  0.027749  0.438450  0.574845
    C   C64  0.319455  0.106424  0.497747  -0.409837
    C   C65  0.269554  0.058200  0.554067  0.005910
    C   C66  0.259600  0.931531  0.549830  -0.174209
    C   C67  0.299357  0.853012  0.488206  -0.078512
    C   C68  0.349413  0.900985  0.432188  -0.209363
    H   H39  0.410531  0.173468  0.376526  0.333326
    H   H40  0.326715  0.205975  0.501913  0.135530
    H   H41  0.238196  0.119830  0.601572  0.077465
    H   H42  0.220477  0.894065  0.594267  0.121132
    H   H43  0.291221  0.753808  0.483467  0.096279
    H   H44  0.380107  0.838971  0.382657  0.100521
