# Generated by REPEAT Assigner based on pymatgen
data_DB0-m3_o11_o19_f0_pcu.sym.15_sqe
_audit_creation_date              2022-05-24
_audit_creation_method            REPEAT_Assigner
_cell_length_a                    11.912777
_cell_length_b                    11.152868
_cell_length_c                    9.960827
_cell_angle_alpha                 89.997376
_cell_angle_beta                  89.988946
_cell_angle_gamma                 89.995624
_cell_volume                      1323.411733
_symmetry_space_group_name_H-M    P1
_symmetry_Int_Tables_number       1
loop_
    _symmetry_equiv_pos_site_id
    _symmetry_equiv_pos_as_xyz
    1  x,y,z
loop_
    _atom_site_type_symbol
    _atom_site_label
    _atom_site_fract_x
    _atom_site_fract_y
    _atom_site_fract_z
    _atom_type_partial_charge
    O   O1   0.495053  0.327813  0.619127  -0.776663
    O   O2   0.498424  0.324399  0.387471  -0.662121
    C   C1   0.494540  0.270219  0.504233  0.844259
    O   O3   0.335263  0.512674  0.610337  -0.664148
    O   O4   0.336068  0.509039  0.378610  -0.651983
    C   C2   0.283530  0.512076  0.494266  0.886141
    Zn  Zn1  0.501994  0.507246  0.649757  1.036687
    Zn  Zn2  0.503545  0.501776  0.344035  1.063766
    O   O5   0.508095  0.684481  0.606489  -0.585667
    O   O6   0.508810  0.681474  0.374596  -0.593091
    O   O7   0.669463  0.499314  0.615141  -0.607823
    O   O8   0.670397  0.498201  0.383036  -0.610104
    C   C3   0.510148  0.739118  0.489979  0.620051
    C   C4   0.721999  0.497032  0.499319  0.784865
    C   C5   0.163081  0.510358  0.494379  -0.295169
    C   C6   0.061981  0.507035  0.495777  0.088918
    C   C7   0.943543  0.502323  0.497949  0.023359
    C   C8   0.842445  0.498927  0.499305  -0.215417
    C   C9   0.483973  0.940872  0.394026  0.289368
    C   C10  0.522471  0.870315  0.493132  0.017927
    C   C11  0.496030  0.072932  0.396199  -0.099616
    C   C12  0.486203  0.139097  0.507856  -0.312290
    H   H1   0.505528  0.117508  0.300231  0.100169
    H   H2   0.467266  0.098359  0.603635  0.160377
    C   C13  0.582648  0.547444  0.926258  0.171133
    N   N1   0.500502  0.514439  0.850546  0.023176
    C   C14  0.568890  0.565972  0.072405  0.479392
    N   N2   0.506444  0.496510  0.143280  -0.413610
    H   H3   0.474509  0.422802  0.094549  0.246464
    O   O9   0.434483  0.890230  0.283682  -0.509063
    H   H4   0.491680  0.897036  0.211992  0.346563
    O   O10  0.578964  0.918755  0.599961  -0.445851
    H   H5   0.527613  0.908841  0.677380  0.347829
    O   O11  0.685024  0.572102  0.870534  -0.395733
    H   H6   0.731099  0.500411  0.890587  0.363867
    O   O12  0.398751  0.529540  0.905081  -0.394326
    H   H7   0.360712  0.451422  0.892286  0.403917
    O   O13  0.634818  0.649608  0.134735  -0.462652
    H   H8   0.601818  0.727538  0.108272  0.397100
