# Generated by REPEAT Assigner based on pymatgen
data_DB0-m3_o1_o7_f0_nbo.sym.40
_audit_creation_date              2022-05-24
_audit_creation_method            REPEAT_Assigner
_cell_length_a                    21.459522
_cell_length_b                    21.459522
_cell_length_c                    35.161758
_cell_angle_alpha                 90.000000
_cell_angle_beta                  90.000000
_cell_angle_gamma                 90.000000
_cell_volume                      16192.378625
_symmetry_space_group_name_H-M    P1
_symmetry_Int_Tables_number       1
loop_
    _symmetry_equiv_pos_site_id
    _symmetry_equiv_pos_as_xyz
    1  x,y,z
loop_
    _atom_site_type_symbol
    _atom_site_label
    _atom_site_fract_x
    _atom_site_fract_y
    _atom_site_fract_z
    _atom_type_partial_charge
    C   C1    0.500000  0.882167  0.000000  0.786121
    C   C2    0.217797  0.539359  0.024062  -0.140600
    C   C3    0.000000  0.500000  0.267125  -0.158321
    C   C4    0.000000  0.500000  0.232875  -0.158212
    C   C5    0.500000  0.000000  0.232875  -0.158187
    C   C6    0.000000  0.500000  0.767125  -0.158286
    C   C7    0.500000  0.000000  0.767125  -0.158355
    C   C8    0.538511  0.717947  0.024580  -0.144836
    C   C9    0.282053  0.538511  0.024580  -0.144926
    C   C10   0.461489  0.282053  0.024580  -0.144864
    C   C11   0.717947  0.461489  0.024580  -0.144798
    C   C12   0.538511  0.282053  0.975420  -0.144829
    C   C13   0.460641  0.217797  0.024062  -0.140744
    C   C14   0.282053  0.461489  0.975420  -0.145079
    C   C15   0.461489  0.717947  0.975420  -0.144764
    C   C16   0.717947  0.538511  0.975420  -0.144764
    C   C17   0.038511  0.217947  0.524580  -0.144801
    C   C18   0.782053  0.038511  0.524580  -0.144867
    C   C19   0.961489  0.782053  0.524580  -0.144823
    C   C20   0.217947  0.961489  0.524580  -0.144814
    C   C21   0.038511  0.782053  0.475420  -0.144833
    C   C22   0.782053  0.961489  0.475420  -0.144844
    C   C23   0.961489  0.217947  0.475420  -0.144800
    C   C24   0.782203  0.460641  0.024062  -0.140830
    C   C25   0.217947  0.038511  0.475420  -0.144810
    C   C26   0.382040  0.500000  0.000000  0.784247
    C   C27   0.500000  0.382040  0.000000  0.784242
    C   C28   0.617960  0.500000  0.000000  0.784181
    C   C29   0.500000  0.617960  0.000000  0.784131
    C   C30   0.882040  0.000000  0.500000  0.784161
    C   C31   0.000000  0.882040  0.500000  0.784173
    C   C32   0.117960  0.000000  0.500000  0.784100
    C   C33   0.000000  0.117960  0.500000  0.784083
    C   C34   0.580017  0.684034  0.050303  0.782452
    C   C35   0.539359  0.217797  0.975938  -0.140819
    C   C36   0.555732  0.658937  0.086927  -0.517709
    C   C37   0.315966  0.580017  0.050303  0.782429
    C   C38   0.341063  0.555732  0.086927  -0.517711
    C   C39   0.419983  0.315966  0.050303  0.782385
    C   C40   0.444268  0.341063  0.086927  -0.517704
    C   C41   0.684034  0.419983  0.050303  0.782383
    C   C42   0.658937  0.444268  0.086927  -0.517696
    C   C43   0.580017  0.315966  0.949697  0.782386
    C   C44   0.555732  0.341063  0.913073  -0.517709
    C   C45   0.315966  0.419983  0.949697  0.782396
    C   C46   0.217797  0.460641  0.975938  -0.140297
    C   C47   0.341063  0.444268  0.913073  -0.517658
    C   C48   0.419983  0.684034  0.949697  0.782314
    C   C49   0.444268  0.658937  0.913073  -0.517656
    C   C50   0.684034  0.580017  0.949697  0.782379
    C   C51   0.658937  0.555732  0.913073  -0.517694
    C   C52   0.080017  0.184034  0.550303  0.782379
    C   C53   0.055732  0.158937  0.586927  -0.517683
    C   C54   0.815966  0.080017  0.550303  0.782345
    C   C55   0.841063  0.055732  0.586927  -0.517683
    C   C56   0.919983  0.815966  0.550303  0.782327
    C   C57   0.460641  0.782203  0.975938  -0.140852
    C   C58   0.944268  0.841063  0.586927  -0.517690
    C   C59   0.184034  0.919983  0.550303  0.782348
    C   C60   0.158937  0.944268  0.586927  -0.517673
    C   C61   0.080017  0.815966  0.449697  0.782368
    C   C62   0.055732  0.841063  0.413073  -0.517686
    C   C63   0.815966  0.919983  0.449697  0.782316
    C   C64   0.841063  0.944268  0.413073  -0.517693
    C   C65   0.919983  0.184034  0.449697  0.782319
    C   C66   0.944268  0.158937  0.413073  -0.517659
    C   C67   0.184034  0.080017  0.449697  0.782364
    C   C68   0.782203  0.539359  0.975938  -0.140872
    C   C69   0.158937  0.055732  0.413073  -0.517659
    C   C70   0.578001  0.914779  0.613276  0.775857
    C   C71   0.551268  0.858102  0.594965  -0.549310
    C   C72   0.085221  0.578001  0.613276  0.775848
    C   C73   0.141898  0.551268  0.594965  -0.549291
    C   C74   0.421999  0.085221  0.613276  0.775826
    C   C75   0.448732  0.141898  0.594965  -0.549250
    C   C76   0.914779  0.421999  0.613276  0.775836
    C   C77   0.858102  0.448732  0.594965  -0.549241
    C   C78   0.578001  0.085221  0.386724  0.775849
    C   C79   0.039359  0.282203  0.524062  -0.140860
    C   C80   0.551268  0.141898  0.405035  -0.549273
    C   C81   0.085221  0.421999  0.386724  0.775829
    C   C82   0.141898  0.448732  0.405035  -0.549214
    C   C83   0.421999  0.914779  0.386724  0.775503
    C   C84   0.448732  0.858102  0.405035  -0.548968
    C   C85   0.914779  0.578001  0.386724  0.775516
    C   C86   0.858102  0.551268  0.405035  -0.549111
    C   C87   0.078001  0.414779  0.113276  0.775867
    C   C88   0.051268  0.358102  0.094965  -0.549303
    C   C89   0.585221  0.078001  0.113276  0.775805
    C   C90   0.717797  0.039359  0.524062  -0.140748
    C   C91   0.641898  0.051268  0.094965  -0.549231
    C   C92   0.921999  0.585221  0.113276  0.775795
    C   C93   0.948732  0.641898  0.094965  -0.549263
    C   C94   0.414779  0.921999  0.113276  0.775804
    C   C95   0.358102  0.948732  0.094965  -0.549244
    C   C96   0.078001  0.585221  0.886724  0.775755
    C   C97   0.051268  0.641899  0.905035  -0.548929
    C   C98   0.585221  0.921999  0.886724  0.775962
    C   C99   0.641899  0.948732  0.905035  -0.549098
    C   C100  0.921999  0.414779  0.886724  0.776048
    C   C101  0.960641  0.717797  0.524062  -0.140804
    C   C102  0.948732  0.358102  0.905035  -0.549289
    C   C103  0.414779  0.078001  0.886724  0.775370
    C   C104  0.358101  0.051268  0.905035  -0.548935
    C   C105  0.580572  0.816183  0.049915  0.755737
    C   C106  0.641400  0.840644  0.035964  -0.517643
    C   C107  0.183817  0.580572  0.049915  0.755741
    C   C108  0.159356  0.641400  0.035964  -0.517625
    C   C109  0.419428  0.183817  0.049915  0.755897
    C   C110  0.358601  0.159356  0.035964  -0.517711
    C   C111  0.816183  0.419428  0.049915  0.755915
    C   C112  0.117833  0.500000  0.000000  0.786304
    C   C113  0.282203  0.960641  0.524062  -0.140864
    C   C114  0.840644  0.358601  0.035964  -0.517743
    C   C115  0.580572  0.183817  0.950085  0.756083
    C   C116  0.641399  0.159356  0.964036  -0.517674
    C   C117  0.183817  0.419428  0.950085  0.755782
    C   C118  0.159356  0.358601  0.964036  -0.517825
    C   C119  0.419428  0.816183  0.950085  0.756071
    C   C120  0.358601  0.840644  0.964036  -0.517834
    C   C121  0.816183  0.580572  0.950085  0.755975
    C   C122  0.840644  0.641399  0.964036  -0.517696
    C   C123  0.080572  0.316183  0.549915  0.755939
    C   C124  0.039359  0.717797  0.475938  -0.140805
    C   C125  0.141399  0.340644  0.535964  -0.517733
    C   C126  0.683817  0.080572  0.549915  0.755943
    C   C127  0.659356  0.141399  0.535964  -0.517727
    C   C128  0.919428  0.683817  0.549915  0.755928
    C   C129  0.858601  0.659356  0.535964  -0.517703
    C   C130  0.316183  0.919428  0.549915  0.755956
    C   C131  0.340644  0.858601  0.535964  -0.517760
    C   C132  0.080572  0.683817  0.450085  0.756043
    C   C133  0.141399  0.659356  0.464036  -0.517732
    C   C134  0.683817  0.919428  0.450085  0.755959
    C   C135  0.717797  0.960641  0.475938  -0.140759
    C   C136  0.659356  0.858601  0.464036  -0.517711
    C   C137  0.919428  0.316183  0.450085  0.756012
    C   C138  0.858601  0.340644  0.464036  -0.517796
    C   C139  0.316183  0.080572  0.450085  0.756147
    C   C140  0.340644  0.141399  0.464036  -0.517783
    C   C141  0.960641  0.282203  0.475938  -0.140847
    C   C142  0.282203  0.039359  0.475938  -0.140895
    C   C143  0.500000  0.000000  0.927907  0.691556
    C   C144  0.000000  0.500000  0.927907  0.691597
    C   C145  0.500000  0.000000  0.072093  0.691689
    C   C146  0.000000  0.500000  0.072093  0.691677
    C   C147  0.000000  0.500000  0.427907  0.691437
    C   C148  0.500000  0.117833  0.000000  0.785926
    C   C149  0.500000  0.000000  0.427907  0.691425
    C   C150  0.000000  0.500000  0.572093  0.691646
    C   C151  0.500000  0.000000  0.572093  0.691680
    C   C152  0.500000  0.685839  0.000000  0.001484
    C   C153  0.314161  0.500000  0.000000  0.001576
    C   C154  0.500000  0.314161  0.000000  0.001512
    C   C155  0.685839  0.500000  0.000000  0.001471
    C   C156  0.000000  0.185839  0.500000  0.001522
    C   C157  0.814161  0.000000  0.500000  0.001537
    C   C158  0.000000  0.814161  0.500000  0.001508
    C   C159  0.882167  0.500000  0.000000  0.786018
    C   C160  0.185839  0.000000  0.500000  0.001535
    C   C161  0.500000  0.814295  0.000000  -0.007082
    C   C162  0.185705  0.500000  0.000000  -0.007436
    C   C163  0.500000  0.185705  0.000000  -0.007044
    C   C164  0.814295  0.500000  0.000000  -0.006994
    C   C165  0.000000  0.314295  0.500000  -0.006948
    C   C166  0.685705  0.000000  0.500000  -0.007044
    C   C167  0.000000  0.685705  0.500000  -0.006962
    C   C168  0.314295  0.000000  0.500000  -0.006905
    C   C169  0.538183  0.959632  0.672529  -0.313605
    C   C170  0.000000  0.382167  0.500000  0.785885
    C   C171  0.040368  0.538183  0.672529  -0.313612
    C   C172  0.461817  0.040368  0.672529  -0.313609
    C   C173  0.959632  0.461817  0.672529  -0.313599
    C   C174  0.538183  0.040368  0.327471  -0.313701
    C   C175  0.040368  0.461817  0.327471  -0.313647
    C   C176  0.461818  0.959632  0.327471  -0.313687
    C   C177  0.959632  0.538183  0.327471  -0.313644
    C   C178  0.038183  0.459632  0.172529  -0.313609
    C   C179  0.540368  0.038183  0.172529  -0.313613
    C   C180  0.961817  0.540368  0.172529  -0.313593
    C   C181  0.617833  0.000000  0.500000  0.785847
    C   C182  0.459632  0.961817  0.172529  -0.313603
    C   C183  0.038182  0.540369  0.827471  -0.313789
    C   C184  0.540368  0.961818  0.827471  -0.313737
    C   C185  0.961818  0.459632  0.827471  -0.313733
    C   C186  0.459632  0.038182  0.827471  -0.313756
    C   C187  0.537446  0.958662  0.633341  -0.050885
    C   C188  0.041338  0.537446  0.633341  -0.050869
    C   C189  0.462554  0.041338  0.633341  -0.050874
    C   C190  0.958662  0.462554  0.633341  -0.050887
    C   C191  0.537446  0.041338  0.366659  -0.050838
    C   C192  0.000000  0.617833  0.500000  0.785743
    C   C193  0.041338  0.462554  0.366659  -0.050872
    C   C194  0.462554  0.958662  0.366659  -0.050469
    C   C195  0.958662  0.537446  0.366659  -0.050451
    C   C196  0.037446  0.458662  0.133341  -0.050848
    C   C197  0.541338  0.037446  0.133341  -0.050830
    C   C198  0.962554  0.541338  0.133341  -0.050861
    C   C199  0.458662  0.962554  0.133341  -0.050837
    C   C200  0.037446  0.541339  0.866659  -0.050722
    C   C201  0.541339  0.962554  0.866659  -0.050818
    C   C202  0.962554  0.458662  0.866659  -0.050779
    C   C203  0.382167  0.000000  0.500000  0.785791
    C   C204  0.458662  0.037446  0.866659  -0.050337
    C   C205  0.500000  0.000000  0.613592  -0.009406
    C   C206  0.000000  0.500000  0.613592  -0.009402
    C   C207  0.500000  0.000000  0.386408  -0.009453
    C   C208  0.000000  0.500000  0.386408  -0.009469
    C   C209  0.000000  0.500000  0.113592  -0.009444
    C   C210  0.500000  0.000000  0.113592  -0.009462
    C   C211  0.000000  0.500000  0.886408  -0.009541
    C   C212  0.500000  0.000000  0.886408  -0.009583
    C   C213  0.500000  0.000000  0.692097  0.374451
    C   C214  0.539359  0.782203  0.024062  -0.140739
    C   C215  0.000000  0.500000  0.692097  0.374479
    C   C216  0.500000  0.000000  0.307903  0.374569
    C   C217  0.000000  0.500000  0.307903  0.374468
    C   C218  0.000000  0.500000  0.192097  0.374434
    C   C219  0.500000  0.000000  0.192097  0.374425
    C   C220  0.000000  0.500000  0.807903  0.374635
    C   C221  0.500000  0.000000  0.807903  0.374622
    C   C222  0.500000  0.000000  0.732875  -0.158205
    C   C223  0.000000  0.500000  0.732875  -0.158279
    C   C224  0.500000  0.000000  0.267125  -0.158360
    H   H1    0.567993  0.927877  0.687966  0.165156
    H   H2    0.572123  0.067993  0.187966  0.165167
    H   H3    0.357923  0.937320  0.064224  0.135429
    H   H4    0.999979  0.642417  0.901200  0.099425
    H   H5    0.071414  0.683995  0.891507  0.157268
    H   H6    0.062680  0.642077  0.935776  0.135330
    H   H7    0.642417  0.000021  0.901200  0.099433
    H   H8    0.683995  0.928586  0.891507  0.157309
    H   H9    0.642077  0.937320  0.935776  0.135396
    H   H10   0.000021  0.357584  0.901200  0.099428
    H   H11   0.928586  0.316005  0.891507  0.157319
    H   H12   0.937320  0.357923  0.935776  0.135445
    H   H13   0.932007  0.572123  0.187966  0.165168
    H   H14   0.357584  0.999979  0.901200  0.099338
    H   H15   0.316005  0.071414  0.891507  0.157313
    H   H16   0.357923  0.062680  0.935776  0.135378
    H   H17   0.646711  0.829465  0.005340  0.113525
    H   H18   0.679801  0.818593  0.052209  0.164271
    H   H19   0.643155  0.891849  0.039976  0.121356
    H   H20   0.170535  0.646711  0.005340  0.113503
    H   H21   0.181407  0.679801  0.052209  0.164276
    H   H22   0.108151  0.643155  0.039977  0.121347
    H   H23   0.353289  0.170535  0.005340  0.113512
    H   H24   0.427877  0.932007  0.187966  0.165166
    H   H25   0.320199  0.181407  0.052209  0.164256
    H   H26   0.356845  0.108151  0.039976  0.121343
    H   H27   0.829465  0.353289  0.005340  0.113536
    H   H28   0.818593  0.320199  0.052209  0.164252
    H   H29   0.891849  0.356845  0.039976  0.121361
    H   H30   0.646711  0.170536  0.994659  0.113489
    H   H31   0.679800  0.181407  0.947791  0.164230
    H   H32   0.643155  0.108151  0.960024  0.121330
    H   H33   0.170536  0.353289  0.994659  0.113527
    H   H34   0.181407  0.320200  0.947791  0.164267
    H   H35   0.067993  0.572123  0.812034  0.165209
    H   H36   0.108151  0.356845  0.960024  0.121396
    H   H37   0.353289  0.829464  0.994660  0.113547
    H   H38   0.320200  0.818593  0.947791  0.164255
    H   H39   0.356845  0.891849  0.960024  0.121393
    H   H40   0.829464  0.646711  0.994660  0.113530
    H   H41   0.818593  0.679800  0.947791  0.164229
    H   H42   0.891849  0.643155  0.960024  0.121322
    H   H43   0.146711  0.329465  0.505340  0.113535
    H   H44   0.179801  0.318593  0.552209  0.164251
    H   H45   0.143155  0.391849  0.539976  0.121353
    H   H46   0.572123  0.932007  0.812034  0.165188
    H   H47   0.670535  0.146711  0.505340  0.113516
    H   H48   0.681407  0.179801  0.552209  0.164255
    H   H49   0.608151  0.143155  0.539976  0.121346
    H   H50   0.853289  0.670535  0.505340  0.113511
    H   H51   0.820199  0.681407  0.552209  0.164254
    H   H52   0.856845  0.608151  0.539976  0.121333
    H   H53   0.329465  0.853289  0.505340  0.113541
    H   H54   0.318593  0.820199  0.552209  0.164257
    H   H55   0.391849  0.856845  0.539976  0.121354
    H   H56   0.146711  0.670536  0.494660  0.113514
    H   H57   0.932007  0.427877  0.812034  0.165163
    H   H58   0.179801  0.681407  0.447791  0.164259
    H   H59   0.143155  0.608151  0.460024  0.121333
    H   H60   0.670536  0.853289  0.494660  0.113510
    H   H61   0.681407  0.820199  0.447791  0.164256
    H   H62   0.608151  0.856845  0.460024  0.121339
    H   H63   0.853289  0.329464  0.494660  0.113544
    H   H64   0.820199  0.318593  0.447791  0.164266
    H   H65   0.856845  0.391849  0.460024  0.121373
    H   H66   0.329464  0.146711  0.494660  0.113536
    H   H67   0.318593  0.179800  0.447791  0.164245
    H   H68   0.427877  0.067993  0.812034  0.165143
    H   H69   0.391849  0.143155  0.460024  0.121355
    H   H70   0.505330  0.669625  0.089390  0.112522
    H   H71   0.581093  0.680958  0.110887  0.163266
    H   H72   0.562752  0.607782  0.087888  0.121654
    H   H73   0.072123  0.567993  0.687966  0.165165
    H   H74   0.330375  0.505330  0.089390  0.112525
    H   H75   0.319042  0.581093  0.110887  0.163268
    H   H76   0.392218  0.562752  0.087888  0.121653
    H   H77   0.494670  0.330375  0.089390  0.112528
    H   H78   0.418907  0.319042  0.110887  0.163264
    H   H79   0.437248  0.392218  0.087888  0.121657
    H   H80   0.669625  0.494670  0.089390  0.112524
    H   H81   0.680958  0.418907  0.110887  0.163263
    H   H82   0.607782  0.437248  0.087888  0.121655
    H   H83   0.505330  0.330375  0.910610  0.112523
    H   H84   0.432007  0.072123  0.687966  0.165168
    H   H85   0.581093  0.319042  0.889113  0.163271
    H   H86   0.562752  0.392218  0.912112  0.121659
    H   H87   0.330375  0.494670  0.910610  0.112537
    H   H88   0.319042  0.418907  0.889113  0.163241
    H   H89   0.392218  0.437248  0.912112  0.121639
    H   H90   0.494670  0.669625  0.910610  0.112512
    H   H91   0.418907  0.680958  0.889113  0.163260
    H   H92   0.437248  0.607782  0.912112  0.121638
    H   H93   0.669625  0.505330  0.910610  0.112509
    H   H94   0.680958  0.581093  0.889113  0.163266
    H   H95   0.927877  0.432007  0.687966  0.165163
    H   H96   0.607782  0.562752  0.912112  0.121654
    H   H97   0.005330  0.169625  0.589390  0.112516
    H   H98   0.081093  0.180958  0.610887  0.163264
    H   H99   0.062752  0.107782  0.587888  0.121648
    H   H100  0.830375  0.005330  0.589390  0.112509
    H   H101  0.819042  0.081093  0.610887  0.163265
    H   H102  0.892218  0.062752  0.587888  0.121655
    H   H103  0.994670  0.830375  0.589390  0.112525
    H   H104  0.918907  0.819042  0.610887  0.163266
    H   H105  0.937248  0.892218  0.587888  0.121657
    H   H106  0.567993  0.072123  0.312034  0.165191
    H   H107  0.169625  0.994670  0.589390  0.112522
    H   H108  0.180958  0.918907  0.610887  0.163259
    H   H109  0.107782  0.937248  0.587888  0.121649
    H   H110  0.005330  0.830375  0.410610  0.112515
    H   H111  0.081093  0.819042  0.389113  0.163272
    H   H112  0.062752  0.892218  0.412112  0.121646
    H   H113  0.830375  0.994670  0.410610  0.112525
    H   H114  0.819042  0.918907  0.389113  0.163271
    H   H115  0.892218  0.937248  0.412112  0.121654
    H   H116  0.994670  0.169625  0.410610  0.112521
    H   H117  0.072123  0.432007  0.312034  0.165184
    H   H118  0.918907  0.180958  0.389113  0.163262
    H   H119  0.937248  0.107782  0.412112  0.121638
    H   H120  0.169625  0.005330  0.410610  0.112515
    H   H121  0.180958  0.081093  0.389113  0.163264
    H   H122  0.107782  0.062752  0.412112  0.121632
    H   H123  0.499979  0.857584  0.598800  0.099474
    H   H124  0.571414  0.816005  0.608493  0.157318
    H   H125  0.562680  0.857923  0.564224  0.135441
    H   H126  0.142416  0.499979  0.598800  0.099458
    H   H127  0.183995  0.571414  0.608493  0.157321
    H   H128  0.432007  0.927877  0.312034  0.165129
    H   H129  0.142077  0.562680  0.564224  0.135441
    H   H130  0.500021  0.142416  0.598800  0.099455
    H   H131  0.428586  0.183995  0.608493  0.157309
    H   H132  0.437320  0.142077  0.564224  0.135428
    H   H133  0.857584  0.500021  0.598800  0.099458
    H   H134  0.816005  0.428586  0.608493  0.157304
    H   H135  0.857923  0.437320  0.564224  0.135422
    H   H136  0.499979  0.142416  0.401200  0.099448
    H   H137  0.571414  0.183995  0.391507  0.157317
    H   H138  0.562680  0.142077  0.435776  0.135442
    H   H139  0.927877  0.567993  0.312034  0.165141
    H   H140  0.142416  0.500021  0.401200  0.099445
    H   H141  0.183995  0.428586  0.391507  0.157300
    H   H142  0.142077  0.437320  0.435776  0.135419
    H   H143  0.500021  0.857584  0.401200  0.099355
    H   H144  0.428586  0.816005  0.391507  0.157275
    H   H145  0.437320  0.857923  0.435776  0.135362
    H   H146  0.857584  0.499979  0.401200  0.099370
    H   H147  0.816005  0.571414  0.391507  0.157314
    H   H148  0.857923  0.562680  0.435776  0.135414
    H   H149  0.999979  0.357584  0.098800  0.099458
    H   H150  0.067993  0.427877  0.187966  0.165163
    H   H151  0.071414  0.316005  0.108493  0.157320
    H   H152  0.062680  0.357923  0.064224  0.135451
    H   H153  0.642417  0.999979  0.098800  0.099449
    H   H154  0.683995  0.071414  0.108493  0.157314
    H   H155  0.642077  0.062680  0.064224  0.135424
    H   H156  0.000021  0.642417  0.098800  0.099474
    H   H157  0.928586  0.683995  0.108493  0.157317
    H   H158  0.937320  0.642077  0.064224  0.135437
    H   H159  0.357584  0.000021  0.098800  0.099451
    H   H160  0.316005  0.928586  0.108493  0.157308
    O   O1    0.456254  0.912212  0.018449  -0.667786
    O   O2    0.587788  0.956254  0.518449  -0.667705
    O   O3    0.043746  0.587788  0.518449  -0.667711
    O   O4    0.412212  0.043746  0.518449  -0.667747
    O   O5    0.956254  0.587788  0.481551  -0.667598
    O   O6    0.587788  0.043746  0.481551  -0.667693
    O   O7    0.043746  0.412212  0.481551  -0.667721
    O   O8    0.412212  0.956254  0.481551  -0.667623
    O   O9    0.456335  0.969623  0.946277  -0.618413
    O   O10   0.030377  0.456335  0.946277  -0.618397
    O   O11   0.543665  0.030377  0.946277  -0.618424
    O   O12   0.087788  0.456254  0.018449  -0.667853
    O   O13   0.969623  0.543665  0.946277  -0.618420
    O   O14   0.456335  0.030377  0.053723  -0.618389
    O   O15   0.030377  0.543665  0.053723  -0.618439
    O   O16   0.543665  0.969623  0.053723  -0.618430
    O   O17   0.969623  0.456335  0.053723  -0.618391
    O   O18   0.956335  0.469623  0.446277  -0.618313
    O   O19   0.530377  0.956335  0.446277  -0.618292
    O   O20   0.043665  0.530377  0.446277  -0.618316
    O   O21   0.469623  0.043665  0.446277  -0.618351
    O   O22   0.956335  0.530377  0.553723  -0.618373
    O   O23   0.543746  0.087788  0.018449  -0.667770
    O   O24   0.530377  0.043665  0.553723  -0.618417
    O   O25   0.043665  0.469623  0.553723  -0.618409
    O   O26   0.469623  0.956335  0.553723  -0.618403
    O   O27   0.412068  0.469799  0.026741  -0.659034
    O   O28   0.530201  0.412068  0.026741  -0.659033
    O   O29   0.587932  0.530201  0.026741  -0.659004
    O   O30   0.469799  0.587932  0.026741  -0.658987
    O   O31   0.412068  0.530201  0.973259  -0.659041
    O   O32   0.530201  0.587932  0.973259  -0.658989
    O   O33   0.587932  0.469799  0.973259  -0.659020
    O   O34   0.912212  0.543746  0.018449  -0.667768
    O   O35   0.469799  0.412068  0.973259  -0.659062
    O   O36   0.912068  0.969799  0.526741  -0.658970
    O   O37   0.030201  0.912068  0.526741  -0.658988
    O   O38   0.087932  0.030201  0.526741  -0.658981
    O   O39   0.969799  0.087932  0.526741  -0.658963
    O   O40   0.912068  0.030201  0.473259  -0.658976
    O   O41   0.030201  0.087932  0.473259  -0.658964
    O   O42   0.087932  0.969799  0.473259  -0.658976
    O   O43   0.969799  0.912068  0.473259  -0.658985
    O   O44   0.635046  0.678233  0.042431  -0.533590
    O   O45   0.456254  0.087788  0.981551  -0.667678
    O   O46   0.321767  0.635046  0.042431  -0.533579
    O   O47   0.364954  0.321767  0.042431  -0.533560
    O   O48   0.678233  0.364954  0.042431  -0.533563
    O   O49   0.635046  0.321767  0.957569  -0.533580
    O   O50   0.321767  0.364954  0.957569  -0.533551
    O   O51   0.364954  0.678233  0.957569  -0.533550
    O   O52   0.678233  0.635046  0.957569  -0.533580
    O   O53   0.135046  0.178233  0.542431  -0.533565
    O   O54   0.821767  0.135046  0.542431  -0.533548
    O   O55   0.864954  0.821767  0.542431  -0.533541
    O   O56   0.087788  0.543746  0.981551  -0.667847
    O   O57   0.178233  0.864954  0.542431  -0.533548
    O   O58   0.135046  0.821767  0.457569  -0.533570
    O   O59   0.821767  0.864954  0.457569  -0.533539
    O   O60   0.864954  0.178233  0.457569  -0.533549
    O   O61   0.178233  0.135046  0.457569  -0.533577
    O   O62   0.634367  0.921511  0.614570  -0.526757
    O   O63   0.078489  0.634367  0.614570  -0.526778
    O   O64   0.365633  0.078489  0.614570  -0.526773
    O   O65   0.921511  0.365633  0.614570  -0.526772
    O   O66   0.634367  0.078489  0.385430  -0.526784
    O   O67   0.543746  0.912212  0.981551  -0.667811
    O   O68   0.078489  0.365633  0.385430  -0.526779
    O   O69   0.365633  0.921511  0.385430  -0.526739
    O   O70   0.921511  0.634367  0.385430  -0.526722
    O   O71   0.134367  0.421511  0.114570  -0.526790
    O   O72   0.578489  0.134367  0.114570  -0.526779
    O   O73   0.865633  0.578489  0.114570  -0.526766
    O   O74   0.421511  0.865633  0.114570  -0.526764
    O   O75   0.134367  0.578489  0.885430  -0.526802
    O   O76   0.578489  0.865634  0.885430  -0.526948
    O   O77   0.865634  0.421511  0.885430  -0.526949
    O   O78   0.912212  0.456254  0.981551  -0.667759
    O   O79   0.421511  0.134367  0.885430  -0.526717
    O   O80   0.566092  0.822748  0.083206  -0.529359
    O   O81   0.177252  0.566092  0.083206  -0.529368
    O   O82   0.433908  0.177252  0.083206  -0.529390
    O   O83   0.822748  0.433908  0.083206  -0.529384
    O   O84   0.566092  0.177252  0.916794  -0.529489
    O   O85   0.177252  0.433909  0.916794  -0.529397
    O   O86   0.433908  0.822748  0.916794  -0.529433
    O   O87   0.822748  0.566092  0.916794  -0.529394
    O   O88   0.066092  0.322748  0.583206  -0.529398
    O   O89   0.956254  0.412212  0.518449  -0.667737
    O   O90   0.677252  0.066092  0.583206  -0.529407
    O   O91   0.933908  0.677252  0.583206  -0.529393
    O   O92   0.322748  0.933908  0.583206  -0.529391
    O   O93   0.066092  0.677252  0.416794  -0.529483
    O   O94   0.677252  0.933908  0.416794  -0.529415
    O   O95   0.933908  0.322748  0.416794  -0.529423
    O   O96   0.322748  0.066092  0.416794  -0.529508
    Zn  Zn1   0.439286  0.000000  0.000000  1.158484
    Zn  Zn2   0.500000  0.500000  0.962864  1.163324
    Zn  Zn3   0.000000  0.000000  0.537136  1.163239
    Zn  Zn4   0.000000  0.000000  0.462864  1.163274
    Zn  Zn5   0.000000  0.439286  0.000000  1.158497
    Zn  Zn6   0.560714  0.000000  0.000000  1.158539
    Zn  Zn7   0.000000  0.560714  0.000000  1.158529
    Zn  Zn8   0.939286  0.500000  0.500000  1.158459
    Zn  Zn9   0.500000  0.939286  0.500000  1.158462
    Zn  Zn10  0.060714  0.500000  0.500000  1.158504
    Zn  Zn11  0.500000  0.060714  0.500000  1.158512
    Zn  Zn12  0.500000  0.500000  0.037136  1.163286
