# Generated by REPEAT Assigner based on pymatgen
data_DB0-m2_o11_o26_f0_pcu.sym.76
_audit_creation_date              2022-05-24
_audit_creation_method            REPEAT_Assigner
_cell_length_a                    9.544184
_cell_length_b                    11.068437
_cell_length_c                    17.412001
_cell_angle_alpha                 90.006737
_cell_angle_beta                  86.255752
_cell_angle_gamma                 90.019812
_cell_volume                      1835.463565
_symmetry_space_group_name_H-M    P1
_symmetry_Int_Tables_number       1
loop_
    _symmetry_equiv_pos_site_id
    _symmetry_equiv_pos_as_xyz
    1  x,y,z
loop_
    _atom_site_type_symbol
    _atom_site_label
    _atom_site_fract_x
    _atom_site_fract_y
    _atom_site_fract_z
    _atom_type_partial_charge
    O   O1   0.416043  0.698090  0.505251  -0.652600
    O   O2   0.657734  0.695821  0.500095  -0.472941
    C   C1   0.537576  0.753819  0.502919  0.721908
    O   O3   0.397975  0.517769  0.613957  -0.583207
    O   O4   0.639215  0.523784  0.614036  -0.554945
    C   C2   0.514536  0.519695  0.650325  0.660911
    Cu  Cu1  0.393352  0.522843  0.501956  0.992776
    Cu  Cu2  0.673348  0.519923  0.502312  0.779067
    O   O5   0.409364  0.347028  0.504221  -0.671239
    O   O6   0.650135  0.344690  0.499214  -0.560700
    O   O7   0.428380  0.519438  0.390234  -0.625979
    O   O8   0.668013  0.525269  0.390420  -0.573300
    C   C3   0.528916  0.289167  0.501786  0.790127
    C   C4   0.552550  0.522759  0.353824  0.730449
    C   C5   0.504929  0.517439  0.735195  -0.185341
    C   C6   0.621443  0.492974  0.776714  0.356536
    C   C7   0.609638  0.493948  0.856037  -0.344350
    C   C8   0.482524  0.518893  0.895568  0.235584
    C   C9   0.366017  0.538852  0.854399  -0.242051
    C   C10  0.377030  0.538723  0.774961  -0.055783
    C   C11  0.438453  0.542850  0.152662  -0.203850
    C   C12  0.436773  0.538308  0.231856  -0.057925
    C   C13  0.686400  0.518695  0.224843  0.448026
    C   C14  0.687402  0.524685  0.145609  -0.383977
    C   C15  0.564285  0.535281  0.108818  0.236587
    C   C16  0.466269  0.518852  0.980383  -0.181893
    C   C17  0.574276  0.540350  0.024016  -0.197342
    C   C18  0.560018  0.526132  0.268957  -0.233734
    H   H1   0.336728  0.545933  0.264228  0.112828
    H   H2   0.676644  0.561100  0.997023  0.150641
    H   H3   0.265343  0.556497  0.884384  0.121685
    H   H4   0.339913  0.555509  0.126781  0.107089
    H   H5   0.284244  0.557019  0.744528  0.116772
    H   H6   0.362590  0.500396  0.006436  0.128113
    H   H7   0.701289  0.470729  0.886027  0.127546
    H   H8   0.786314  0.519867  0.111758  0.126216
    C   C19  0.642995  0.091185  0.501975  -0.135136
    C   C20  0.524778  0.156651  0.502497  -0.307711
    H   H9   0.742719  0.138071  0.501242  0.102564
    H   H10  0.421997  0.115701  0.504601  0.154374
    C   C21  0.649377  0.957293  0.503544  0.397263
    C   C22  0.534663  0.886889  0.501165  -0.475020
    H   H11  0.431877  0.925782  0.497056  0.222418
    C   C23  0.103439  0.579797  0.552483  0.041209
    N   N1   0.183875  0.526350  0.500991  -0.304742
    H   H12  0.148834  0.622285  0.601130  0.114477
    H   H13  0.140701  0.503475  0.450513  0.238829
    C   C24  0.949486  0.588874  0.545891  0.121739
    N   N2   0.882853  0.516828  0.503097  -0.293162
    H   H14  0.891818  0.657239  0.579397  0.074700
    H   H15  0.935576  0.441786  0.482010  0.240346
    N   N3   0.753321  0.465362  0.739500  -0.510468
    C   C25  0.788597  0.341535  0.744053  0.489966
    C   C26  0.924864  0.308598  0.756935  -0.378840
    C   C27  0.960830  0.188293  0.761393  -0.018181
    C   C28  0.861276  0.100159  0.752519  -0.224700
    C   C29  0.725788  0.132324  0.738723  -0.012950
    C   C30  0.689202  0.252538  0.734288  -0.316628
    H   H16  0.831466  0.519170  0.758957  0.272643
    H   H17  0.004484  0.376549  0.763811  0.144772
    H   H18  0.067370  0.163100  0.771776  0.094203
    H   H19  0.889626  0.005853  0.755916  0.106868
    H   H20  0.648012  0.063105  0.731025  0.079430
    H   H21  0.582797  0.274697  0.721956  0.158832
    N   N4   0.782656  0.904317  0.510740  -0.543047
    C   C31  0.868967  0.904909  0.441470  0.468628
    C   C32  0.011363  0.926475  0.443978  -0.304419
    C   C33  0.097451  0.925736  0.377244  -0.038987
    C   C34  0.042167  0.902609  0.307640  -0.215917
    C   C35  0.900703  0.879890  0.304776  0.123828
    C   C36  0.814004  0.880797  0.371331  -0.391593
    H   H22  0.833457  0.942312  0.555138  0.295725
    H   H23  0.056769  0.943997  0.498164  0.112496
    H   H24  0.208594  0.942907  0.379588  0.098959
    H   H25  0.109858  0.901495  0.255393  0.096348
    H   H26  0.857586  0.860627  0.250209  0.052401
    H   H27  0.704160  0.860416  0.367055  0.154050
    N   N5   0.815028  0.504257  0.259327  -0.474233
    C   C37  0.886049  0.397031  0.235870  0.403528
    C   C38  0.029558  0.399106  0.218906  -0.283162
    C   C39  0.099461  0.295124  0.195490  -0.101298
    C   C40  0.026591  0.188488  0.189302  -0.168231
    C   C41  0.883822  0.185589  0.207056  -0.064161
    C   C42  0.813449  0.289365  0.230502  -0.247274
    H   H28  0.878323  0.579002  0.251081  0.215376
    H   H29  0.088179  0.482089  0.223374  0.141270
    H   H30  0.211579  0.297302  0.181904  0.116400
    H   H31  0.081493  0.107068  0.170852  0.104198
    H   H32  0.826846  0.101704  0.202780  0.085032
    H   H33  0.701867  0.284192  0.245387  0.125286
