# Generated by REPEAT Assigner based on pymatgen
data_DB0-m3_o25_o26_f0_pcu.sym.76
_audit_creation_date              2022-05-24
_audit_creation_method            REPEAT_Assigner
_cell_length_a                    14.842739
_cell_length_b                    16.026614
_cell_length_c                    17.453365
_cell_angle_alpha                 90.002933
_cell_angle_beta                  86.287559
_cell_angle_gamma                 90.004570
_cell_volume                      4143.074111
_symmetry_space_group_name_H-M    P1
_symmetry_Int_Tables_number       1
loop_
    _symmetry_equiv_pos_site_id
    _symmetry_equiv_pos_as_xyz
    1  x,y,z
loop_
    _atom_site_type_symbol
    _atom_site_label
    _atom_site_fract_x
    _atom_site_fract_y
    _atom_site_fract_z
    _atom_type_partial_charge
    O   O1   0.422147  0.620241  0.508408  -0.698413
    O   O2   0.576708  0.371031  0.510209  -0.704391
    O   O3   0.577849  0.619646  0.507262  -0.713887
    O   O4   0.421012  0.371626  0.511360  -0.716604
    C   C1   0.500209  0.658684  0.507427  0.944693
    C   C2   0.498648  0.332586  0.511205  0.910659
    O   O5   0.413821  0.497569  0.624269  -0.636068
    O   O6   0.585036  0.493743  0.394361  -0.636432
    O   O7   0.569340  0.497011  0.623117  -0.656512
    O   O8   0.429521  0.494297  0.395521  -0.659174
    C   C3   0.489221  0.497875  0.659671  0.690080
    C   C4   0.509630  0.493422  0.358962  0.724648
    Zn  Zn1  0.396850  0.496008  0.510024  1.083527
    Zn  Zn2  0.602008  0.495264  0.508610  1.088239
    C   C5   0.483865  0.500633  0.743896  0.016137
    C   C6   0.514914  0.491671  0.274711  -0.005083
    C   C7   0.561774  0.504241  0.782898  -0.167826
    C   C8   0.436899  0.489764  0.235765  -0.136251
    C   C9   0.557052  0.506705  0.861914  -0.163662
    C   C10  0.441477  0.485993  0.156803  -0.170340
    C   C11  0.474201  0.505914  0.903204  0.034059
    C   C12  0.524263  0.485690  0.115400  0.024629
    C   C13  0.395819  0.505062  0.864361  0.359782
    C   C14  0.602726  0.488535  0.154083  0.339683
    C   C15  0.400964  0.500662  0.784841  -0.278264
    C   C16  0.597760  0.490287  0.233696  -0.262920
    C   C17  0.467143  0.510602  0.987767  -0.176889
    C   C18  0.531131  0.480433  0.030843  -0.117720
    H   H1   0.627431  0.505494  0.752343  0.123123
    H   H2   0.371256  0.489540  0.266365  0.116423
    H   H3   0.658790  0.488310  0.264099  0.148041
    H   H4   0.340072  0.495090  0.754590  0.155500
    H   H5   0.590483  0.451074  0.003567  0.106009
    H   H6   0.407840  0.540096  0.014978  0.150048
    H   H7   0.379064  0.480890  0.128673  0.122936
    H   H8   0.619346  0.511793  0.890229  0.138866
    C   C19  0.461621  0.023611  0.445521  -0.168573
    C   C20  0.537356  0.967910  0.570464  -0.236268
    C   C21  0.546863  0.969140  0.444908  -0.222204
    C   C22  0.452215  0.021908  0.571074  -0.211073
    H   H9   0.588263  0.946679  0.393876  0.101479
    H   H10  0.410497  0.043936  0.622089  0.089566
    H   H11  0.427843  0.047276  0.395014  0.086749
    H   H12  0.571454  0.944678  0.620964  0.096063
    C   C23  0.500700  0.748194  0.507159  -0.249766
    C   C24  0.498181  0.243074  0.511037  -0.226102
    C   C25  0.418905  0.968112  0.507681  0.497609
    C   C26  0.580137  0.023174  0.508114  0.533348
    C   C27  0.501608  0.914649  0.507322  0.357367
    C   C28  0.497398  0.076633  0.508967  0.323146
    C   C29  0.501164  0.823360  0.507179  -0.204341
    C   C30  0.497756  0.167911  0.510358  -0.215297
    C   C31  0.029608  0.572160  0.495841  -0.221988
    C   C32  0.969261  0.419153  0.522701  -0.172941
    C   C33  0.975789  0.520922  0.441377  -0.142297
    C   C34  0.023074  0.470390  0.577166  -0.202291
    H   H13  0.953660  0.541850  0.385026  0.090864
    H   H14  0.045201  0.449462  0.633517  0.102927
    H   H15  0.057178  0.635641  0.484737  0.111288
    H   H16  0.941697  0.355668  0.533780  0.096543
    H   H17  0.064474  0.402519  0.410757  0.103572
    H   H18  0.934393  0.588793  0.607787  0.093076
    N   N1   0.736802  0.494853  0.507894  -0.030719
    N   N2   0.262057  0.496418  0.510735  -0.027388
    C   C35  0.965271  0.546562  0.563123  -0.147619
    C   C36  0.033597  0.444751  0.455420  -0.200171
    C   C37  0.913210  0.495329  0.508669  0.730318
    C   C38  0.085656  0.495983  0.509876  0.770042
    C   C39  0.814722  0.495012  0.508141  -0.247842
    C   C40  0.184140  0.496278  0.510447  -0.253659
    O   O9   0.315427  0.503658  0.905263  -0.435587
    C   C41  0.239662  0.540847  0.883077  0.840051
    O   O10  0.243693  0.595437  0.834290  -0.547134
    C   C42  0.151118  0.520242  0.923607  -0.570458
    H   H19  0.160953  0.471716  0.967583  0.141444
    H   H20  0.104327  0.496549  0.881604  0.161358
    H   H21  0.122176  0.577093  0.951823  0.174231
    O   O11  0.683089  0.486619  0.113150  -0.398607
    C   C43  0.757857  0.527320  0.132983  0.809150
    O   O12  0.752410  0.585157  0.178467  -0.531447
    C   C44  0.846894  0.506268  0.093554  -0.569226
    H   H22  0.838322  0.454470  0.052525  0.138399
    H   H23  0.894346  0.486874  0.136748  0.162421
    H   H24  0.874279  0.561753  0.062023  0.176368
    O   O13  0.666602  0.053293  0.510014  -0.580380
    C   C45  0.705482  0.100060  0.452700  0.853631
    O   O14  0.664931  0.115955  0.395921  -0.557019
    C   C46  0.798759  0.132410  0.458836  -0.524644
    H   H25  0.824560  0.111645  0.513930  0.135664
    H   H26  0.797914  0.201569  0.456778  0.157924
    H   H27  0.843234  0.108104  0.410403  0.144573
    O   O15  0.332197  0.937942  0.509061  -0.563780
    C   C47  0.302058  0.892495  0.450872  0.834139
    O   O16  0.351228  0.877906  0.393766  -0.549958
    C   C48  0.207898  0.860000  0.456440  -0.516780
    H   H28  0.173727  0.879489  0.511950  0.133082
    H   H29  0.209162  0.790904  0.453027  0.159497
    H   H30  0.170709  0.885411  0.408523  0.143020
