# generated using pymatgen
data_Zn2H17C29N6O8F3
_symmetry_space_group_name_H-M   'P 1'
_cell_length_a   6.59437600
_cell_length_b   14.24076000
_cell_length_c   15.91908500
_cell_angle_alpha   96.10334400
_cell_angle_beta   81.46079100
_cell_angle_gamma   89.90674100
_symmetry_Int_Tables_number   1
_chemical_formula_structural   Zn2H17C29N6O8F3
_chemical_formula_sum   'Zn2 H17 C29 N6 O8 F3'
_cell_volume   1469.76158609
_cell_formula_units_Z   1
loop_
 _symmetry_equiv_pos_site_id
 _symmetry_equiv_pos_as_xyz
  1  'x, y, z'
loop_
 _atom_site_type_symbol
 _atom_site_label
 _atom_site_symmetry_multiplicity
 _atom_site_fract_x
 _atom_site_fract_y
 _atom_site_fract_z
 _atom_site_occupancy
  Zn  Zn1  1  0.00847700  0.10660800  0.50312500  1
  Zn  Zn2  1  0.99048900  0.89658900  0.49760300  1
  H  H1  1  0.03533500  0.99115700  0.77075700  1
  H  H2  1  0.52933400  0.04510800  0.91199200  1
  H  H3  1  0.76425600  0.05231200  0.77799600  1
  H  H4  1  0.46954300  0.95813600  0.08874500  1
  H  H5  1  0.23466300  0.95091200  0.22274800  1
  H  H6  1  0.96359200  0.01206800  0.22996100  1
  H  H7  1  0.80646300  0.39754300  0.40688300  1
  H  H8  1  0.33556300  0.41732800  0.46313400  1
  H  H9  1  0.18321500  0.41585100  0.37723900  1
  H  H10  1  0.22439100  0.57530700  0.38692300  1
  H  H11  1  0.31819500  0.57693500  0.48816200  1
  H  H12  1  0.88343800  0.43415000  0.63634900  1
  H  H13  1  0.15711800  0.45179500  0.61224000  1
  H  H14  1  0.81011100  0.58684700  0.62229000  1
  H  H15  1  0.67944300  0.42539900  0.51569600  1
  H  H16  1  0.66968900  0.57748400  0.48718100  1
  H  H17  1  0.08035100  0.60840000  0.62392000  1
  C  C1  1  0.32617700  0.01063900  0.69689400  1
  C  C2  1  0.19585000  0.00460300  0.77227000  1
  C  C3  1  0.26799100  0.01641200  0.84942600  1
  C  C4  1  0.47180200  0.03549700  0.85156500  1
  C  C5  1  0.60336900  0.04007500  0.77628100  1
  C  C6  1  0.53218600  0.02665900  0.69863200  1
  C  C7  1  0.87106300  0.99427400  0.07237500  1
  C  C8  1  0.12782000  0.00896400  0.92835100  1
  C  C9  1  0.52709600  0.96773600  0.14916900  1
  C  C10  1  0.39555400  0.96314400  0.22445700  1
  C  C11  1  0.46676600  0.97654200  0.30210000  1
  C  C12  1  0.67277600  0.99256300  0.30383200  1
  C  C13  1  0.80307500  0.99861900  0.22845300  1
  C  C14  1  0.73090800  0.98682100  0.15130200  1
  C  C15  1  0.68227500  0.01807100  0.62080400  1
  C  C16  1  0.23598200  0.00664800  0.61841900  1
  C  C17  1  0.31669200  0.98512700  0.37992800  1
  C  C18  1  0.76298600  0.99655000  0.38230600  1
  C  C19  1  0.81486500  0.43978300  0.46890800  1
  C  C20  1  0.19307500  0.44425900  0.44409200  1
  C  C21  1  0.19519000  0.55113000  0.45149400  1
  C  C22  1  0.00837800  0.41336100  0.50233400  1
  C  C23  1  0.81802700  0.54381600  0.45673000  1
  C  C24  1  0.99034900  0.58981900  0.49832000  1
  C  C25  1  0.96785400  0.56763400  0.59014200  1
  C  C26  1  0.00651800  0.46296900  0.59142200  1
  C  C27  1  0.98138900  0.69218300  0.49621200  1
  C  C28  1  0.01750200  0.31100800  0.50448700  1
  C  C29  1  0.85018200  0.55558400  0.36223800  1
  N  N1  1  0.19724000  0.02022700  0.00400300  1
  N  N2  1  0.06993000  0.01298900  0.07537100  1
  N  N3  1  0.80164200  0.98301200  0.99672300  1
  N  N4  1  0.92895200  0.99025000  0.92535500  1
  N  N5  1  0.97735000  0.77327600  0.49518000  1
  N  N6  1  0.02161600  0.22992100  0.50554700  1
  O  O1  1  0.75388200  0.93309600  0.59099900  1
  O  O2  1  0.76233900  0.09532100  0.59289800  1
  O  O3  1  0.18289300  0.08705800  0.59376700  1
  O  O4  1  0.17587400  0.92438500  0.58670400  1
  O  O5  1  0.24508400  0.07010200  0.40973000  1
  O  O6  1  0.23662800  0.90787600  0.40783100  1
  O  O7  1  0.81607400  0.91614000  0.40696100  1
  O  O8  1  0.82309300  0.07881200  0.41402400  1
  F  F1  1  0.68214600  0.52157900  0.32680300  1
  F  F2  1  0.02394900  0.50569100  0.32215500  1
  F  F3  1  0.87287000  0.65018800  0.35136100  1
