# generated using pymatgen
data_Cu3H38C57(NO3)4
_symmetry_space_group_name_H-M   'P 1'
_cell_length_a   30.16486900
_cell_length_b   30.17866000
_cell_length_c   24.42646600
_cell_angle_alpha   90.00000000
_cell_angle_beta   128.12389200
_cell_angle_gamma   90.00000000
_symmetry_Int_Tables_number   1
_chemical_formula_structural   Cu3H38C57(NO3)4
_chemical_formula_sum   'Cu12 H152 C228 N16 O48'
_cell_volume   17492.78053719
_cell_formula_units_Z   4
loop_
 _symmetry_equiv_pos_site_id
 _symmetry_equiv_pos_as_xyz
  1  'x, y, z'
loop_
 _atom_site_type_symbol
 _atom_site_label
 _atom_site_symmetry_multiplicity
 _atom_site_fract_x
 _atom_site_fract_y
 _atom_site_fract_z
 _atom_site_occupancy
  Cu  Cu1  1  0.78559000  0.71975000  0.49880700  1
  Cu  Cu2  1  0.21441000  0.71975000  0.50119300  1
  Cu  Cu3  1  0.28559000  0.21975000  0.49880700  1
  Cu  Cu4  1  0.71441000  0.21975000  0.50119300  1
  Cu  Cu5  1  0.72340300  0.78138700  0.50086500  1
  Cu  Cu6  1  0.27659700  0.78138700  0.49913500  1
  Cu  Cu7  1  0.22340300  0.28138700  0.50086500  1
  Cu  Cu8  1  0.77659700  0.28138700  0.49913500  1
  Cu  Cu9  1  0.96391600  0.00474900  0.43070100  1
  Cu  Cu10  1  0.03608400  0.00474900  0.56929900  1
  Cu  Cu11  1  0.46391600  0.50474900  0.43070100  1
  Cu  Cu12  1  0.53608400  0.50474900  0.56929900  1
  H  H1  1  0.61822800  0.81819700  0.28210300  1
  H  H2  1  0.38177200  0.81819700  0.71789700  1
  H  H3  1  0.11822800  0.31819700  0.28210300  1
  H  H4  1  0.88177200  0.31819700  0.71789700  1
  H  H5  1  0.55396200  0.81849000  0.15566000  1
  H  H6  1  0.44603800  0.81849000  0.84434000  1
  H  H7  1  0.05396200  0.31849000  0.15566000  1
  H  H8  1  0.94603800  0.31849000  0.84434000  1
  H  H9  1  0.60415900  0.68619000  0.15416500  1
  H  H10  1  0.39584100  0.68619000  0.84583500  1
  H  H11  1  0.10415900  0.18619000  0.15416500  1
  H  H12  1  0.89584100  0.18619000  0.84583500  1
  H  H13  1  0.66938100  0.68646700  0.28039900  1
  H  H14  1  0.33061900  0.68646700  0.71960100  1
  H  H15  1  0.16938100  0.18646700  0.28039900  1
  H  H16  1  0.83061900  0.18646700  0.71960100  1
  H  H17  1  0.83300200  0.94881300  0.48280800  1
  H  H18  1  0.16699800  0.94881300  0.51719200  1
  H  H19  1  0.33300200  0.44881300  0.48280800  1
  H  H20  1  0.66699800  0.44881300  0.51719200  1
  H  H21  1  0.86944700  0.89064600  0.59370200  1
  H  H22  1  0.13055300  0.89064600  0.40629800  1
  H  H23  1  0.36944700  0.39064600  0.59370200  1
  H  H24  1  0.63055300  0.39064600  0.40629800  1
  H  H25  1  0.97227300  0.88032900  0.61466100  1
  H  H26  1  0.02772700  0.88032900  0.38533900  1
  H  H27  1  0.47227300  0.38032900  0.61466100  1
  H  H28  1  0.52772700  0.38032900  0.38533900  1
  H  H29  1  0.92452400  0.80680900  0.52310800  1
  H  H30  1  0.07547600  0.80680900  0.47689100  1
  H  H31  1  0.42452400  0.30680900  0.52310800  1
  H  H32  1  0.57547600  0.30680900  0.47689100  1
  H  H33  1  0.88791100  0.86491100  0.41240300  1
  H  H34  1  0.11208900  0.86491100  0.58759700  1
  H  H35  1  0.38791100  0.36491100  0.41240300  1
  H  H36  1  0.61208900  0.36491100  0.58759700  1
  H  H37  1  0.78534900  0.87555600  0.39135100  1
  H  H38  1  0.21465100  0.87555600  0.60864900  1
  H  H39  1  0.28534900  0.37555600  0.39135100  1
  H  H40  1  0.71465100  0.37555600  0.60864900  1
  H  H41  1  0.79317100  0.76012200  0.71598900  1
  H  H42  1  0.20682900  0.76012200  0.28401100  1
  H  H43  1  0.29317100  0.26012200  0.71598900  1
  H  H44  1  0.70682900  0.26012200  0.28401100  1
  H  H45  1  0.85343800  0.75796700  0.84197600  1
  H  H46  1  0.14656200  0.75796700  0.15802400  1
  H  H47  1  0.35343800  0.25796700  0.84197600  1
  H  H48  1  0.64656200  0.25796700  0.15802400  1
  H  H49  1  0.99609700  0.73381300  0.84782400  1
  H  H50  1  0.00390300  0.73381300  0.15217500  1
  H  H51  1  0.49609700  0.23381300  0.84782400  1
  H  H52  1  0.50390300  0.23381300  0.15217500  1
  H  H53  1  0.56187400  0.66262900  0.50797300  1
  H  H54  1  0.43812500  0.66262900  0.49202700  1
  H  H55  1  0.06187400  0.16262900  0.50797300  1
  H  H56  1  0.93812500  0.16262900  0.49202700  1
  H  H57  1  0.57058900  0.68027000  0.40293700  1
  H  H58  1  0.42941100  0.68027000  0.59706300  1
  H  H59  1  0.07058900  0.18027000  0.40293700  1
  H  H60  1  0.92941100  0.18027000  0.59706300  1
  H  H61  1  0.68217800  0.57563300  0.59355100  1
  H  H62  1  0.31782200  0.57563300  0.40644900  1
  H  H63  1  0.18217800  0.07563300  0.59355100  1
  H  H64  1  0.81782200  0.07563300  0.40644900  1
  H  H65  1  0.68029100  0.66718100  0.60321400  1
  H  H66  1  0.31970900  0.66718100  0.39678600  1
  H  H67  1  0.18029100  0.16718100  0.60321400  1
  H  H68  1  0.81970900  0.16718100  0.39678600  1
  H  H69  1  0.90541600  0.82559800  0.68550100  1
  H  H70  1  0.96953500  0.84533200  0.70344400  1
  H  H71  1  0.97184400  0.82187100  0.77266000  1
  H  H72  1  0.00199600  0.79961800  0.65914900  1
  H  H73  1  0.01908100  0.72623100  0.63322400  1
  H  H74  1  0.99007100  0.65938000  0.66124300  1
  H  H75  1  0.94296000  0.66627300  0.71452900  1
  H  H76  1  0.09458400  0.82559800  0.31449900  1
  H  H77  1  0.03046500  0.84533200  0.29655500  1
  H  H78  1  0.02815600  0.82187100  0.22734000  1
  H  H79  1  0.99800300  0.79961800  0.34085100  1
  H  H80  1  0.98091900  0.72623100  0.36677600  1
  H  H81  1  0.00992900  0.65938000  0.33875700  1
  H  H82  1  0.05704000  0.66627300  0.28547100  1
  H  H83  1  0.40541600  0.32559800  0.68550100  1
  H  H84  1  0.46953500  0.34533200  0.70344400  1
  H  H85  1  0.47184400  0.32187100  0.77266000  1
  H  H86  1  0.50199600  0.29961800  0.65914900  1
  H  H87  1  0.51908100  0.22623100  0.63322400  1
  H  H88  1  0.49007100  0.15938000  0.66124300  1
  H  H89  1  0.44296000  0.16627300  0.71452900  1
  H  H90  1  0.59458400  0.32559800  0.31449900  1
  H  H91  1  0.53046500  0.34533200  0.29655500  1
  H  H92  1  0.52815600  0.32187100  0.22734000  1
  H  H93  1  0.49800300  0.29961800  0.34085100  1
  H  H94  1  0.48091900  0.22623100  0.36677600  1
  H  H95  1  0.50992900  0.15938000  0.33875700  1
  H  H96  1  0.55704000  0.16627300  0.28547100  1
  H  H97  1  0.54841800  0.65171700  0.30033500  1
  H  H98  1  0.49170000  0.64423600  0.30714200  1
  H  H99  1  0.47992000  0.63374700  0.22691600  1
  H  H100  1  0.47450700  0.56168400  0.20017200  1
  H  H101  1  0.50058100  0.48406400  0.23002300  1
  H  H102  1  0.56997700  0.46183700  0.35209600  1
  H  H103  1  0.61320900  0.51721400  0.44424600  1
  H  H104  1  0.45158200  0.65171700  0.69966400  1
  H  H105  1  0.50830000  0.64423600  0.69285800  1
  H  H106  1  0.52008000  0.63374700  0.77308400  1
  H  H107  1  0.52549300  0.56168400  0.79982800  1
  H  H108  1  0.49941900  0.48406400  0.76997700  1
  H  H109  1  0.43002300  0.46183700  0.64790300  1
  H  H110  1  0.38679000  0.51721400  0.55575400  1
  H  H111  1  0.04841800  0.15171700  0.30033500  1
  H  H112  1  0.99170000  0.14423600  0.30714200  1
  H  H113  1  0.97992000  0.13374700  0.22691600  1
  H  H114  1  0.97450700  0.06168400  0.20017200  1
  H  H115  1  0.00058100  0.98406400  0.23002300  1
  H  H116  1  0.06997700  0.96183700  0.35209600  1
  H  H117  1  0.11320900  0.01721400  0.44424600  1
  H  H118  1  0.95158200  0.15171700  0.69966400  1
  H  H119  1  0.00830000  0.14423600  0.69285800  1
  H  H120  1  0.02008000  0.13374700  0.77308400  1
  H  H121  1  0.02549300  0.06168400  0.79982800  1
  H  H122  1  0.99941900  0.98406400  0.76997700  1
  H  H123  1  0.93002300  0.96183700  0.64790300  1
  H  H124  1  0.88679000  0.01721400  0.55575400  1
  H  H125  1  0.71879800  0.51997500  0.56803900  1
  H  H126  1  0.76888800  0.56568800  0.61383900  1
  H  H127  1  0.79041500  0.51395400  0.60092600  1
  H  H128  1  0.80129300  0.51396700  0.51773700  1
  H  H129  1  0.77875300  0.53953600  0.40857500  1
  H  H130  1  0.70402900  0.59469200  0.33751400  1
  H  H131  1  0.65205800  0.62405200  0.37577000  1
  H  H132  1  0.28120200  0.51997500  0.43196100  1
  H  H133  1  0.23111200  0.56568800  0.38616100  1
  H  H134  1  0.20958500  0.51395400  0.39907400  1
  H  H135  1  0.19870700  0.51396700  0.48226200  1
  H  H136  1  0.22124700  0.53953600  0.59142500  1
  H  H137  1  0.29597100  0.59469200  0.66248600  1
  H  H138  1  0.34794200  0.62405200  0.62423000  1
  H  H139  1  0.21879800  0.01997500  0.56803900  1
  H  H140  1  0.26888800  0.06568800  0.61383900  1
  H  H141  1  0.29041500  0.01395400  0.60092600  1
  H  H142  1  0.30129300  0.01396700  0.51773700  1
  H  H143  1  0.27875300  0.03953600  0.40857500  1
  H  H144  1  0.20402900  0.09469200  0.33751400  1
  H  H145  1  0.15205800  0.12405200  0.37577000  1
  H  H146  1  0.78120200  0.01997500  0.43196100  1
  H  H147  1  0.73111200  0.06568800  0.38616100  1
  H  H148  1  0.70958500  0.01395400  0.39907400  1
  H  H149  1  0.69870700  0.01396700  0.48226200  1
  H  H150  1  0.72124700  0.03953600  0.59142500  1
  H  H151  1  0.79597100  0.09469200  0.66248600  1
  H  H152  1  0.84794200  0.12405200  0.62423000  1
  C  C1  1  0.81490300  0.81141400  0.50184200  1
  C  C2  1  0.18509700  0.81141400  0.49815700  1
  C  C3  1  0.31490300  0.31141400  0.50184200  1
  C  C4  1  0.68509700  0.31141400  0.49815700  1
  C  C5  1  0.68740400  0.75243700  0.36616900  1
  C  C6  1  0.31259600  0.75243700  0.63383100  1
  C  C7  1  0.18740400  0.25243700  0.36616900  1
  C  C8  1  0.81259600  0.25243700  0.63383100  1
  C  C9  1  0.69371400  0.68972800  0.49714100  1
  C  C10  1  0.30628600  0.68972800  0.50285900  1
  C  C11  1  0.19371400  0.18972800  0.49714100  1
  C  C12  1  0.80628600  0.18972800  0.50285900  1
  C  C13  1  0.82218800  0.74914100  0.63355200  1
  C  C14  1  0.17781100  0.74914100  0.36644800  1
  C  C15  1  0.32218800  0.24914100  0.63355200  1
  C  C16  1  0.67781100  0.24914100  0.36644800  1
  C  C17  1  0.61532600  0.78907800  0.25429500  1
  C  C18  1  0.38467400  0.78907800  0.74570500  1
  C  C19  1  0.11532600  0.28907800  0.25429500  1
  C  C20  1  0.88467400  0.28907800  0.74570500  1
  C  C21  1  0.57917600  0.78932600  0.18252800  1
  C  C22  1  0.42082400  0.78932600  0.81747100  1
  C  C23  1  0.07917600  0.28932600  0.18252800  1
  C  C24  1  0.92082400  0.28932600  0.81747100  1
  C  C25  1  0.57447500  0.75236100  0.14585200  1
  C  C26  1  0.42552500  0.75236100  0.85414800  1
  C  C27  1  0.07447500  0.25236100  0.14585200  1
  C  C28  1  0.92552500  0.25236100  0.85414800  1
  C  C29  1  0.60686500  0.71538600  0.18169500  1
  C  C30  1  0.39313500  0.71538600  0.81830400  1
  C  C31  1  0.10686500  0.21538600  0.18169500  1
  C  C32  1  0.89313500  0.21538600  0.81830400  1
  C  C33  1  0.64427800  0.71566600  0.25340700  1
  C  C34  1  0.35572200  0.71566600  0.74659300  1
  C  C35  1  0.14427800  0.21566600  0.25340700  1
  C  C36  1  0.85572200  0.21566600  0.74659300  1
  C  C37  1  0.64841800  0.75242400  0.29001800  1
  C  C38  1  0.35158200  0.75242400  0.70998100  1
  C  C39  1  0.14841800  0.25242400  0.29001800  1
  C  C40  1  0.85158200  0.25242400  0.70998100  1
  C  C41  1  0.46450300  0.75236900  0.93041900  1
  C  C42  1  0.53549700  0.75236900  0.06958100  1
  C  C43  1  0.96450300  0.25236900  0.93041900  1
  C  C44  1  0.03549700  0.25236900  0.06958100  1
  C  C45  1  0.87418900  0.88530000  0.55265200  1
  C  C46  1  0.12581100  0.88530000  0.44734800  1
  C  C47  1  0.37418900  0.38530000  0.55265200  1
  C  C48  1  0.62581100  0.38530000  0.44734800  1
  C  C49  1  0.85333200  0.91617900  0.49191700  1
  C  C50  1  0.14666800  0.91617900  0.50808300  1
  C  C51  1  0.35333200  0.41617900  0.49191700  1
  C  C52  1  0.64666800  0.41617900  0.50808300  1
  C  C53  1  0.90794400  0.90883300  0.50346600  1
  C  C54  1  0.09205600  0.90883300  0.49653400  1
  C  C55  1  0.40794400  0.40883300  0.50346600  1
  C  C56  1  0.59205600  0.40883300  0.49653400  1
  C  C57  1  0.92937300  0.87858300  0.56414600  1
  C  C58  1  0.07062700  0.87858300  0.43585300  1
  C  C59  1  0.42937300  0.37858300  0.56414600  1
  C  C60  1  0.57062700  0.37858300  0.43585300  1
  C  C61  1  0.90414500  0.83942300  0.51422700  1
  C  C62  1  0.09585500  0.83942300  0.48577200  1
  C  C63  1  0.40414500  0.33942300  0.51422700  1
  C  C64  1  0.59585500  0.33942300  0.48577200  1
  C  C65  1  0.88331500  0.87030700  0.45358100  1
  C  C66  1  0.11668500  0.87030700  0.54641900  1
  C  C67  1  0.38331500  0.37030700  0.45358100  1
  C  C68  1  0.61668500  0.37030700  0.54641900  1
  C  C69  1  0.82816100  0.87709700  0.44208100  1
  C  C70  1  0.17183900  0.87709700  0.55791900  1
  C  C71  1  0.32816100  0.37709700  0.44208100  1
  C  C72  1  0.67183900  0.37709700  0.55791900  1
  C  C73  1  0.84955600  0.84679300  0.50276400  1
  C  C74  1  0.15044400  0.84679300  0.49723600  1
  C  C75  1  0.34955600  0.34679300  0.50276400  1
  C  C76  1  0.65044400  0.34679300  0.49723600  1
  C  C77  1  0.83778100  0.75437700  0.74465000  1
  C  C78  1  0.16221900  0.75437700  0.25535000  1
  C  C79  1  0.33778100  0.25437700  0.74465000  1
  C  C80  1  0.66221900  0.25437700  0.25535000  1
  C  C81  1  0.87203400  0.75276500  0.81630000  1
  C  C82  1  0.12796600  0.75276500  0.18370000  1
  C  C83  1  0.37203400  0.25276500  0.81630000  1
  C  C84  1  0.62796600  0.25276500  0.18370000  1
  C  C85  1  0.92917100  0.74525800  0.85417800  1
  C  C86  1  0.07082900  0.74525800  0.14582200  1
  C  C87  1  0.42917100  0.24525800  0.85417800  1
  C  C88  1  0.57082900  0.24525800  0.14582200  1
  C  C89  1  0.95147400  0.73913900  0.81955300  1
  C  C90  1  0.04852500  0.73913900  0.18044600  1
  C  C91  1  0.45147400  0.23913900  0.81955300  1
  C  C92  1  0.54852500  0.23913900  0.18044600  1
  C  C93  1  0.91734500  0.74043500  0.74795300  1
  C  C94  1  0.08265500  0.74043500  0.25204600  1
  C  C95  1  0.41734500  0.24043500  0.74795300  1
  C  C96  1  0.58265500  0.24043500  0.25204600  1
  C  C97  1  0.85991000  0.74781300  0.70987000  1
  C  C98  1  0.14009000  0.74781300  0.29012900  1
  C  C99  1  0.35991000  0.24781300  0.70987000  1
  C  C100  1  0.64009000  0.24781300  0.29012900  1
  C  C101  1  0.03384200  0.74474500  0.06956800  1
  C  C102  1  0.96615800  0.74474500  0.93043100  1
  C  C103  1  0.53384200  0.24474500  0.06956800  1
  C  C104  1  0.46615800  0.24474500  0.93043100  1
  C  C105  1  0.59425300  0.65376900  0.44220700  1
  C  C106  1  0.40574700  0.65376900  0.55779300  1
  C  C107  1  0.09425300  0.15376900  0.44220700  1
  C  C108  1  0.90574700  0.15376900  0.55779300  1
  C  C109  1  0.59160100  0.64643300  0.50189400  1
  C  C110  1  0.40839900  0.64643300  0.49810600  1
  C  C111  1  0.09160100  0.14643300  0.50189400  1
  C  C112  1  0.90839900  0.14643300  0.49810600  1
  C  C113  1  0.59516500  0.59710100  0.49535700  1
  C  C114  1  0.40483500  0.59710100  0.50464200  1
  C  C115  1  0.09516500  0.09710100  0.49535700  1
  C  C116  1  0.90483500  0.09710100  0.50464200  1
  C  C117  1  0.59755100  0.60382800  0.43600500  1
  C  C118  1  0.40244900  0.60382800  0.56399500  1
  C  C119  1  0.09755100  0.10382800  0.43600500  1
  C  C120  1  0.90244900  0.10382800  0.56399500  1
  C  C121  1  0.66137900  0.60528100  0.48822600  1
  C  C122  1  0.33862100  0.60528100  0.51177400  1
  C  C123  1  0.16137900  0.10528100  0.48822600  1
  C  C124  1  0.83862100  0.10528100  0.51177400  1
  C  C125  1  0.65872400  0.59793100  0.54787000  1
  C  C126  1  0.34127600  0.59793100  0.45212900  1
  C  C127  1  0.15872400  0.09793100  0.54787000  1
  C  C128  1  0.84127600  0.09793100  0.45212900  1
  C  C129  1  0.65538800  0.64787200  0.55412700  1
  C  C130  1  0.34461100  0.64787200  0.44587300  1
  C  C131  1  0.15538800  0.14787200  0.55412700  1
  C  C132  1  0.84461100  0.14787200  0.44587300  1
  C  C133  1  0.65784500  0.65467100  0.49482900  1
  C  C134  1  0.34215500  0.65467100  0.50517100  1
  C  C135  1  0.15784500  0.15467100  0.49482900  1
  C  C136  1  0.84215500  0.15467100  0.50517100  1
  C  C137  1  0.44076100  0.56440900  0.50266100  1
  C  C138  1  0.55923800  0.56440900  0.49733900  1
  C  C139  1  0.94076100  0.06440900  0.50266100  1
  C  C140  1  0.05923800  0.06440900  0.49733900  1
  C  C141  1  0.94135600  0.94447000  0.50249200  1
  C  C142  1  0.05864400  0.94447000  0.49750700  1
  C  C143  1  0.44135600  0.44447000  0.50249200  1
  C  C144  1  0.55864400  0.44447000  0.49750700  1
  C  C145  1  0.94418100  0.73699400  0.71477100  1
  C  C146  1  0.96111200  0.77466900  0.69987700  1
  C  C147  1  0.95128500  0.81948300  0.71632900  1
  C  C148  1  0.98816100  0.77058800  0.67068900  1
  C  C149  1  0.99806600  0.72925400  0.65628100  1
  C  C150  1  0.98182300  0.69179400  0.67198000  1
  C  C151  1  0.95538900  0.69566900  0.70179800  1
  C  C152  1  0.05581900  0.73699400  0.28522800  1
  C  C153  1  0.03888800  0.77466900  0.30012300  1
  C  C154  1  0.04871400  0.81948300  0.28367100  1
  C  C155  1  0.01183900  0.77058800  0.32931000  1
  C  C156  1  0.00193400  0.72925400  0.34371900  1
  C  C157  1  0.01817700  0.69179400  0.32801900  1
  C  C158  1  0.04461100  0.69566900  0.29820200  1
  C  C159  1  0.44418100  0.23699400  0.71477100  1
  C  C160  1  0.46111200  0.27466900  0.69987700  1
  C  C161  1  0.45128500  0.31948300  0.71632900  1
  C  C162  1  0.48816100  0.27058800  0.67068900  1
  C  C163  1  0.49806600  0.22925400  0.65628100  1
  C  C164  1  0.48182300  0.19179400  0.67198000  1
  C  C165  1  0.45538900  0.19566900  0.70179800  1
  C  C166  1  0.55581900  0.23699400  0.28522800  1
  C  C167  1  0.53888800  0.27466900  0.30012300  1
  C  C168  1  0.54871400  0.31948300  0.28367100  1
  C  C169  1  0.51183900  0.27058800  0.32931000  1
  C  C170  1  0.50193400  0.22925400  0.34371900  1
  C  C171  1  0.51817700  0.19179400  0.32801900  1
  C  C172  1  0.54461100  0.19566900  0.29820200  1
  C  C173  1  0.56847400  0.57205900  0.37542000  1
  C  C174  1  0.52908900  0.58456100  0.30588500  1
  C  C175  1  0.51149000  0.63146600  0.28427500  1
  C  C176  1  0.50509900  0.55261400  0.25428900  1
  C  C177  1  0.51965500  0.50871800  0.27077000  1
  C  C178  1  0.55851000  0.49628000  0.33906500  1
  C  C179  1  0.58275800  0.52769600  0.39082600  1
  C  C180  1  0.43152600  0.57205900  0.62458000  1
  C  C181  1  0.47091100  0.58456100  0.69411500  1
  C  C182  1  0.48851000  0.63146600  0.71572500  1
  C  C183  1  0.49490100  0.55261400  0.74571100  1
  C  C184  1  0.48034400  0.50871800  0.72923000  1
  C  C185  1  0.44149000  0.49628000  0.66093500  1
  C  C186  1  0.41724100  0.52769600  0.60917400  1
  C  C187  1  0.06847400  0.07205900  0.37542000  1
  C  C188  1  0.02908900  0.08456100  0.30588500  1
  C  C189  1  0.01149000  0.13146600  0.28427500  1
  C  C190  1  0.00509900  0.05261400  0.25428900  1
  C  C191  1  0.01965500  0.00871800  0.27077000  1
  C  C192  1  0.05851000  0.99628000  0.33906500  1
  C  C193  1  0.08275800  0.02769600  0.39082600  1
  C  C194  1  0.93152600  0.07205900  0.62458000  1
  C  C195  1  0.97091100  0.08456100  0.69411500  1
  C  C196  1  0.98851000  0.13146600  0.71572500  1
  C  C197  1  0.99490100  0.05261400  0.74571100  1
  C  C198  1  0.98034400  0.00871800  0.72923000  1
  C  C199  1  0.94149000  0.99628000  0.66093500  1
  C  C200  1  0.91724100  0.02769600  0.60917400  1
  C  C201  1  0.69647600  0.58569500  0.46953000  1
  C  C202  1  0.73906600  0.55446600  0.50979800  1
  C  C203  1  0.75496900  0.53769900  0.57713100  1
  C  C204  1  0.76820700  0.53819700  0.48724000  1
  C  C205  1  0.75567500  0.55248300  0.42561400  1
  C  C206  1  0.71388900  0.58328700  0.38587000  1
  C  C207  1  0.68459100  0.59967600  0.40767300  1
  C  C208  1  0.30352400  0.58569500  0.53047000  1
  C  C209  1  0.26093400  0.55446600  0.49020200  1
  C  C210  1  0.24503100  0.53769900  0.42286800  1
  C  C211  1  0.23179200  0.53819700  0.51276000  1
  C  C212  1  0.24432500  0.55248300  0.57438600  1
  C  C213  1  0.28611100  0.58328700  0.61413000  1
  C  C214  1  0.31540800  0.59967600  0.59232700  1
  C  C215  1  0.19647600  0.08569500  0.46953000  1
  C  C216  1  0.23906600  0.05446600  0.50979800  1
  C  C217  1  0.25496900  0.03769900  0.57713100  1
  C  C218  1  0.26820700  0.03819700  0.48724000  1
  C  C219  1  0.25567500  0.05248300  0.42561400  1
  C  C220  1  0.21388900  0.08328700  0.38587000  1
  C  C221  1  0.18459100  0.09967600  0.40767300  1
  C  C222  1  0.80352400  0.08569500  0.53047000  1
  C  C223  1  0.76093400  0.05446600  0.49020200  1
  C  C224  1  0.74503100  0.03769900  0.42286800  1
  C  C225  1  0.73179200  0.03819700  0.51276000  1
  C  C226  1  0.74432500  0.05248300  0.57438600  1
  C  C227  1  0.78611100  0.08328700  0.61413000  1
  C  C228  1  0.81540800  0.09967600  0.59232700  1
  N  N1  1  0.51766900  0.71383100  0.03438900  1
  N  N2  1  0.48233100  0.71383100  0.96561100  1
  N  N3  1  0.01766900  0.21383100  0.03438900  1
  N  N4  1  0.98233100  0.21383100  0.96561100  1
  N  N5  1  0.48257200  0.79090900  0.96560300  1
  N  N6  1  0.51742800  0.79090900  0.03439700  1
  N  N7  1  0.98257200  0.29090900  0.96560300  1
  N  N8  1  0.01742800  0.29090900  0.03439700  1
  N  N9  1  0.02247000  0.74466700  0.96696000  1
  N  N10  1  0.97753000  0.74466700  0.03303900  1
  N  N11  1  0.52247000  0.24466700  0.96696000  1
  N  N12  1  0.47753000  0.24466700  0.03303900  1
  N  N13  1  0.05593000  0.74477700  0.03571400  1
  N  N14  1  0.94407000  0.74477700  0.96428600  1
  N  N15  1  0.55593000  0.24477700  0.03571400  1
  N  N16  1  0.44407000  0.24477700  0.96428600  1
  O  O1  1  0.82820600  0.76997700  0.50251300  1
  O  O2  1  0.17179400  0.76997700  0.49748700  1
  O  O3  1  0.32820600  0.26997700  0.50251300  1
  O  O4  1  0.67179400  0.26997700  0.49748700  1
  O  O5  1  0.77223500  0.82333300  0.49995700  1
  O  O6  1  0.22776500  0.82333300  0.50004200  1
  O  O7  1  0.27223500  0.32333300  0.49995700  1
  O  O8  1  0.72776500  0.32333300  0.50004200  1
  O  O9  1  0.72904400  0.72386500  0.39783200  1
  O  O10  1  0.27095500  0.72386500  0.60216800  1
  O  O11  1  0.22904400  0.22386500  0.39783200  1
  O  O12  1  0.77095500  0.22386500  0.60216800  1
  O  O13  1  0.67593600  0.77791800  0.39949800  1
  O  O14  1  0.32406400  0.77791800  0.60050200  1
  O  O15  1  0.17593600  0.27791800  0.39949800  1
  O  O16  1  0.82406400  0.27791800  0.60050200  1
  O  O17  1  0.73743600  0.67783800  0.50108300  1
  O  O18  1  0.26256400  0.67783800  0.49891700  1
  O  O19  1  0.23743600  0.17783800  0.50108300  1
  O  O20  1  0.76256400  0.17783800  0.49891700  1
  O  O21  1  0.68003000  0.73122300  0.49565900  1
  O  O22  1  0.31997000  0.73122300  0.50434100  1
  O  O23  1  0.18003000  0.23122300  0.49565900  1
  O  O24  1  0.81997000  0.23122300  0.50434100  1
  O  O25  1  0.83138400  0.72158500  0.60006800  1
  O  O26  1  0.16861600  0.72158500  0.39993100  1
  O  O27  1  0.33138400  0.22158500  0.60006800  1
  O  O28  1  0.66861600  0.22158500  0.39993100  1
  O  O29  1  0.77697800  0.77410900  0.60176200  1
  O  O30  1  0.22302200  0.77410900  0.39823700  1
  O  O31  1  0.27697800  0.27410900  0.60176200  1
  O  O32  1  0.72302200  0.27410900  0.39823700  1
  O  O33  1  0.42288200  0.54904100  0.44193900  1
  O  O34  1  0.57711700  0.54904100  0.55806000  1
  O  O35  1  0.92288200  0.04904100  0.44193900  1
  O  O36  1  0.07711700  0.04904100  0.55806000  1
  O  O37  1  0.48779500  0.55143200  0.56164900  1
  O  O38  1  0.51220500  0.55143200  0.43835100  1
  O  O39  1  0.98779500  0.05143200  0.56164900  1
  O  O40  1  0.01220500  0.05143200  0.43835100  1
  O  O41  1  0.92283500  0.96053200  0.44192900  1
  O  O42  1  0.07716500  0.96053200  0.55807100  1
  O  O43  1  0.42283500  0.46053200  0.44192900  1
  O  O44  1  0.57716500  0.46053200  0.55807100  1
  O  O45  1  0.98802700  0.95780100  0.56174200  1
  O  O46  1  0.01197300  0.95780100  0.43825800  1
  O  O47  1  0.48802700  0.45780100  0.56174200  1
  O  O48  1  0.51197300  0.45780100  0.43825800  1
