# generated using pymatgen
data_Fe2H20C55NO16F3
_symmetry_space_group_name_H-M   'P 1'
_cell_length_a   13.10201300
_cell_length_b   9.38341700
_cell_length_c   15.70893400
_cell_angle_alpha   87.32410700
_cell_angle_beta   99.48614100
_cell_angle_gamma   112.26278400
_symmetry_Int_Tables_number   1
_chemical_formula_structural   Fe2H20C55NO16F3
_chemical_formula_sum   'Fe2 H20 C55 N1 O16 F3'
_cell_volume   1762.61357490
_cell_formula_units_Z   1
loop_
 _symmetry_equiv_pos_site_id
 _symmetry_equiv_pos_as_xyz
  1  'x, y, z'
loop_
 _atom_site_type_symbol
 _atom_site_label
 _atom_site_symmetry_multiplicity
 _atom_site_fract_x
 _atom_site_fract_y
 _atom_site_fract_z
 _atom_site_occupancy
  Fe  Fe1  1  0.50163600  0.01028200  0.18654600  1
  Fe  Fe2  1  0.51282700  0.01621900  0.82852200  1
  H  H1  1  0.10030100  0.91377000  0.79755200  1
  H  H2  1  0.77594100  0.97268000  0.84476300  1
  H  H3  1  0.24034900  0.04908300  0.16879400  1
  H  H4  1  0.90013100  0.04916400  0.22126400  1
  H  H5  1  0.44555600  0.13868000  0.59071600  1
  H  H6  1  0.50375100  0.46774400  0.21722500  1
  H  H7  1  0.50793500  0.75228500  0.55403500  1
  H  H8  1  0.48919500  0.73057600  0.42252700  1
  H  H9  1  0.06504600  0.15955800  0.74656800  1
  H  H10  1  0.03448700  0.15559100  0.58816600  1
  H  H11  1  0.73561800  0.75854500  0.58534400  1
  H  H12  1  0.76512000  0.76285300  0.74374200  1
  H  H13  1  0.07194100  0.30294500  0.23404500  1
  H  H14  1  0.13041300  0.38896800  0.38571900  1
  H  H15  1  0.21726300  0.99841900  0.44789400  1
  H  H16  1  0.15777600  0.91077200  0.29659600  1
  H  H17  1  0.35375800  0.53357000  0.83464800  1
  H  H18  1  0.39805700  0.54535300  0.99314800  1
  H  H19  1  0.71977200  0.54461200  0.97914200  1
  H  H20  1  0.67526500  0.53130800  0.82105800  1
  C  C1  1  0.21427400  0.95459800  0.91443000  1
  C  C2  1  0.11373000  0.94255800  0.86507500  1
  C  C3  1  0.03204500  0.96751900  0.90105600  1
  C  C4  1  0.93435100  0.96515900  0.84998600  1
  C  C5  1  0.85068200  0.97870900  0.88754000  1
  C  C6  1  0.23058600  0.98403100  0.00264100  1
  C  C7  1  0.14620900  0.00063400  0.03976900  1
  C  C8  1  0.04720700  0.99294400  0.98905700  1
  C  C9  1  0.96400800  0.01217500  0.02635900  1
  C  C10  1  0.86461200  0.00369100  0.97575500  1
  C  C11  1  0.77917100  0.01642300  0.01356000  1
  C  C12  1  0.16258300  0.03313300  0.12722300  1
  C  C13  1  0.08094700  0.05310500  0.16439200  1
  C  C14  1  0.97958500  0.03784900  0.11439900  1
  C  C15  1  0.89235100  0.04152300  0.15215300  1
  C  C16  1  0.79190800  0.02947300  0.10287900  1
  C  C17  1  0.70086900  0.02531700  0.14843700  1
  C  C18  1  0.49864700  0.73826400  0.25597400  1
  C  C19  1  0.33884700  0.01080900  0.05613700  1
  C  C20  1  0.48669100  0.21357400  0.30073300  1
  C  C21  1  0.51535100  0.79969500  0.71532200  1
  C  C22  1  0.67216700  0.99824300  0.95997200  1
  C  C23  1  0.47349600  0.25669100  0.74321000  1
  C  C24  1  0.30274700  0.94535100  0.86989000  1
  C  C25  1  0.48830400  0.52391200  0.72398200  1
  C  C26  1  0.49577100  0.65192300  0.67462100  1
  C  C27  1  0.49660500  0.64627100  0.58740200  1
  C  C28  1  0.47916900  0.38838800  0.68596900  1
  C  C29  1  0.47578900  0.38117000  0.59682000  1
  C  C30  1  0.48555800  0.51109100  0.54681100  1
  C  C31  1  0.48620500  0.50243500  0.45774200  1
  C  C32  1  0.49138100  0.62458500  0.40186000  1
  C  C33  1  0.49688400  0.61210500  0.31545100  1
  C  C34  1  0.46177700  0.24517700  0.55669100  1
  C  C35  1  0.48109400  0.36624700  0.42310600  1
  C  C36  1  0.49060500  0.35629400  0.33749000  1
  C  C37  1  0.50009900  0.47951500  0.28443500  1
  C  C38  1  0.91879300  0.95850800  0.75547400  1
  C  C39  1  0.99346600  0.06976400  0.71138800  1
  C  C40  1  0.97613700  0.06810000  0.62240400  1
  C  C41  1  0.88395000  0.95573500  0.57710500  1
  C  C42  1  0.80836600  0.84600600  0.62085300  1
  C  C43  1  0.82514400  0.84833200  0.70985900  1
  C  C44  1  0.10834300  0.09912700  0.25583200  1
  C  C45  1  0.10157800  0.23393300  0.28114700  1
  C  C46  1  0.13523200  0.28302300  0.36621200  1
  C  C47  1  0.17674400  0.19842900  0.42610400  1
  C  C48  1  0.18415200  0.06434600  0.40102200  1
  C  C49  1  0.15069700  0.01526700  0.31596800  1
  C  C50  1  0.51423900  0.54015800  0.81789900  1
  C  C51  1  0.43523900  0.54000900  0.86621700  1
  C  C52  1  0.45960500  0.54484700  0.95514500  1
  C  C53  1  0.56243500  0.54859600  0.99556800  1
  C  C54  1  0.63999100  0.54445000  0.94737700  1
  C  C55  1  0.61531000  0.53830800  0.85871100  1
  N  N1  1  0.46739400  0.24185300  0.47245900  1
  O  O1  1  0.61359600  0.05158500  0.10867500  1
  O  O2  1  0.50699700  0.72580100  0.17480900  1
  O  O3  1  0.70633800  0.99290700  0.23082300  1
  O  O4  1  0.49150200  0.86400900  0.28273600  1
  O  O5  1  0.35083400  0.91086600  0.11437800  1
  O  O6  1  0.41987900  0.14615800  0.05502900  1
  O  O7  1  0.54529800  0.21985200  0.23929500  1
  O  O8  1  0.41612200  0.08034200  0.32235300  1
  O  O9  1  0.45354800  0.80714300  0.77162200  1
  O  O10  1  0.59498300  0.92536800  0.69512800  1
  O  O11  1  0.66652800  0.09620000  0.89846700  1
  O  O12  1  0.58314200  0.87569000  0.96836500  1
  O  O13  1  0.28201400  0.91875600  0.78627500  1
  O  O14  1  0.53013100  0.16939300  0.73537600  1
  O  O15  1  0.40610200  0.98591700  0.90979500  1
  O  O16  1  0.41731000  0.23340900  0.80762000  1
  F  F1  1  0.86700300  0.95415400  0.48964500  1
  F  F2  1  0.21189500  0.24828600  0.50932100  1
  F  F3  1  0.58707800  0.55411200  0.08270800  1
