# Generated by REPEAT Assigner based on pymatgen
data_DB0-m3_o3_o101_f0_fsc_sqe
_audit_creation_date              2022-05-24
_audit_creation_method            REPEAT_Assigner
_cell_length_a                    17.736404
_cell_length_b                    10.962618
_cell_length_c                    15.814785
_cell_angle_alpha                 90.000000
_cell_angle_beta                  95.958477
_cell_angle_gamma                 90.000000
_cell_volume                      3058.373187
_symmetry_space_group_name_H-M    P1
_symmetry_Int_Tables_number       1
loop_
    _symmetry_equiv_pos_site_id
    _symmetry_equiv_pos_as_xyz
    1  x,y,z
loop_
    _atom_site_type_symbol
    _atom_site_label
    _atom_site_fract_x
    _atom_site_fract_y
    _atom_site_fract_z
    _atom_type_partial_charge
    O   O1   0.946481  0.142168  0.085902  -0.713465
    O   O2   0.053519  0.857832  0.914098  -0.713480
    O   O3   0.065809  0.109218  0.914153  -0.752559
    O   O4   0.934192  0.890782  0.085847  -0.752543
    O   O5   0.073626  0.108459  0.099022  -0.762581
    O   O6   0.926375  0.891542  0.900978  -0.762589
    O   O7   0.939067  0.146054  0.906540  -0.722519
    O   O8   0.060934  0.853947  0.093461  -0.722516
    C   C1   0.014658  0.167494  0.122269  0.885365
    C   C2   0.985342  0.832506  0.877731  0.885390
    C   C3   0.005911  0.170164  0.881675  0.863867
    C   C4   0.994089  0.829836  0.118325  0.863844
    Zn  Zn1  0.083155  0.981279  0.006916  1.097290
    Zn  Zn2  0.916846  0.018721  0.993084  1.097267
    C   C5   0.223183  0.871990  0.008018  -0.123029
    C   C6   0.776818  0.128010  0.991984  -0.123024
    C   C7   0.779999  0.915380  0.983597  -0.071961
    C   C8   0.220002  0.084620  0.016401  -0.071950
    H   H1   0.193849  0.785436  0.003953  0.155128
    H   H2   0.806152  0.214563  0.996050  0.155125
    H   H3   0.811547  0.831525  0.980471  0.137179
    H   H4   0.188453  0.168475  0.019526  0.137177
    C   C9   0.301117  0.874882  0.006286  -0.113886
    C   C10  0.698884  0.125118  0.993716  -0.113895
    C   C11  0.702587  0.909245  0.985321  -0.129299
    C   C12  0.297413  0.090755  0.014677  -0.129304
    H   H5   0.331174  0.790134  0.000153  0.115865
    H   H6   0.668827  0.209866  0.999850  0.115872
    H   H7   0.675453  0.820910  0.981148  0.118838
    H   H8   0.324547  0.179090  0.018849  0.118836
    C   C13  0.339131  0.985447  0.008623  0.094279
    C   C14  0.660870  0.014553  0.991376  0.094290
    N   N1   0.183704  0.976417  0.012600  0.084694
    N   N2   0.816297  0.023583  0.987399  0.084694
    C   C15  0.452583  0.085795  0.959526  -0.128122
    C   C16  0.547418  0.914205  0.040473  -0.128092
    C   C17  0.529930  0.093638  0.955857  -0.135008
    C   C18  0.470071  0.906362  0.044143  -0.135047
    H   H9   0.416462  0.152575  0.925314  0.113890
    H   H10  0.583540  0.847425  0.074685  0.113882
    H   H11  0.551802  0.166076  0.919022  0.114903
    H   H12  0.448199  0.833924  0.080978  0.114918
    C   C19  0.578192  0.007798  0.996184  0.064399
    C   C20  0.421809  0.992203  0.003815  0.064428
    C   C21  0.986996  0.557974  0.420668  -0.022418
    C   C22  0.013002  0.442025  0.579331  -0.022402
    C   C23  0.983223  0.558373  0.575063  -0.014545
    C   C24  0.016775  0.441626  0.424937  -0.014541
    C   C25  0.966326  0.610886  0.495090  -0.111318
    C   C26  0.033672  0.389113  0.504910  -0.111308
    H   H13  0.930424  0.689028  0.489787  0.088853
    H   H14  0.069573  0.310971  0.510212  0.088848
    C   C27  0.998108  0.562373  0.269305  0.056737
    C   C28  0.001892  0.437626  0.730695  0.056789
    C   C29  0.988783  0.563509  0.728773  0.066184
    C   C30  0.011216  0.436491  0.271226  0.066219
    C   C31  0.003608  0.630995  0.195419  -0.201921
    C   C32  0.996392  0.369005  0.804581  -0.201967
    C   C33  0.992553  0.632657  0.803666  -0.192936
    C   C34  0.007447  0.367343  0.196333  -0.192954
    H   H15  0.022831  0.592236  0.138817  0.117407
    H   H16  0.977169  0.407765  0.861182  0.117421
    H   H17  0.011322  0.594447  0.865049  0.108138
    H   H18  0.988678  0.405553  0.134950  0.108149
    C   C35  0.987596  0.754138  0.193481  -0.080118
    C   C36  0.012404  0.245862  0.806519  -0.080105
    C   C37  0.976360  0.755801  0.801310  -0.096610
    C   C38  0.023640  0.244200  0.198690  -0.096603
    C   C39  0.965941  0.809743  0.264405  -0.068248
    C   C40  0.034059  0.190258  0.735595  -0.068248
    C   C41  0.955705  0.810663  0.724774  -0.069783
    C   C42  0.044295  0.189337  0.275225  -0.069772
    H   H19  0.954098  0.906478  0.263434  0.110147
    H   H20  0.045903  0.093522  0.736567  0.110138
    H   H21  0.943929  0.907408  0.722378  0.110065
    H   H22  0.056071  0.092592  0.277621  0.110060
    C   C43  0.965496  0.746306  0.338961  -0.229794
    C   C44  0.034503  0.253694  0.661039  -0.229776
    C   C45  0.957008  0.746630  0.650379  -0.229899
    C   C46  0.042991  0.253370  0.349621  -0.229913
    H   H23  0.955403  0.801152  0.392957  0.130716
    H   H24  0.044597  0.198848  0.607044  0.130713
    H   H25  0.947477  0.800922  0.593726  0.132008
    H   H26  0.052521  0.199077  0.406274  0.132015
    C   C47  0.981841  0.621730  0.343236  0.104726
    C   C48  0.018158  0.378270  0.656764  0.104689
    C   C49  0.974553  0.622329  0.650606  0.099307
    C   C50  0.025445  0.377671  0.349393  0.099298
