# generated using pymatgen
data_CuH6C9NO5
_symmetry_space_group_name_H-M   'P 1'
_cell_length_a   11.23599500
_cell_length_b   10.85101000
_cell_length_c   9.40548700
_cell_angle_alpha   90.01997500
_cell_angle_beta   102.26527100
_cell_angle_gamma   89.99699900
_symmetry_Int_Tables_number   1
_chemical_formula_structural   CuH6C9NO5
_chemical_formula_sum   'Cu2 H12 C18 N2 O10'
_cell_volume   1120.55994986
_cell_formula_units_Z   2
loop_
 _symmetry_equiv_pos_site_id
 _symmetry_equiv_pos_as_xyz
  1  'x, y, z'
loop_
 _atom_site_type_symbol
 _atom_site_label
 _atom_site_symmetry_multiplicity
 _atom_site_fract_x
 _atom_site_fract_y
 _atom_site_fract_z
 _atom_site_occupancy
  Cu  Cu1  1  0.50233300  0.49904800  0.64258700  1
  Cu  Cu2  1  0.49718100  0.50127600  0.35702300  1
  H  H1  1  0.36899500  0.35625100  0.09387100  1
  H  H2  1  0.63077300  0.64383400  0.90583500  1
  H  H3  1  0.91393000  0.49761100  0.69805700  1
  H  H4  1  0.08557700  0.50214200  0.30157000  1
  H  H5  1  0.37570500  0.35492500  0.83513400  1
  H  H6  1  0.62386900  0.64535100  0.16451700  1
  H  H7  1  0.50453200  0.11048700  0.27253400  1
  H  H8  1  0.49526100  0.88993300  0.72704700  1
  H  H9  1  0.50525700  0.88755900  0.27459900  1
  H  H10  1  0.49450900  0.11284900  0.72493900  1
  H  H11  1  0.86953600  0.41140900  0.30875900  1
  H  H12  1  0.13032900  0.58955700  0.69051300  1
  C  C1  1  0.49926000  0.26321300  0.49800800  1
  C  C2  1  0.50028200  0.73712800  0.50157900  1
  C  C3  1  0.26563800  0.50102300  0.44672400  1
  C  C4  1  0.73387600  0.49925800  0.55289800  1
  C  C5  1  0.42716100  0.42061200  0.05311500  1
  C  C6  1  0.57248700  0.57960500  0.94654800  1
  C  C7  1  0.43167900  0.41942800  0.90760300  1
  C  C8  1  0.56789300  0.58086300  0.09203600  1
  C  C9  1  0.13174200  0.50130400  0.41504000  1
  C  C10  1  0.86776200  0.49888800  0.58460400  1
  C  C11  1  0.06680000  0.50061100  0.51951100  1
  C  C12  1  0.93270600  0.49995800  0.48014300  1
  C  C13  1  0.50239300  0.06304100  0.37295200  1
  C  C14  1  0.49728500  0.93735300  0.62658300  1
  C  C15  1  0.50280800  0.93596200  0.37434500  1
  C  C16  1  0.49685900  0.06442300  0.62518200  1
  C  C17  1  0.50019800  0.87232300  0.50114100  1
  C  C18  1  0.49939300  0.12803800  0.49838800  1
  N  N1  1  0.50576100  0.49748500  0.85616800  1
  N  N2  1  0.49377500  0.50283500  0.14345000  1
  O  O1  1  0.49729500  0.32017200  0.62003400  1
  O  O2  1  0.50222400  0.68015100  0.37955900  1
  O  O3  1  0.50134000  0.32198900  0.37669600  1
  O  O4  1  0.49817200  0.67834100  0.62290500  1
  O  O5  1  0.32513700  0.49527200  0.58203600  1
  O  O6  1  0.67437900  0.50504400  0.41759400  1
  O  O7  1  0.32053300  0.50594300  0.33684500  1
  O  O8  1  0.67897700  0.49437700  0.66275800  1
  O  O9  1  0.87579800  0.49968400  0.33606800  1
  O  O10  1  0.12370600  0.50120500  0.66358600  1
