# Generated by REPEAT Assigner based on pymatgen
data_DB0-m3_o12_o14_f0_pcu.sym.119
_audit_creation_date              2022-05-24
_audit_creation_method            REPEAT_Assigner
_cell_length_a                    10.167032
_cell_length_b                    10.944814
_cell_length_c                    11.400829
_cell_angle_alpha                 90.000009
_cell_angle_beta                  92.452861
_cell_angle_gamma                 80.788052
_cell_volume                      1251.102470
_symmetry_space_group_name_H-M    P1
_symmetry_Int_Tables_number       1
loop_
    _symmetry_equiv_pos_site_id
    _symmetry_equiv_pos_as_xyz
    1  x,y,z
loop_
    _atom_site_type_symbol
    _atom_site_label
    _atom_site_fract_x
    _atom_site_fract_y
    _atom_site_fract_z
    _atom_type_partial_charge
    O   O1   0.604903  0.477819  0.350617  -0.647308
    O   O2   0.379212  0.509972  0.376170  -0.737455
    C   C1   0.481672  0.495002  0.308079  0.877729
    O   O3   0.642002  0.291235  0.524479  -0.723689
    O   O4   0.416122  0.323291  0.551643  -0.598617
    C   C2   0.529072  0.249984  0.536383  0.820744
    Zn  Zn1  0.675123  0.468794  0.519735  1.072973
    Zn  Zn2  0.376135  0.510642  0.553977  1.047942
    O   O5   0.672925  0.469383  0.697145  -0.681454
    O   O6   0.445714  0.502511  0.723690  -0.672320
    O   O7   0.636082  0.656060  0.523367  -0.698709
    O   O8   0.408873  0.688493  0.549613  -0.682369
    C   C3   0.570417  0.484442  0.764508  0.779594
    C   C4   0.521784  0.729450  0.534096  0.853054
    H   H1   0.411727  0.118786  0.681461  0.088801
    C   C5   0.639205  0.097719  0.344615  -0.324054
    H   H2   0.637848  0.195924  0.337011  0.217267
    C   C6   0.693519  0.026545  0.254117  -0.029173
    H   H3   0.735578  0.069428  0.182261  0.091921
    C   C7   0.690599  0.901897  0.253032  -0.173054
    H   H4   0.730478  0.846773  0.180281  0.115225
    C   C8   0.633145  0.847821  0.342348  -0.191129
    H   H5   0.626709  0.751023  0.333020  0.066826
    C   C9   0.581383  0.917528  0.436788  0.200578
    C   C10  0.584649  0.044207  0.437985  0.246886
    C   C11  0.527058  0.116315  0.529038  -0.224336
    C   C12  0.459451  0.062865  0.612347  -0.070508
    H   H6   0.406734  0.896908  0.679750  0.103325
    C   C13  0.456209  0.937687  0.611198  -0.072808
    C   C14  0.520300  0.863669  0.526501  -0.272365
    H   H7   0.404651  0.515724  0.945870  0.116237
    C   C15  0.455003  0.498097  0.179187  -0.459013
    C   C16  0.549566  0.487091  0.099020  0.020845
    H   H8   0.706759  0.456186  0.915558  0.159769
    C   C17  0.601701  0.477849  0.891085  -0.291641
    C   C18  0.509532  0.495659  0.972475  -0.032453
    H   H9   0.351614  0.512572  0.147807  0.182535
    H   H10  0.911933  0.591492  0.591834  0.124563
    N   N1   0.179231  0.536546  0.576164  -0.271038
    C   C19  0.093179  0.492320  0.509092  -0.030331
    H   H11  0.913282  0.365700  0.450686  0.262393
    N   N2   0.871600  0.441685  0.496873  -0.238591
    C   C20  0.950460  0.514291  0.536853  0.118573
    H   H12  0.139870  0.583616  0.648004  0.273343
    C   C21  0.133228  0.423688  0.401995  0.706177
    O   O9   0.206869  0.324377  0.408625  -0.418855
    N   N3   0.071742  0.465459  0.291227  -0.699784
    H   H13  0.147563  0.470277  0.233432  0.353939
    H   H14  0.021458  0.555299  0.302388  0.237529
    C   C22  0.692442  0.468499  0.133463  0.678866
    O   O10  0.748082  0.367935  0.170254  -0.472656
    N   N4   0.767325  0.566747  0.119240  -0.734332
    H   H15  0.801158  0.590004  0.202684  0.364137
    H   H16  0.701842  0.643096  0.085497  0.266267
