# generated using pymatgen
data_CuH17C27NO4
_symmetry_space_group_name_H-M   'P 1'
_cell_length_a   12.57671900
_cell_length_b   14.02799900
_cell_length_c   15.93256100
_cell_angle_alpha   90.02555900
_cell_angle_beta   93.59496900
_cell_angle_gamma   98.19514800
_symmetry_Int_Tables_number   1
_chemical_formula_structural   CuH17C27NO4
_chemical_formula_sum   'Cu2 H34 C54 N2 O8'
_cell_volume   2776.61691692
_cell_formula_units_Z   2
loop_
 _symmetry_equiv_pos_site_id
 _symmetry_equiv_pos_as_xyz
  1  'x, y, z'
loop_
 _atom_site_type_symbol
 _atom_site_label
 _atom_site_symmetry_multiplicity
 _atom_site_fract_x
 _atom_site_fract_y
 _atom_site_fract_z
 _atom_site_occupancy
  Cu  Cu1  1  0.39827500  0.49080500  0.49421600  1
  Cu  Cu2  1  0.61305700  0.50357800  0.50601000  1
  H  H1  1  0.58707400  0.36344300  0.06012700  1
  H  H2  1  0.42424400  0.63097400  0.94009700  1
  H  H3  1  0.68674500  0.50429000  0.95299400  1
  H  H4  1  0.32457300  0.49012700  0.04723200  1
  H  H5  1  0.02943500  0.57255400  0.57061200  1
  H  H6  1  0.98187900  0.42148300  0.42979300  1
  H  H7  1  0.36124900  0.29280000  0.08759700  1
  H  H8  1  0.25056500  0.13655400  0.06383000  1
  H  H9  1  0.16359400  0.01412600  0.97453400  1
  H  H10  1  0.23353000  0.99959600  0.88068400  1
  H  H11  1  0.11365700  0.05750500  0.87495800  1
  H  H12  1  0.27313600  0.16943800  0.79927500  1
  H  H13  1  0.38328100  0.32494100  0.82228900  1
  H  H14  1  0.65017500  0.70156900  0.91263600  1
  H  H15  1  0.76079600  0.85784500  0.93640300  1
  H  H16  1  0.84763000  0.98033700  0.02569100  1
  H  H17  1  0.89748400  0.93702300  0.12532000  1
  H  H18  1  0.77758500  0.99489400  0.11948100  1
  H  H19  1  0.73793100  0.82509900  0.20094300  1
  H  H20  1  0.62785000  0.66956400  0.17793100  1
  H  H21  1  0.30686700  0.04051400  0.39105200  1
  H  H22  1  0.12188600  0.95878900  0.38001200  1
  H  H23  1  0.98301100  0.84907600  0.42876600  1
  H  H24  1  0.98860700  0.83898000  0.54197500  1
  H  H25  1  0.02870200  0.74503100  0.47827300  1
  H  H26  1  0.18383800  0.80126200  0.60235600  1
  H  H27  1  0.36884000  0.88457800  0.61476300  1
  H  H28  1  0.71316500  0.95492400  0.42338000  1
  H  H29  1  0.89731400  0.03805900  0.44041400  1
  H  H30  1  0.02963800  0.14934400  0.50906500  1
  H  H31  1  0.01426500  0.15845200  0.62069200  1
  H  H32  1  0.97841900  0.25228200  0.55109800  1
  H  H33  1  0.81414300  0.19389300  0.65079400  1
  H  H34  1  0.62990900  0.10918000  0.63510000  1
  C  C1  1  0.48939500  0.31272900  0.49826400  1
  C  C2  1  0.52194400  0.68165700  0.50228500  1
  C  C3  1  0.50679800  0.49873100  0.33909500  1
  C  C4  1  0.50453200  0.49565500  0.66113100  1
  C  C5  1  0.44810900  0.41592100  0.97525000  1
  C  C6  1  0.56320800  0.57849600  0.02497600  1
  C  C7  1  0.55003600  0.42436700  0.03246000  1
  C  C8  1  0.46128200  0.57005000  0.96776500  1
  C  C9  1  0.50778500  0.50014300  0.24909000  1
  C  C10  1  0.50354400  0.49425400  0.75113600  1
  C  C11  1  0.40703000  0.49338600  0.02543500  1
  C  C12  1  0.60428900  0.50103100  0.97479200  1
  C  C13  1  0.50950900  0.50261600  0.08165000  1
  C  C14  1  0.50180900  0.49180100  0.91857600  1
  C  C15  1  0.50878500  0.50157100  0.17350200  1
  C  C16  1  0.50254000  0.49283700  0.82672300  1
  C  C17  1  0.53064100  0.78471700  0.50587700  1
  C  C18  1  0.48033200  0.20964100  0.50050200  1
  C  C19  1  0.54860800  0.97464400  0.51727700  1
  C  C20  1  0.46114600  0.01967300  0.51002000  1
  C  C21  1  0.47229300  0.12309500  0.50406100  1
  C  C22  1  0.53821000  0.87124000  0.51030100  1
  C  C23  1  0.02965100  0.47008400  0.47509100  1
  C  C24  1  0.98164900  0.52394100  0.52532700  1
  C  C25  1  0.86634000  0.51789100  0.51944100  1
  C  C26  1  0.14497600  0.47632100  0.48086200  1
  C  C27  1  0.38047600  0.32042000  0.95701700  1
  C  C28  1  0.34222600  0.26615500  0.02397100  1
  C  C29  1  0.27965600  0.17783200  0.01056400  1
  C  C30  1  0.25468000  0.14286000  0.92975300  1
  C  C31  1  0.18719500  0.04763500  0.91422100  1
  C  C32  1  0.29254900  0.19659700  0.86271500  1
  C  C33  1  0.35514800  0.28496100  0.87607700  1
  C  C34  1  0.63082000  0.67400800  0.04321000  1
  C  C35  1  0.66912600  0.72824700  0.97626000  1
  C  C36  1  0.73165900  0.81658800  0.98966600  1
  C  C37  1  0.75653600  0.85160600  0.07047200  1
  C  C38  1  0.82397600  0.94685300  0.08600300  1
  C  C39  1  0.71860500  0.79789900  0.13750700  1
  C  C40  1  0.65604500  0.70951500  0.12414500  1
  C  C41  1  0.35172300  0.96575300  0.50194100  1
  C  C42  1  0.28067900  0.98767400  0.43755900  1
  C  C43  1  0.17611300  0.94135700  0.43121500  1
  C  C44  1  0.14129600  0.87377600  0.49009200  1
  C  C45  1  0.02841400  0.82374200  0.48426100  1
  C  C46  1  0.21125700  0.85316600  0.55545800  1
  C  C47  1  0.31584700  0.89943000  0.56181800  1
  C  C48  1  0.65789100  0.02877000  0.52616400  1
  C  C49  1  0.73454300  0.00764600  0.47332700  1
  C  C50  1  0.83862200  0.05478900  0.48283500  1
  C  C51  1  0.86723100  0.12240400  0.54620800  1
  C  C52  1  0.97935200  0.17366200  0.55729300  1
  C  C53  1  0.79163900  0.14200600  0.60033000  1
  C  C54  1  0.68755800  0.09492500  0.59083200  1
  N  N1  1  0.23778700  0.48144600  0.48558700  1
  N  N2  1  0.77354400  0.51292000  0.51463300  1
  O  O1  1  0.40095100  0.35201600  0.49054800  1
  O  O2  1  0.61040500  0.64236800  0.50975500  1
  O  O3  1  0.58553300  0.36300700  0.50660800  1
  O  O4  1  0.42581400  0.63137900  0.49371800  1
  O  O5  1  0.41379600  0.48941900  0.37304400  1
  O  O6  1  0.59754400  0.50497600  0.62718400  1
  O  O7  1  0.59900900  0.50716500  0.38332000  1
  O  O8  1  0.41231000  0.48720600  0.61690700  1
