# generated using pymatgen
data_FeH10C19O8
_symmetry_space_group_name_H-M   'P 1'
_cell_length_a   13.56688900
_cell_length_b   12.09462600
_cell_length_c   13.25908900
_cell_angle_alpha   81.31557000
_cell_angle_beta   84.85999500
_cell_angle_gamma   110.91682800
_symmetry_Int_Tables_number   1
_chemical_formula_structural   FeH10C19O8
_chemical_formula_sum   'Fe2 H20 C38 O16'
_cell_volume   1984.55569642
_cell_formula_units_Z   2
loop_
 _symmetry_equiv_pos_site_id
 _symmetry_equiv_pos_as_xyz
  1  'x, y, z'
loop_
 _atom_site_type_symbol
 _atom_site_label
 _atom_site_symmetry_multiplicity
 _atom_site_fract_x
 _atom_site_fract_y
 _atom_site_fract_z
 _atom_site_occupancy
  Fe  Fe1  1  0.50200100  0.98766900  0.20764500  1
  Fe  Fe2  1  0.47070400  0.96902400  0.80934300  1
  H  H1  1  0.17167800  0.02089100  0.23170400  1
  H  H2  1  0.01115400  0.03537900  0.17540600  1
  H  H3  1  0.09015300  0.93684700  0.89204900  1
  H  H4  1  0.02587700  0.07855600  0.84007700  1
  H  H5  1  0.84762800  0.94088300  0.13744100  1
  H  H6  1  0.43894300  0.84483600  0.51434600  1
  H  H7  1  0.47603300  0.57907700  0.73545400  1
  H  H8  1  0.51528300  0.10503000  0.50060600  1
  H  H9  1  0.48460100  0.37562900  0.28062400  1
  H  H10  1  0.47232900  0.54810400  0.32709900  1
  H  H11  1  0.48237100  0.40230900  0.69053100  1
  H  H12  1  0.01779800  0.06042900  0.67885700  1
  H  H13  1  0.02697900  0.21160200  0.69372700  1
  H  H14  1  0.97948500  0.14979600  0.58424300  1
  H  H15  1  0.85005800  0.89695900  0.70355600  1
  H  H16  1  0.81337800  0.98321700  0.60091900  1
  H  H17  1  0.72485900  0.91446600  0.72106700  1
  H  H18  1  0.80955000  0.21610200  0.75853800  1
  H  H19  1  0.73967200  0.12747300  0.66822400  1
  H  H20  1  0.87049800  0.23975400  0.62816100  1
  C  C1  1  0.15290400  0.99995500  0.15759800  1
  C  C2  1  0.06153300  0.00796600  0.12527600  1
  C  C3  1  0.03918800  0.98827300  0.02829400  1
  C  C4  1  0.10880700  0.95733300  0.96613500  1
  C  C5  1  0.20384300  0.95614400  0.99551100  1
  C  C6  1  0.22523600  0.97603200  0.09328300  1
  C  C7  1  0.94866300  0.04637100  0.88653700  1
  C  C8  1  0.85748500  0.04545300  0.84443000  1
  C  C9  1  0.76099700  0.00918400  0.91392400  1
  C  C10  1  0.76166600  0.98086900  0.01978400  1
  C  C11  1  0.85116900  0.97228800  0.05616800  1
  C  C12  1  0.94436500  0.00226000  0.98987300  1
  C  C13  1  0.66811300  0.95796000  0.09707200  1
  C  C14  1  0.45344200  0.75872000  0.35020800  1
  C  C15  1  0.33069600  0.99776400  0.12292700  1
  C  C16  1  0.47947900  0.14770400  0.31632600  1
  C  C17  1  0.48537700  0.81044300  0.69456800  1
  C  C18  1  0.65482600  0.97522300  0.88114500  1
  C  C19  1  0.50355400  0.19144100  0.66658100  1
  C  C20  1  0.28301400  0.94683100  0.91707000  1
  C  C21  1  0.44790300  0.69306800  0.45532000  1
  C  C22  1  0.44545300  0.75779200  0.53190700  1
  C  C23  1  0.45687200  0.71890300  0.63085800  1
  C  C24  1  0.46379700  0.60800800  0.65799300  1
  C  C25  1  0.46627700  0.54019300  0.58299900  1
  C  C26  1  0.46090700  0.58300900  0.48093900  1
  C  C27  1  0.48099200  0.43272300  0.61032900  1
  C  C28  1  0.49368100  0.36690100  0.53656900  1
  C  C29  1  0.48924400  0.41060800  0.43443500  1
  C  C30  1  0.47382300  0.51751200  0.40726700  1
  C  C31  1  0.50620000  0.25624400  0.56167800  1
  C  C32  1  0.50963500  0.19257900  0.48413200  1
  C  C33  1  0.50241600  0.23465600  0.38444400  1
  C  C34  1  0.49448900  0.34498600  0.35857700  1
  C  C35  1  0.86482200  0.07520700  0.72626700  1
  C  C36  1  0.97944200  0.12760700  0.66855900  1
  C  C37  1  0.80925200  0.96072200  0.68582800  1
  C  C38  1  0.81751400  0.16969700  0.69406800  1
  O  O1  1  0.60203000  0.01367500  0.08027500  1
  O  O2  1  0.40607200  0.70540800  0.27880900  1
  O  O3  1  0.66059000  0.89703400  0.18985400  1
  O  O4  1  0.49721100  0.87710400  0.33604800  1
  O  O5  1  0.35353800  0.91128600  0.17599500  1
  O  O6  1  0.40339100  0.10759300  0.09778200  1
  O  O7  1  0.55084700  0.15416200  0.23948300  1
  O  O8  1  0.39761300  0.04554600  0.34907000  1
  O  O9  1  0.42657700  0.80047700  0.78218600  1
  O  O10  1  0.55730600  0.91663300  0.65085500  1
  O  O11  1  0.62017300  0.05523400  0.83481500  1
  O  O12  1  0.58873400  0.86219200  0.90889700  1
  O  O13  1  0.26709600  0.95492800  0.82054100  1
  O  O14  1  0.46646800  0.07292900  0.68047700  1
  O  O15  1  0.37409100  0.94275200  0.93913900  1
  O  O16  1  0.54903000  0.24684100  0.73781200  1
