# Generated by REPEAT Assigner based on pymatgen
data_DB0-m2_o7_o18_f0_pcu.sym.47
_audit_creation_date              2022-05-24
_audit_creation_method            REPEAT_Assigner
_cell_length_a                    15.902833
_cell_length_b                    16.229603
_cell_length_c                    17.676618
_cell_angle_alpha                 89.975625
_cell_angle_beta                  89.996722
_cell_angle_gamma                 71.430636
_cell_volume                      4324.758308
_symmetry_space_group_name_H-M    P1
_symmetry_Int_Tables_number       1
loop_
    _symmetry_equiv_pos_site_id
    _symmetry_equiv_pos_as_xyz
    1  x,y,z
loop_
    _atom_site_type_symbol
    _atom_site_label
    _atom_site_fract_x
    _atom_site_fract_y
    _atom_site_fract_z
    _atom_type_partial_charge
    O   O1   0.484410  0.435592  0.611404  -0.643688
    O   O2   0.478952  0.577008  0.391004  -0.619592
    O   O3   0.482124  0.577853  0.610887  -0.619080
    O   O4   0.481909  0.434781  0.391604  -0.555945
    C   C1   0.487747  0.505556  0.646604  0.671022
    C   C2   0.484461  0.504416  0.355774  0.581137
    O   O5   0.614765  0.395946  0.497785  -0.564746
    O   O6   0.354345  0.615072  0.504710  -0.586330
    O   O7   0.612056  0.538153  0.501943  -0.594896
    O   O8   0.357027  0.472712  0.499978  -0.598618
    C   C3   0.655204  0.454686  0.499587  0.742948
    C   C4   0.314054  0.556233  0.502695  0.750725
    Cu  Cu1  0.486202  0.422605  0.501284  0.929433
    Cu  Cu2  0.482681  0.588458  0.501322  0.894860
    C   C5   0.752628  0.426172  0.497831  -0.157504
    C   C6   0.216740  0.584917  0.502795  -0.183078
    C   C7   0.890815  0.313057  0.490958  -0.307826
    C   C8   0.078695  0.698283  0.503988  -0.296423
    C   C9   0.799891  0.339113  0.493025  -0.004968
    C   C10  0.169624  0.672196  0.504032  -0.016699
    C   C11  0.797341  0.486752  0.500511  -0.027295
    C   C12  0.172161  0.524200  0.501147  -0.070023
    C   C13  0.889959  0.461373  0.497626  -0.057777
    C   C14  0.079541  0.549747  0.500357  -0.026736
    C   C15  0.935323  0.373339  0.493278  0.318098
    C   C16  0.034106  0.637954  0.502322  0.310316
    C   C17  0.938356  0.520751  0.499154  0.079201
    C   C18  0.031308  0.490269  0.497908  0.054754
    C   C19  0.073700  0.400907  0.493458  -0.159913
    C   C20  0.895973  0.610153  0.501061  -0.147912
    C   C21  0.026083  0.344028  0.491078  -0.287600
    C   C22  0.943324  0.667269  0.502444  -0.303301
    H   H1   0.061296  0.275143  0.487456  0.136566
    H   H2   0.907925  0.736225  0.503620  0.138403
    H   H3   0.212506  0.457299  0.501281  0.085390
    H   H4   0.757139  0.553352  0.505552  0.055646
    H   H5   0.202859  0.720845  0.505261  0.088352
    H   H6   0.766665  0.290629  0.490931  0.090647
    H   H7   0.927473  0.244465  0.487494  0.137989
    H   H8   0.042302  0.766990  0.505386  0.138183
    H   H9   0.144314  0.370937  0.490575  0.135397
    H   H10  0.825397  0.639962  0.500489  0.131972
    C   C23  0.514665  0.430916  0.152899  -0.134809
    C   C24  0.520481  0.555920  0.849960  -0.137469
    H   H11  0.545802  0.373414  0.119641  0.126387
    H   H12  0.553932  0.591339  0.883809  0.125090
    C   C25  0.523685  0.428593  0.230622  -0.280363
    C   C26  0.530238  0.552625  0.772247  -0.242694
    C   C27  0.484092  0.503836  0.272592  0.109318
    C   C28  0.487116  0.505769  0.729646  0.052312
    C   C29  0.439824  0.580217  0.235149  -0.140704
    C   C30  0.438742  0.460382  0.766480  -0.094441
    H   H13  0.408581  0.639012  0.266721  0.132566
    H   H14  0.404536  0.423825  0.734737  0.121860
    C   C31  0.433054  0.581986  0.157372  -0.167129
    C   C32  0.431265  0.462842  0.844139  -0.187106
    H   H15  0.398271  0.641888  0.128479  0.127356
    H   H16  0.392866  0.427495  0.872058  0.132745
    C   C33  0.470196  0.507178  0.116349  0.278102
    C   C34  0.471960  0.510843  0.885858  0.276898
    C   C35  0.467662  0.509259  0.035175  -0.172299
    C   C36  0.468235  0.510364  0.966993  -0.164512
    C   C37  0.430686  0.191249  0.454447  -0.269656
    C   C38  0.545191  0.817431  0.540750  -0.250888
    H   H17  0.386697  0.172534  0.416340  0.142323
    H   H18  0.595805  0.833838  0.572410  0.144832
    C   C39  0.432077  0.275692  0.455595  0.133999
    C   C40  0.542967  0.733248  0.540143  -0.009554
    H   H19  0.388697  0.323032  0.418001  0.073794
    H   H20  0.591419  0.684089  0.572409  0.211395
    N   N1   0.487956  0.298861  0.502126  -0.133813
    N   N2   0.480945  0.712194  0.499920  -0.087188
    C   C41  0.542836  0.240056  0.548495  0.090310
    C   C42  0.421357  0.772672  0.457934  0.030111
    H   H21  0.587797  0.259269  0.584966  0.091002
    H   H22  0.372615  0.755086  0.424750  0.134091
    C   C43  0.543126  0.154946  0.548500  -0.280818
    C   C44  0.421861  0.857601  0.457327  -0.265449
    H   H23  0.588171  0.107561  0.584755  0.150353
    H   H24  0.374690  0.905758  0.422885  0.146358
    C   C45  0.486569  0.130413  0.501250  0.335246
    C   C46  0.483604  0.880348  0.499812  0.357740
    C   C47  0.486243  0.042127  0.500490  -0.155998
    C   C48  0.485259  0.968213  0.500104  -0.182213
    C   C49  0.580419  0.347167  0.264688  0.791794
    O   O9   0.629694  0.348695  0.317172  -0.496761
    O   O10  0.583206  0.270452  0.233760  -0.372856
    C   C50  0.636389  0.193745  0.263959  0.043675
    H   H25  0.628505  0.138656  0.230833  0.064627
    H   H26  0.616760  0.188079  0.323496  0.036524
    H   H27  0.706778  0.191586  0.261565  0.047408
    C   C51  0.592104  0.593747  0.739418  0.773054
    O   O11  0.636423  0.562483  0.683969  -0.511777
    O   O12  0.606882  0.660782  0.775952  -0.377178
    C   C52  0.668968  0.696531  0.750445  0.102746
    H   H28  0.670639  0.750019  0.788844  0.060726
    H   H29  0.651128  0.723074  0.692768  -0.008193
    H   H30  0.735364  0.646356  0.749783  0.038037
