# Generated by REPEAT Assigner based on pymatgen
data_DB0-m3_o1_o151_f0_fsc.sym.36_sqe
_audit_creation_date              2022-05-24
_audit_creation_method            REPEAT_Assigner
_cell_length_a                    9.218052
_cell_length_b                    8.544784
_cell_length_c                    19.373211
_cell_angle_alpha                 90.000000
_cell_angle_beta                  91.066590
_cell_angle_gamma                 90.000000
_cell_volume                      1525.691155
_symmetry_space_group_name_H-M    P1
_symmetry_Int_Tables_number       1
loop_
    _symmetry_equiv_pos_site_id
    _symmetry_equiv_pos_as_xyz
    1  x,y,z
loop_
    _atom_site_type_symbol
    _atom_site_label
    _atom_site_fract_x
    _atom_site_fract_y
    _atom_site_fract_z
    _atom_type_partial_charge
    H   H1   0.055941  0.024807  0.548852  0.123098
    H   H2   0.944059  0.024807  0.451148  0.123095
    C   C1   0.010310  0.164110  0.636055  -0.019586
    C   C2   0.988700  0.885588  0.363765  -0.042646
    C   C3   0.989691  0.164110  0.363945  -0.019581
    C   C4   0.011300  0.885588  0.636235  -0.042647
    C   C5   0.984250  0.164975  0.705879  -0.151509
    C   C6   0.009294  0.884368  0.293430  -0.209711
    C   C7   0.015750  0.164975  0.294121  -0.151515
    C   C8   0.990706  0.884368  0.706570  -0.209710
    H   H3   0.965761  0.275894  0.730833  0.139183
    H   H4   0.012972  0.772647  0.267702  0.134012
    H   H5   0.034239  0.275894  0.269167  0.139184
    H   H6   0.987028  0.772647  0.732298  0.134012
    C   C9   0.983781  0.025070  0.742663  0.074839
    C   C10  0.016219  0.025070  0.257337  0.074841
    O   O1   0.129285  0.694239  0.568431  -0.713626
    O   O2   0.870793  0.355435  0.431635  -0.654298
    O   O3   0.870715  0.694239  0.431569  -0.713622
    O   O4   0.129207  0.355435  0.568365  -0.654298
    O   O5   0.879660  0.688505  0.574917  -0.592798
    O   O6   0.120481  0.361477  0.425061  -0.572076
    O   O7   0.120341  0.688505  0.425083  -0.592796
    O   O8   0.879519  0.361477  0.574939  -0.572082
    C   C11  0.031682  0.024859  0.602820  -0.141777
    C   C12  0.968318  0.024859  0.397180  -0.141775
    C   C13  0.057587  0.897808  0.072887  -0.085673
    C   C14  0.039901  0.155725  0.926056  -0.138705
    C   C15  0.942413  0.897808  0.927113  -0.085669
    C   C16  0.960099  0.155725  0.073944  -0.138704
    H   H7   0.095557  0.797047  0.044740  0.094859
    H   H8   0.084462  0.255822  0.953169  0.108197
    H   H9   0.904444  0.797047  0.955260  0.094856
    H   H10  0.915539  0.255822  0.046831  0.108197
    C   C17  0.067528  0.899119  0.144073  -0.219610
    C   C18  0.035949  0.154992  0.854938  -0.123470
    C   C19  0.932472  0.899119  0.855927  -0.219609
    C   C20  0.964051  0.154992  0.145062  -0.123469
    H   H11  0.115523  0.799088  0.169574  0.133732
    H   H12  0.081598  0.254175  0.828641  0.088203
    H   H13  0.884478  0.799088  0.830426  0.133733
    H   H14  0.918402  0.254175  0.171359  0.088203
    C   C21  0.018754  0.027064  0.181093  0.083726
    C   C22  0.981246  0.027064  0.818907  0.083725
    Zn  Zn1  0.838393  0.524933  0.502099  0.967159
    Zn  Zn2  0.161607  0.524933  0.497901  0.967145
    C   C23  0.007183  0.743342  0.594425  0.778655
    C   C24  0.993167  0.306314  0.405726  0.671608
    C   C25  0.992817  0.743342  0.405575  0.778649
    C   C26  0.006833  0.306314  0.594274  0.671614
    C   C27  0.004511  0.026351  0.037681  0.053499
    C   C28  0.995489  0.026351  0.962319  0.053497
    C   C29  0.577470  0.525361  0.441593  -0.132179
    C   C30  0.422530  0.525361  0.558408  -0.132214
    H   H15  0.638035  0.525448  0.394362  0.131608
    H   H16  0.361965  0.525448  0.605638  0.131621
    C   C31  0.427882  0.525112  0.438364  0.095340
    C   C32  0.572118  0.525112  0.561636  0.095372
    N   N1   0.351817  0.524975  0.496955  0.141358
    N   N2   0.648183  0.524975  0.503045  0.141336
    S   S1   0.336738  0.524286  0.356198  -0.145175
    C   C33  0.388454  0.322819  0.340269  0.087907
    H   H17  0.304358  0.265718  0.307284  0.036639
    H   H18  0.396822  0.259144  0.390065  0.008040
    H   H19  0.494349  0.319676  0.314060  -0.008807
    S   S2   0.663262  0.524286  0.643802  -0.145187
    C   C34  0.611547  0.322819  0.659731  0.087920
    H   H20  0.695642  0.265718  0.692716  0.036636
    H   H21  0.603178  0.259144  0.609935  0.008037
    H   H22  0.505651  0.319676  0.685940  -0.008812
