# generated using pymatgen
data_CuH5C18NO4F9
_symmetry_space_group_name_H-M   'P 1'
_cell_length_a   10.81734700
_cell_length_b   9.38616000
_cell_length_c   14.94603400
_cell_angle_alpha   90.00000000
_cell_angle_beta   90.01186100
_cell_angle_gamma   90.00000000
_symmetry_Int_Tables_number   1
_chemical_formula_structural   CuH5C18NO4F9
_chemical_formula_sum   'Cu2 H10 C36 N2 O8 F18'
_cell_volume   1517.52086450
_cell_formula_units_Z   2
loop_
 _symmetry_equiv_pos_site_id
 _symmetry_equiv_pos_as_xyz
  1  'x, y, z'
loop_
 _atom_site_type_symbol
 _atom_site_label
 _atom_site_symmetry_multiplicity
 _atom_site_fract_x
 _atom_site_fract_y
 _atom_site_fract_z
 _atom_site_occupancy
  Cu  Cu1  1  0.49230400  0.64276700  0.50741700  1
  Cu  Cu2  1  0.50683600  0.35810300  0.49321100  1
  H  H1  1  0.63808600  0.65414200  0.78009500  1
  H  H2  1  0.36041700  0.34735900  0.22042200  1
  H  H3  1  0.40644900  0.29298000  0.77842700  1
  H  H4  1  0.59238600  0.70816800  0.22224400  1
  H  H5  1  0.31029100  0.23000200  0.09037000  1
  H  H6  1  0.68792500  0.77177900  0.91021300  1
  H  H7  1  0.10906100  0.31720400  0.41317900  1
  H  H8  1  0.89028500  0.68396700  0.58715300  1
  H  H9  1  0.88697900  0.34736000  0.39560400  1
  H  H10  1  0.11235400  0.65419700  0.60448100  1
  C  C1  1  0.26271300  0.48244800  0.51149500  1
  C  C2  1  0.73645400  0.51845800  0.48905000  1
  C  C3  1  0.48245600  0.52187200  0.32914000  1
  C  C4  1  0.51663700  0.47904900  0.67149100  1
  C  C5  1  0.58257500  0.57846100  0.81562000  1
  C  C6  1  0.41607500  0.42291200  0.18496300  1
  C  C7  1  0.52131700  0.47282900  0.76970900  1
  C  C8  1  0.47760300  0.52825800  0.23091900  1
  C  C9  1  0.45436000  0.37288100  0.81676700  1
  C  C10  1  0.54441400  0.62834400  0.18387400  1
  C  C11  1  0.44409500  0.38266400  0.90971400  1
  C  C12  1  0.55446400  0.61877600  0.09090100  1
  C  C13  1  0.50406400  0.49306200  0.95440800  1
  C  C14  1  0.49450400  0.50840500  0.04619300  1
  C  C15  1  0.57397100  0.58906800  0.90706400  1
  C  C16  1  0.42456600  0.41243200  0.09352400  1
  C  C17  1  0.37294300  0.28624500  0.95861800  1
  C  C18  1  0.62536600  0.71540000  0.04197800  1
  C  C19  1  0.36416300  0.30290100  0.05040500  1
  C  C20  1  0.63416900  0.69876500  0.95018100  1
  C  C21  1  0.06161000  0.39606900  0.45293300  1
  C  C22  1  0.93765300  0.60504400  0.54742800  1
  C  C23  1  0.93555300  0.41397000  0.44278800  1
  C  C24  1  0.06372200  0.58726600  0.55749600  1
  C  C25  1  0.87245400  0.51796500  0.49012800  1
  C  C26  1  0.12675800  0.48305800  0.51030800  1
  C  C27  1  0.43502400  0.06681400  0.43519600  1
  C  C28  1  0.56650100  0.93316000  0.56391600  1
  C  C29  1  0.59460700  0.07185500  0.53804700  1
  C  C30  1  0.40650400  0.92819200  0.46101800  1
  C  C31  1  0.30561500  0.16506000  0.91439600  1
  C  C32  1  0.69232000  0.83684800  0.08621000  1
  C  C33  1  0.39961500  0.10995500  0.34218100  1
  C  C34  1  0.60211100  0.89096100  0.65710100  1
  C  C35  1  0.72812400  0.11490100  0.54570900  1
  C  C36  1  0.27290700  0.88541800  0.45255400  1
  N  N1  1  0.48060400  0.85597200  0.51892700  1
  N  N2  1  0.51857100  0.14485700  0.48188000  1
  O  O1  1  0.31550100  0.60665200  0.51860500  1
  O  O2  1  0.68365100  0.39422600  0.48205700  1
  O  O3  1  0.67295500  0.63681900  0.50099400  1
  O  O4  1  0.32618600  0.36404500  0.49958400  1
  O  O5  1  0.48468500  0.63957400  0.37669800  1
  O  O6  1  0.51439400  0.36136600  0.62393400  1
  O  O7  1  0.51050300  0.60547600  0.63517000  1
  O  O8  1  0.48868100  0.39537100  0.36544700  1
  F  F1  1  0.21958500  0.21806300  0.85456800  1
  F  F2  1  0.24399000  0.08292300  0.97682500  1
  F  F3  1  0.38908600  0.07874800  0.86997100  1
  F  F4  1  0.60859600  0.92264800  0.13077800  1
  F  F5  1  0.75349800  0.91942000  0.02377300  1
  F  F6  1  0.77866400  0.78419800  0.14592400  1
  F  F7  1  0.30898200  0.21315300  0.34525500  1
  F  F8  1  0.35578700  0.99435000  0.29445500  1
  F  F9  1  0.50344400  0.15730800  0.29734900  1
  F  F10  1  0.69216200  0.78708600  0.65451800  1
  F  F11  1  0.49819900  0.84476400  0.70230100  1
  F  F12  1  0.64662100  0.00680900  0.70424100  1
  F  F13  1  0.77001500  0.15295300  0.46194900  1
  F  F14  1  0.80081000  0.00154200  0.57228500  1
  F  F15  1  0.74291100  0.22468000  0.60643400  1
  F  F16  1  0.22984000  0.84823100  0.53615600  1
  F  F17  1  0.25869700  0.77502300  0.39221600  1
  F  F18  1  0.20049800  0.99847700  0.42514200  1
