# Generated by REPEAT Assigner based on pymatgen
data_DB0-m2_o6_o14_f0_nbo.sym.12
_audit_creation_date              2022-05-24
_audit_creation_method            REPEAT_Assigner
_cell_length_a                    38.157247
_cell_length_b                    32.001859
_cell_length_c                    21.490569
_cell_angle_alpha                 90.000000
_cell_angle_beta                  122.875058
_cell_angle_gamma                 90.000000
_cell_volume                      22039.670920
_symmetry_space_group_name_H-M    P1
_symmetry_Int_Tables_number       1
loop_
    _symmetry_equiv_pos_site_id
    _symmetry_equiv_pos_as_xyz
    1  x,y,z
loop_
    _atom_site_type_symbol
    _atom_site_label
    _atom_site_fract_x
    _atom_site_fract_y
    _atom_site_fract_z
    _atom_type_partial_charge
    O   O1    0.939366  0.025789  0.431609  -0.648810
    O   O2    0.059702  0.026177  0.570546  -0.633818
    O   O3    0.439366  0.525789  0.431609  -0.648803
    O   O4    0.559702  0.526177  0.570546  -0.633817
    O   O5    0.939404  0.953867  0.433405  -0.571531
    O   O6    0.059966  0.954022  0.570001  -0.565711
    O   O7    0.439404  0.453867  0.433405  -0.571502
    O   O8    0.559966  0.454022  0.570001  -0.565690
    C   C1    0.920277  0.989758  0.408039  0.910534
    C   C2    0.079287  0.990171  0.589546  0.985364
    C   C3    0.420277  0.489758  0.408039  0.910486
    C   C4    0.579287  0.490171  0.589546  0.985293
    O   O9    0.993543  0.026242  0.583012  -0.652406
    O   O10   0.009009  0.025732  0.418512  -0.677003
    O   O11   0.493543  0.526242  0.583012  -0.652392
    O   O12   0.509009  0.525732  0.418512  -0.676998
    O   O13   0.994554  0.954217  0.584528  -0.564238
    O   O14   0.008205  0.953740  0.418032  -0.569624
    O   O15   0.494554  0.454217  0.584528  -0.564200
    O   O16   0.508205  0.453740  0.418032  -0.569602
    C   C5    0.988936  0.990246  0.607060  0.638569
    C   C6    0.010191  0.989661  0.390842  0.571947
    C   C7    0.488936  0.490246  0.607060  0.638465
    C   C8    0.510191  0.489661  0.390842  0.571872
    Cu  Cu1   0.999714  0.031619  0.498918  1.042689
    Cu  Cu2   0.499714  0.531619  0.498918  1.042655
    Cu  Cu3   0.999865  0.948313  0.499597  0.943934
    Cu  Cu4   0.499865  0.448313  0.499597  0.943947
    C   C9    0.000153  0.116981  0.000054  -0.551804
    C   C10   0.500153  0.616981  0.000054  -0.551809
    H   H1    0.039281  0.951432  0.729865  0.170022
    H   H2    0.959750  0.951616  0.267910  0.167952
    H   H3    0.539281  0.451432  0.729865  0.170033
    H   H4    0.459750  0.451616  0.267910  0.167963
    C   C11   0.921066  0.031956  0.613105  0.252830
    C   C12   0.080050  0.028754  0.387048  0.352540
    C   C13   0.421066  0.531956  0.613105  0.252842
    C   C14   0.580050  0.528754  0.387048  0.352563
    C   C15   0.893105  0.055334  0.620171  0.041555
    C   C16   0.108529  0.051665  0.380718  -0.003558
    C   C17   0.393105  0.555334  0.620171  0.041554
    C   C18   0.608529  0.551665  0.380718  -0.003575
    C   C19   0.898552  0.060585  0.688147  0.509451
    C   C20   0.102955  0.057698  0.312796  0.522550
    C   C21   0.398552  0.560585  0.688147  0.509443
    C   C22   0.602955  0.557698  0.312796  0.522565
    C   C23   0.930797  0.040798  0.749108  -0.583156
    C   C24   0.070147  0.038964  0.251139  -0.594439
    C   C25   0.430797  0.540798  0.749108  -0.583112
    C   C26   0.570147  0.538964  0.251139  -0.594464
    H   H5    0.933619  0.046023  0.801174  0.238988
    H   H6    0.067294  0.044692  0.199169  0.241169
    H   H7    0.433619  0.546023  0.801174  0.238943
    H   H8    0.567294  0.544692  0.199169  0.241172
    C   C27   0.958450  0.015662  0.742954  0.249619
    C   C28   0.041996  0.014219  0.256528  0.277055
    C   C29   0.458450  0.515662  0.742954  0.249636
    C   C30   0.541996  0.514219  0.256528  0.277117
    C   C31   0.955190  0.012975  0.675253  -0.291821
    C   C32   0.045260  0.011106  0.324184  -0.371665
    C   C33   0.455190  0.512975  0.675253  -0.291871
    C   C34   0.545260  0.511106  0.324184  -0.371716
    C   C35   0.985438  0.990354  0.671531  0.240182
    C   C36   0.014355  0.989295  0.327108  0.341413
    C   C37   0.485438  0.490354  0.671531  0.240281
    C   C38   0.514355  0.489295  0.327108  0.341502
    C   C39   0.015953  0.968907  0.732727  -0.452505
    C   C40   0.983459  0.968560  0.265395  -0.494822
    C   C41   0.515953  0.468907  0.732727  -0.452541
    C   C42   0.483459  0.468560  0.265395  -0.494859
    C   C43   0.018241  0.970643  0.798508  0.494019
    C   C44   0.981275  0.970447  0.199719  0.514425
    C   C45   0.518241  0.470643  0.798508  0.494037
    C   C46   0.481275  0.470447  0.199719  0.514459
    C   C47   0.989875  0.993998  0.804324  -0.319811
    C   C48   0.010093  0.993375  0.194509  -0.339598
    C   C49   0.489875  0.493998  0.804324  -0.319856
    C   C50   0.510093  0.493375  0.194509  -0.339683
    H   H9    0.788136  0.955150  0.191111  0.193663
    H   H10   0.211019  0.955795  0.808511  0.192388
    H   H11   0.288136  0.455150  0.191111  0.193657
    H   H12   0.711019  0.455795  0.808511  0.192385
    C   C51   0.728385  0.971688  0.170087  0.527630
    C   C52   0.270920  0.972255  0.830132  0.520549
    C   C53   0.228385  0.471688  0.170087  0.527636
    C   C54   0.770920  0.472255  0.830132  0.520555
    C   C55   0.707056  0.992004  0.196372  -0.387662
    C   C56   0.292434  0.992537  0.804175  -0.383005
    C   C57   0.207056  0.492004  0.196372  -0.387733
    C   C58   0.792434  0.492537  0.804175  -0.383068
    C   C59   0.728816  0.011856  0.264150  0.371536
    C   C60   0.270857  0.012486  0.736482  0.377257
    C   C61   0.228816  0.511856  0.264150  0.371575
    C   C62   0.770857  0.512486  0.736482  0.377289
    C   C63   0.771846  0.011308  0.305692  0.188655
    C   C64   0.227831  0.012037  0.694663  0.198093
    C   C65   0.271846  0.511308  0.305692  0.188665
    C   C66   0.727831  0.512037  0.694663  0.198104
    C   C67   0.793169  0.990949  0.279472  -0.051886
    C   C68   0.206318  0.991689  0.720515  -0.091545
    C   C69   0.293169  0.490949  0.279472  -0.051901
    C   C70   0.706318  0.491689  0.720515  -0.091555
    C   C71   0.771437  0.971162  0.211636  -0.425893
    C   C72   0.227864  0.971829  0.788296  -0.408937
    C   C73   0.271437  0.471162  0.211636  -0.425877
    C   C74   0.727864  0.471829  0.788296  -0.408926
    C   C75   0.662239  0.992336  0.153530  0.246097
    C   C76   0.337254  0.992688  0.847184  0.239311
    C   C77   0.162239  0.492336  0.153530  0.246157
    C   C78   0.837254  0.492688  0.847184  0.239352
    C   C79   0.837962  0.990171  0.323291  0.240524
    C   C80   0.161530  0.990849  0.676162  0.293262
    C   C81   0.337962  0.490171  0.323291  0.240518
    C   C82   0.661530  0.490849  0.676162  0.293242
    C   C83   0.875556  0.989803  0.361217  -0.449869
    C   C84   0.123955  0.990390  0.637537  -0.523013
    C   C85   0.375556  0.489803  0.361217  -0.449838
    C   C86   0.623955  0.490390  0.637537  -0.522958
    C   C87   0.624621  0.992714  0.117931  -0.363973
    C   C88   0.374873  0.992933  0.882836  -0.357360
    C   C89   0.124621  0.492714  0.117931  -0.364053
    C   C90   0.874873  0.492933  0.882836  -0.357407
    C   C91   0.499756  0.868082  0.000591  -0.543707
    C   C92   0.999756  0.368082  0.000591  -0.543732
    O   O17   0.033270  0.933478  0.009850  -0.615256
    O   O18   0.966536  0.933526  0.988429  -0.616446
    O   O19   0.533270  0.433478  0.009850  -0.615289
    O   O20   0.466536  0.433526  0.988429  -0.616424
    C   C93   0.999880  0.914017  0.999086  0.969489
    C   C94   0.499880  0.414017  0.999086  0.969516
    O   O21   0.029456  0.004824  0.935203  -0.673870
    O   O22   0.970576  0.004655  0.063735  -0.674783
    O   O23   0.529456  0.504824  0.935203  -0.673920
    O   O24   0.470576  0.504655  0.063735  -0.674819
    O   O25   0.960806  0.981770  0.877333  -0.622551
    O   O26   0.039141  0.981401  0.121377  -0.621498
    O   O27   0.460806  0.481770  0.877333  -0.622552
    O   O28   0.539141  0.481401  0.121377  -0.621547
    C   C95   0.993323  0.994034  0.875538  0.869951
    C   C96   0.006672  0.993683  0.123306  0.870835
    C   C97   0.493323  0.494034  0.875538  0.870011
    C   C98   0.506672  0.493683  0.123306  0.870940
    Cu  Cu5   0.040622  0.993035  0.033566  0.981943
    Cu  Cu6   0.959367  0.993151  0.965259  0.984249
    Cu  Cu7   0.540622  0.493035  0.033566  0.981867
    Cu  Cu8   0.459367  0.493151  0.965259  0.984345
    O   O29   0.035342  0.052609  0.046661  -0.635469
    O   O30   0.964832  0.052759  0.952727  -0.635707
    O   O31   0.535342  0.552609  0.046661  -0.635482
    O   O32   0.464832  0.552759  0.952727  -0.635629
    C   C99   0.000113  0.072172  0.999800  0.981250
    C   C100  0.500113  0.572172  0.999800  0.981200
    O   O33   0.502019  0.932368  0.056348  -0.616150
    O   O34   0.497417  0.932280  0.944592  -0.616006
    O   O35   0.002019  0.432368  0.056348  -0.616181
    O   O36   0.997417  0.432280  0.944592  -0.616050
    C   C101  0.499716  0.912900  0.000501  0.996097
    C   C102  0.999716  0.412900  0.000501  0.996149
    O   O37   0.561055  0.991473  0.111951  -0.559609
    O   O38   0.438439  0.991448  0.888821  -0.559779
    O   O39   0.061055  0.491473  0.111951  -0.559628
    O   O40   0.938439  0.491448  0.888821  -0.559820
    O   O41   0.559765  0.991433  0.003435  -0.613926
    O   O42   0.439730  0.991590  0.997337  -0.611577
    O   O43   0.059765  0.491433  0.003435  -0.613961
    O   O44   0.939730  0.491590  0.997337  -0.611592
    C   C103  0.579824  0.993265  0.075893  0.803995
    C   C104  0.419673  0.993360  0.924877  0.798620
    C   C105  0.079824  0.493265  0.075893  0.804081
    C   C106  0.919673  0.493360  0.924877  0.798676
    Cu  Cu9   0.500470  0.993128  0.063069  0.998984
    Cu  Cu10  0.499026  0.993022  0.937697  1.000082
    Cu  Cu11  0.000470  0.493128  0.063069  0.999002
    Cu  Cu12  0.999026  0.493022  0.937697  1.000002
    O   O45   0.502176  0.053858  0.056122  -0.624107
    O   O46   0.497384  0.053767  0.944473  -0.623131
    O   O47   0.002176  0.553858  0.056122  -0.624145
    O   O48   0.997384  0.553767  0.944473  -0.623185
    C   C107  0.499790  0.073269  0.000267  0.847016
    C   C108  0.999790  0.573269  0.000267  0.847059
    C   C109  0.469144  0.222178  0.001686  0.305973
    C   C110  0.530497  0.222029  0.997724  0.307429
    C   C111  0.969144  0.722178  0.001686  0.305969
    C   C112  0.030497  0.722029  0.997724  0.307428
    C   C113  0.499823  0.200566  0.999826  -0.380633
    C   C114  0.999823  0.700566  0.999826  -0.380627
    C   C115  0.030497  0.765114  0.997497  0.288955
    C   C116  0.969143  0.765263  0.001457  0.291138
    C   C117  0.530497  0.265114  0.997497  0.288968
    C   C118  0.469143  0.265263  0.001457  0.291140
    C   C119  0.999820  0.786726  0.999362  -0.411922
    C   C120  0.499820  0.286726  0.999362  -0.411936
    C   C121  0.499816  0.155733  0.000037  0.311900
    C   C122  0.999816  0.655733  0.000037  0.311884
    C   C123  0.999838  0.831557  0.999192  0.404577
    C   C124  0.499838  0.331557  0.999192  0.404597
    C   C125  0.999855  0.869201  0.999104  -0.534418
    C   C126  0.499855  0.369201  0.999104  -0.534447
    C   C127  0.499807  0.118089  0.000175  -0.392466
    C   C128  0.999807  0.618089  0.000175  -0.392472
    C   C129  0.469990  0.764071  0.938542  0.312004
    C   C130  0.529846  0.764065  0.062449  0.313213
    C   C131  0.969990  0.264071  0.938542  0.312007
    C   C132  0.029846  0.264065  0.062449  0.313216
    C   C133  0.499873  0.785606  0.000545  -0.437965
    C   C134  0.999873  0.285606  0.000545  -0.437987
    C   C135  0.029936  0.220979  0.062346  0.308123
    C   C136  0.970079  0.220987  0.938440  0.309957
    C   C137  0.529936  0.720979  0.062346  0.308104
    C   C138  0.470079  0.720987  0.938440  0.309946
    C   C139  0.000054  0.199449  0.000338  -0.445753
    C   C140  0.500054  0.699449  0.000338  -0.445728
    C   C141  0.499806  0.830437  0.000602  0.416985
    C   C142  0.999806  0.330437  0.000602  0.416989
    C   C143  0.000131  0.154622  0.000212  0.426948
    C   C144  0.500131  0.654622  0.000212  0.426948
    O   O49   0.793368  0.030766  0.373039  -0.410944
    H   H13   0.796971  0.059840  0.361707  0.285516
    O   O50   0.206494  0.031529  0.627337  -0.419546
    H   H14   0.202879  0.060606  0.638639  0.288113
    O   O51   0.293368  0.530766  0.373039  -0.410953
    H   H15   0.296971  0.559840  0.361707  0.285518
    O   O52   0.706494  0.531529  0.627337  -0.419555
    H   H16   0.702879  0.560606  0.638639  0.288114
    O   O53   0.938758  0.786682  0.003322  -0.468109
    H   H17   0.949747  0.789696  0.056737  0.337494
    O   O54   0.060890  0.786385  0.995430  -0.467989
    H   H18   0.049906  0.789207  0.941988  0.337988
    O   O55   0.438758  0.286682  0.003322  -0.468107
    H   H19   0.449747  0.289696  0.056737  0.337492
    O   O56   0.560890  0.286385  0.995430  -0.467991
    H   H20   0.549906  0.289207  0.941988  0.337986
    O   O57   0.438755  0.200909  0.003765  -0.481815
    H   H21   0.449731  0.198114  0.057209  0.336432
    O   O58   0.560884  0.200611  0.995864  -0.482064
    H   H22   0.549906  0.197615  0.942450  0.336203
    O   O59   0.938755  0.700909  0.003765  -0.481811
    H   H23   0.949731  0.698114  0.057209  0.336429
    O   O60   0.060884  0.700611  0.995864  -0.482060
    H   H24   0.049906  0.697615  0.942450  0.336200
    O   O61   0.940473  0.199642  0.877023  -0.485632
    H   H25   0.952480  0.196750  0.846366  0.350865
    O   O62   0.059630  0.199627  0.123660  -0.484247
    H   H26   0.047636  0.196524  0.154307  0.349573
    O   O63   0.440473  0.699642  0.877023  -0.485634
    H   H27   0.452480  0.696750  0.846366  0.350868
    O   O64   0.559630  0.699627  0.123660  -0.484239
    H   H28   0.547636  0.696524  0.154307  0.349573
    O   O65   0.440308  0.785418  0.877212  -0.472059
    H   H29   0.452267  0.788409  0.846493  0.335438
    O   O66   0.559454  0.785406  0.123865  -0.472498
    H   H30   0.547489  0.788203  0.154605  0.335646
    O   O67   0.940308  0.285418  0.877212  -0.472060
    H   H31   0.952267  0.288409  0.846493  0.335437
    O   O68   0.059454  0.285406  0.123865  -0.472494
    H   H32   0.047489  0.288203  0.154605  0.335642
    O   O69   0.912606  0.026053  0.543305  -0.438753
    H   H33   0.916286  0.054001  0.527846  0.399041
    O   O70   0.088786  0.021566  0.456732  -0.480396
    H   H34   0.086844  0.049398  0.474795  0.402212
    O   O71   0.412606  0.526053  0.543305  -0.438756
    H   H35   0.416286  0.554001  0.527846  0.399042
    O   O72   0.588786  0.521566  0.456732  -0.480401
    H   H36   0.586844  0.549398  0.474795  0.402212
    O   O73   0.859662  0.073394  0.559089  -0.479609
    H   H37   0.837317  0.052101  0.540140  0.335117
    O   O74   0.142642  0.068417  0.442455  -0.472620
    H   H38   0.164355  0.046533  0.459921  0.338133
    O   O75   0.359662  0.573394  0.559089  -0.479611
    H   H39   0.337317  0.552101  0.540140  0.335117
    O   O76   0.642642  0.568417  0.442455  -0.472612
    H   H40   0.664355  0.546533  0.459921  0.338131
    O   O77   0.871226  0.084630  0.694931  -0.524216
    H   H41   0.849644  0.064757  0.688639  0.342693
    O   O78   0.130788  0.081314  0.306757  -0.523862
    H   H42   0.151777  0.061010  0.311875  0.342964
    O   O79   0.371226  0.584630  0.694931  -0.524215
    H   H43   0.349644  0.564757  0.688639  0.342694
    O   O80   0.630788  0.581314  0.306757  -0.523864
    H   H44   0.651777  0.561010  0.311875  0.342964
    O   O81   0.048613  0.948610  0.858020  -0.499326
    H   H45   0.073992  0.966021  0.878229  0.354568
    O   O82   0.950484  0.949092  0.139669  -0.495090
    H   H46   0.925417  0.966921  0.120024  0.351762
    O   O83   0.548613  0.448610  0.858020  -0.499329
    H   H47   0.573992  0.466021  0.878229  0.354570
    O   O84   0.450484  0.449092  0.139669  -0.495097
    H   H48   0.425417  0.466921  0.120024  0.351766
    O   O85   0.706888  0.951981  0.102991  -0.461644
    H   H49   0.704871  0.973056  0.067456  0.304593
    O   O86   0.292237  0.952439  0.897135  -0.462247
    H   H50   0.294241  0.973480  0.932706  0.305257
    O   O87   0.206888  0.451981  0.102991  -0.461642
    H   H51   0.204871  0.473056  0.067456  0.304594
    O   O88   0.792237  0.452439  0.897135  -0.462247
    H   H52   0.794241  0.473480  0.932706  0.305258
    O   O89   0.707738  0.031952  0.290279  -0.448633
    H   H53   0.705210  0.061152  0.273090  0.306236
    O   O90   0.292117  0.032534  0.710666  -0.448941
    H   H54   0.294685  0.061724  0.727925  0.305237
    O   O91   0.207738  0.531952  0.290279  -0.448646
    H   H55   0.205210  0.561152  0.273090  0.306239
    O   O92   0.792117  0.532534  0.710666  -0.448952
    H   H56   0.794685  0.561724  0.727925  0.305241
