# generated using pymatgen
data_Fe2H21C42NO17
_symmetry_space_group_name_H-M   'P 1'
_cell_length_a   15.48949200
_cell_length_b   16.38596700
_cell_length_c   13.44181300
_cell_angle_alpha   88.44720800
_cell_angle_beta   102.00461500
_cell_angle_gamma   114.58279400
_symmetry_Int_Tables_number   1
_chemical_formula_structural   Fe2H21C42NO17
_chemical_formula_sum   'Fe2 H21 C42 N1 O17'
_cell_volume   3027.81220082
_cell_formula_units_Z   1
loop_
 _symmetry_equiv_pos_site_id
 _symmetry_equiv_pos_as_xyz
  1  'x, y, z'
loop_
 _atom_site_type_symbol
 _atom_site_label
 _atom_site_symmetry_multiplicity
 _atom_site_fract_x
 _atom_site_fract_y
 _atom_site_fract_z
 _atom_site_occupancy
  Fe  Fe1  1  0.48094800  0.98475900  0.77940600  1
  Fe  Fe2  1  0.49643200  0.99104900  0.22522300  1
  H  H1  1  0.94572600  0.03164500  0.21460100  1
  H  H2  1  0.82336400  0.99320700  0.89659800  1
  H  H3  1  0.05002700  0.05128500  0.09858900  1
  H  H4  1  0.93158500  0.93593700  0.90067100  1
  H  H5  1  0.03832000  0.95173600  0.78610100  1
  H  H6  1  0.19159400  0.96131900  0.75645100  1
  H  H7  1  0.15626300  0.99303500  0.10578700  1
  H  H8  1  0.46595800  0.88720400  0.48313000  1
  H  H9  1  0.50315100  0.67982900  0.34482500  1
  H  H10  1  0.46904800  0.66452800  0.65421900  1
  H  H11  1  0.37523800  0.51175000  0.58405400  1
  H  H12  1  0.38174700  0.36671100  0.58558300  1
  H  H13  1  0.61057100  0.46700900  0.42214100  1
  H  H14  1  0.60403400  0.61212000  0.42057700  1
  H  H15  1  0.51668600  0.31364200  0.35259500  1
  H  H16  1  0.51861400  0.09102200  0.52447100  1
  H  H17  1  0.48291500  0.29974100  0.66199700  1
  H  H18  1  0.81156000  0.97822800  0.32027500  1
  H  H19  1  0.84559200  0.06304800  0.46707500  1
  H  H20  1  0.82515500  0.16379300  0.45143000  1
  H  H21  1  0.94315700  0.16804700  0.44875300  1
  C  C1  1  0.79938400  0.01575700  0.17134600  1
  C  C2  1  0.88493400  0.02075100  0.15180100  1
  C  C3  1  0.89296200  0.00922100  0.05394800  1
  C  C4  1  0.81513900  0.99665000  0.97385800  1
  C  C5  1  0.72758700  0.99107400  0.99153300  1
  C  C6  1  0.71897000  0.99800100  0.09240400  1
  C  C7  1  0.98663300  0.01423600  0.03948700  1
  C  C8  1  0.99491400  0.97280900  0.95997200  1
  C  C9  1  0.09815000  0.96344700  0.85028600  1
  C  C10  1  0.18463200  0.96826700  0.83377600  1
  C  C11  1  0.26327100  0.98578900  0.91377900  1
  C  C12  1  0.25319400  0.99358900  0.01360700  1
  C  C13  1  0.16553200  0.98938700  0.02899600  1
  C  C14  1  0.08874500  0.97669700  0.94730900  1
  C  C15  1  0.48158200  0.13637300  0.68687300  1
  C  C16  1  0.35463800  0.99758800  0.88731200  1
  C  C17  1  0.65017300  0.98444400  0.90173200  1
  C  C18  1  0.46366300  0.82830000  0.66894500  1
  C  C19  1  0.51957900  0.14880800  0.33805900  1
  C  C20  1  0.32928700  0.99916700  0.10395300  1
  C  C21  1  0.62656900  0.98240200  0.11972100  1
  C  C22  1  0.50353700  0.84320800  0.32096600  1
  C  C23  1  0.48273900  0.78664700  0.40609200  1
  C  C24  1  0.49153100  0.70643800  0.41101300  1
  C  C25  1  0.48295300  0.66012600  0.49891700  1
  C  C26  1  0.47056200  0.69768000  0.58360100  1
  C  C27  1  0.46488900  0.77992500  0.57908100  1
  C  C28  1  0.46801800  0.82214800  0.48883400  1
  C  C29  1  0.42826300  0.50313100  0.54957500  1
  C  C30  1  0.43197500  0.42045800  0.55025800  1
  C  C31  1  0.49681500  0.40605800  0.50398800  1
  C  C32  1  0.55758100  0.47567200  0.45664100  1
  C  C33  1  0.55385600  0.55836400  0.45594200  1
  C  C34  1  0.48911700  0.57279100  0.50237000  1
  C  C35  1  0.51527700  0.28077100  0.42339600  1
  C  C36  1  0.51995700  0.19807900  0.42811600  1
  C  C37  1  0.51688700  0.15620900  0.51862900  1
  C  C38  1  0.50276400  0.19238700  0.60134800  1
  C  C39  1  0.49433100  0.27274500  0.59594500  1
  C  C40  1  0.50309800  0.31877200  0.50787800  1
  C  C41  1  0.83327400  0.10716900  0.31458000  1
  C  C42  1  0.86362700  0.12637300  0.42743500  1
  N  N1  1  0.79270000  0.02174100  0.27370600  1
  O  O1  1  0.54543700  0.10618700  0.73157300  1
  O  O2  1  0.43395100  0.07110400  0.91969100  1
  O  O3  1  0.39020000  0.09245500  0.69211900  1
  O  O4  1  0.35303200  0.94256800  0.81702500  1
  O  O5  1  0.56558400  0.97911100  0.91209300  1
  O  O6  1  0.66827800  0.98986400  0.81005900  1
  O  O7  1  0.46254400  0.90766900  0.65645400  1
  O  O8  1  0.47304900  0.79793400  0.76005800  1
  O  O9  1  0.51230800  0.06640000  0.34874300  1
  O  O10  1  0.51760100  0.18223700  0.24822300  1
  O  O11  1  0.40920700  0.99407100  0.09323800  1
  O  O12  1  0.31387500  0.00205000  0.19589200  1
  O  O13  1  0.59498400  0.89251200  0.31973000  1
  O  O14  1  0.62405000  0.03827100  0.18621900  1
  O  O15  1  0.43682800  0.86876600  0.27305200  1
  O  O16  1  0.55024500  0.90595800  0.09013200  1
  O  O17  1  0.84472300  0.16930900  0.25916100  1
