# generated using pymatgen
data_ZnH8(C9O2)2
_symmetry_space_group_name_H-M   'P 1'
_cell_length_a   30.22792400
_cell_length_b   19.56896100
_cell_length_c   40.56728700
_cell_angle_alpha   86.94702000
_cell_angle_beta   86.15553700
_cell_angle_gamma   49.17651800
_symmetry_Int_Tables_number   1
_chemical_formula_structural   ZnH8(C9O2)2
_chemical_formula_sum   'Zn10 H80 C180 O40'
_cell_volume   18116.70270530
_cell_formula_units_Z   10
loop_
 _symmetry_equiv_pos_site_id
 _symmetry_equiv_pos_as_xyz
  1  'x, y, z'
loop_
 _atom_site_type_symbol
 _atom_site_label
 _atom_site_symmetry_multiplicity
 _atom_site_fract_x
 _atom_site_fract_y
 _atom_site_fract_z
 _atom_site_occupancy
  Zn  Zn1  1  0.96304800  0.59053200  0.50846300  1
  Zn  Zn2  1  0.04764200  0.39154400  0.49970800  1
  Zn  Zn3  1  0.45580000  0.61049400  0.49556800  1
  Zn  Zn4  1  0.53873300  0.41171000  0.50682100  1
  Zn  Zn5  1  0.29500600  0.02295200  0.81276100  1
  Zn  Zn6  1  0.21950000  0.97541600  0.81986700  1
  Zn  Zn7  1  0.97378800  0.58671600  0.12589200  1
  Zn  Zn8  1  0.05683200  0.38787400  0.13697000  1
  Zn  Zn9  1  0.46490600  0.60668500  0.13316200  1
  Zn  Zn10  1  0.54964500  0.40776900  0.12426300  1
  H  H1  1  0.80345000  0.63883200  0.50185400  1
  H  H2  1  0.92197900  0.35038200  0.50153200  1
  H  H3  1  0.88513000  0.27375300  0.50006500  1
  H  H4  1  0.80250600  0.27834900  0.49857800  1
  H  H5  1  0.69986700  0.36254400  0.49773900  1
  H  H6  1  0.58152700  0.65101300  0.49621600  1
  H  H7  1  0.61844700  0.72767400  0.49719700  1
  H  H8  1  0.70096500  0.72306400  0.49955600  1
  H  H9  1  0.08229100  0.63870600  0.50392700  1
  H  H10  1  0.20826600  0.35022700  0.50602900  1
  H  H11  1  0.31000900  0.27426800  0.50744600  1
  H  H12  1  0.38845900  0.27971800  0.50811800  1
  H  H13  1  0.41944600  0.36446100  0.50741000  1
  H  H14  1  0.29366800  0.65289300  0.50377500  1
  H  H15  1  0.19180400  0.72890600  0.50331600  1
  H  H16  1  0.11327100  0.72348400  0.50334700  1
  H  H17  1  0.10892400  0.13761000  0.73778700  1
  H  H18  1  0.18695600  0.25520000  0.74568600  1
  H  H19  1  0.16063000  0.37539300  0.70879000  1
  H  H20  1  0.11088700  0.46839700  0.65966300  1
  H  H21  1  0.05640000  0.50054800  0.61191000  1
  H  H22  1  0.98611600  0.37289700  0.60215900  1
  H  H23  1  0.99563800  0.27614900  0.64523000  1
  H  H24  1  0.04248800  0.18717400  0.69543800  1
  H  H25  1  0.06685300  0.37585800  0.39804200  1
  H  H26  1  0.93485500  0.66395400  0.39884700  1
  H  H27  1  0.89895300  0.74521200  0.34662300  1
  H  H28  1  0.89949800  0.74451200  0.28622000  1
  H  H29  1  0.93668800  0.66210500  0.23480300  1
  H  H30  1  0.06776700  0.37392700  0.23822000  1
  H  H31  1  0.10381700  0.29612900  0.28842600  1
  H  H32  1  0.10360700  0.29687300  0.34847900  1
  H  H33  1  0.40109900  0.85806700  0.72775700  1
  H  H34  1  0.31647600  0.75122200  0.75069600  1
  H  H35  1  0.33728200  0.63558400  0.71697600  1
  H  H36  1  0.38322800  0.54398600  0.66714000  1
  H  H37  1  0.43722300  0.50931500  0.61513600  1
  H  H38  1  0.51526500  0.62497400  0.59122500  1
  H  H39  1  0.50987800  0.71815800  0.63003700  1
  H  H40  1  0.46630600  0.80630500  0.68064900  1
  H  H41  1  0.44017100  0.62323300  0.39471200  1
  H  H42  1  0.57670600  0.33612400  0.39786000  1
  H  H43  1  0.61514900  0.25383300  0.34640200  1
  H  H44  1  0.61586100  0.25308900  0.28599300  1
  H  H45  1  0.57892800  0.33417200  0.23382300  1
  H  H46  1  0.44160800  0.62114900  0.23482100  1
  H  H47  1  0.40286900  0.69978700  0.28449600  1
  H  H48  1  0.40244300  0.70059500  0.34456300  1
  H  H49  1  0.07777400  0.48801900  0.01780100  1
  H  H50  1  0.99763600  0.37532900  0.04086200  1
  H  H51  1  0.00276400  0.28280200  0.00184200  1
  H  H52  1  0.04659600  0.19441900  0.95128900  1
  H  H53  1  0.11247100  0.14170200  0.90446000  1
  H  H54  1  0.19883700  0.24601000  0.88228000  1
  H  H55  1  0.17851600  0.36095200  0.91619300  1
  H  H56  1  0.13246400  0.45260600  0.96601100  1
  H  H57  1  0.52688800  0.62652400  0.03102500  1
  H  H58  1  0.45781900  0.49732700  0.02052800  1
  H  H59  1  0.40391400  0.52905600  0.97254300  1
  H  H60  1  0.35442400  0.62199200  0.92336300  1
  H  H61  1  0.32795500  0.74252700  0.88662500  1
  H  H62  1  0.40495800  0.86147900  0.89520300  1
  H  H63  1  0.47087900  0.81241800  0.93782200  1
  H  H64  1  0.51738600  0.72360000  0.98810900  1
  H  H65  1  0.09329300  0.63372200  0.12415900  1
  H  H66  1  0.21904900  0.34529600  0.12788300  1
  H  H67  1  0.32093000  0.26926800  0.12827500  1
  H  H68  1  0.39946200  0.27467800  0.12832200  1
  H  H69  1  0.43044100  0.35945300  0.12792300  1
  H  H70  1  0.30447400  0.64792700  0.12577800  1
  H  H71  1  0.20275300  0.72388500  0.12412500  1
  H  H72  1  0.12431000  0.71844500  0.12335800  1
  H  H73  1  0.81259100  0.63590300  0.13608300  1
  H  H74  1  0.93100100  0.34743300  0.13728400  1
  H  H75  1  0.89410200  0.27073600  0.13637300  1
  H  H76  1  0.81160400  0.27529500  0.13403500  1
  H  H77  1  0.70912800  0.35947900  0.13170200  1
  H  H78  1  0.59050500  0.64791600  0.13233100  1
  H  H79  1  0.62731000  0.72458900  0.13401200  1
  H  H80  1  0.70991300  0.72005100  0.13548500  1
  C  C1  1  0.09244200  0.49199800  0.50470800  1
  C  C2  1  0.00113800  0.51381300  0.43898300  1
  C  C3  1  0.01095100  0.46390500  0.56888000  1
  C  C4  1  0.91745700  0.49212300  0.50306600  1
  C  C5  1  0.58581300  0.50914300  0.49763500  1
  C  C6  1  0.50685700  0.48682200  0.43656200  1
  C  C7  1  0.48631600  0.53955200  0.56544500  1
  C  C8  1  0.40954200  0.51102900  0.50474900  1
  C  C9  1  0.18865800  0.12324600  0.77082900  1
  C  C10  1  0.19356600  0.12149500  0.86338200  1
  C  C11  1  0.32091200  0.87688900  0.76924100  1
  C  C12  1  0.32581200  0.87511000  0.86180400  1
  C  C13  1  0.00452400  0.51115800  0.19615700  1
  C  C14  1  0.10314000  0.48718600  0.12713200  1
  C  C15  1  0.92671300  0.48931100  0.13573400  1
  C  C16  1  0.02737300  0.45912500  0.06709500  1
  C  C17  1  0.59511300  0.50612900  0.13038100  1
  C  C18  1  0.50239800  0.53461500  0.06393400  1
  C  C19  1  0.51068800  0.48402900  0.19379500  1
  C  C20  1  0.42027300  0.50617200  0.12742500  1
  C  C21  1  0.81175200  0.57615300  0.50140800  1
  C  C22  1  0.86829700  0.49424900  0.50191200  1
  C  C23  1  0.87801400  0.41488300  0.50106700  1
  C  C24  1  0.83139900  0.41753000  0.49997200  1
  C  C25  1  0.77506100  0.49940500  0.49934000  1
  C  C26  1  0.76527700  0.57868100  0.49995000  1
  C  C27  1  0.84111400  0.33820700  0.49955900  1
  C  C28  1  0.79455800  0.34080900  0.49870500  1
  C  C29  1  0.73821300  0.42273200  0.49806700  1
  C  C30  1  0.72848000  0.50202200  0.49821000  1
  C  C31  1  0.67215800  0.58389600  0.49740400  1
  C  C32  1  0.66245300  0.66321800  0.49777800  1
  C  C33  1  0.70895100  0.66060700  0.49912800  1
  C  C34  1  0.69163500  0.42523300  0.49755900  1
  C  C35  1  0.63511100  0.50712400  0.49688700  1
  C  C36  1  0.62551500  0.58652600  0.49652400  1
  C  C37  1  0.12707100  0.57611100  0.50457300  1
  C  C38  1  0.13998000  0.49401700  0.50494700  1
  C  C39  1  0.19756800  0.41483900  0.50561400  1
  C  C40  1  0.24184800  0.41795200  0.50604400  1
  C  C41  1  0.22874500  0.50004400  0.50551200  1
  C  C42  1  0.17136300  0.57907300  0.50470800  1
  C  C43  1  0.29932700  0.33889200  0.50699400  1
  C  C44  1  0.34352200  0.34198800  0.50738500  1
  C  C45  1  0.33037200  0.42412700  0.50669400  1
  C  C46  1  0.27301200  0.50315000  0.50571700  1
  C  C47  1  0.25995200  0.58522600  0.50484200  1
  C  C48  1  0.20246000  0.66429100  0.50399100  1
  C  C49  1  0.15821700  0.66121100  0.50400100  1
  C  C50  1  0.37466900  0.42707600  0.50681100  1
  C  C51  1  0.36186300  0.50912800  0.50562900  1
  C  C52  1  0.30430800  0.58830500  0.50466500  1
  C  C53  1  0.11344300  0.18639700  0.72977700  1
  C  C54  1  0.15192800  0.18918000  0.74478200  1
  C  C55  1  0.15740100  0.25171800  0.73399300  1
  C  C56  1  0.12602500  0.30891600  0.70769600  1
  C  C57  1  0.08976500  0.30291700  0.69184400  1
  C  C58  1  0.08315100  0.24214300  0.70306900  1
  C  C59  1  0.13242300  0.37000900  0.69646300  1
  C  C60  1  0.10426000  0.42263700  0.66878900  1
  C  C61  1  0.06990900  0.41393100  0.65207100  1
  C  C62  1  0.06210000  0.35484900  0.66393300  1
  C  C63  1  0.02927400  0.34391000  0.64683100  1
  C  C64  1  0.02137200  0.28493800  0.65856000  1
  C  C65  1  0.04786800  0.23467600  0.68681400  1
  C  C66  1  0.04660100  0.45961800  0.62243600  1
  C  C67  1  0.01726200  0.44360000  0.60424200  1
  C  C68  1  0.00762700  0.38731200  0.61687400  1
  C  C69  1  0.03770100  0.44019900  0.38541400  1
  C  C70  1  0.00071100  0.51984800  0.40276100  1
  C  C71  1  0.96411300  0.60108400  0.38561700  1
  C  C72  1  0.96453100  0.60148800  0.35133900  1
  C  C73  1  0.00131800  0.52118000  0.33444400  1
  C  C74  1  0.03793400  0.44077500  0.35159500  1
  C  C75  1  0.92804200  0.68170900  0.33376800  1
  C  C76  1  0.92833600  0.68131200  0.29964100  1
  C  C77  1  0.96503600  0.60067800  0.28280700  1
  C  C78  1  0.00149800  0.52076700  0.30042000  1
  C  C79  1  0.03819900  0.43994200  0.28401200  1
  C  C80  1  0.07492800  0.35967900  0.30126000  1
  C  C81  1  0.07482800  0.36010100  0.33506400  1
  C  C82  1  0.96534000  0.59949600  0.24857500  1
  C  C83  1  0.00212000  0.51785700  0.23221200  1
  C  C84  1  0.03841800  0.43856100  0.25024700  1
  C  C85  1  0.39416500  0.81204500  0.72280400  1
  C  C86  1  0.35504500  0.81184500  0.74236500  1
  C  C87  1  0.34660300  0.75265400  0.73547400  1
  C  C88  1  0.37564800  0.69632600  0.70857300  1
  C  C89  1  0.41273200  0.69960000  0.68834400  1
  C  C90  1  0.42233000  0.75692700  0.69564300  1
  C  C91  1  0.36618200  0.63878900  0.70121500  1
  C  C92  1  0.39219400  0.58695900  0.67313500  1
  C  C93  1  0.42755300  0.59278100  0.65217800  1
  C  C94  1  0.43837100  0.64831500  0.66010100  1
  C  C95  1  0.47236100  0.65626100  0.63887900  1
  C  C96  1  0.48322000  0.71174600  0.64662500  1
  C  C97  1  0.45858200  0.76153000  0.67510800  1
  C  C98  1  0.44910400  0.54762800  0.62242400  1
  C  C99  1  0.47997700  0.56038300  0.60032600  1
  C  C100  1  0.49246800  0.61318900  0.60894800  1
  C  C101  1  0.47066500  0.55881400  0.38261600  1
  C  C102  1  0.50862300  0.47988300  0.40056400  1
  C  C103  1  0.54672800  0.39843400  0.38415100  1
  C  C104  1  0.54692100  0.39715400  0.34992900  1
  C  C105  1  0.50896800  0.47674700  0.33238400  1
  C  C106  1  0.47075900  0.55732100  0.34885900  1
  C  C107  1  0.58513100  0.31677800  0.33303200  1
  C  C108  1  0.58552200  0.31635500  0.29890300  1
  C  C109  1  0.54763300  0.39628700  0.28139500  1
  C  C110  1  0.50926200  0.47630200  0.29835500  1
  C  C111  1  0.47126400  0.55641800  0.28126100  1
  C  C112  1  0.43274800  0.63679000  0.29786500  1
  C  C113  1  0.43252200  0.63724800  0.33167700  1
  C  C114  1  0.54833200  0.39674400  0.24710700  1
  C  C115  1  0.51051000  0.47775600  0.23001800  1
  C  C116  1  0.47182600  0.55704500  0.24742500  1
  C  C117  1  0.06550500  0.45037800  0.01031700  1
  C  C118  1  0.03393700  0.43849700  0.03217100  1
  C  C119  1  0.02094600  0.38650000  0.02331300  1
  C  C120  1  0.04123000  0.34333900  0.99339700  1
  C  C121  1  0.07584400  0.35045200  0.97241500  1
  C  C122  1  0.08716200  0.40521800  0.98056400  1
  C  C123  1  0.02990500  0.28856800  0.98544100  1
  C  C124  1  0.05469000  0.23864800  0.95699200  1
  C  C125  1  0.09152400  0.24243300  0.93669500  1
  C  C126  1  0.10158500  0.29907500  0.94419700  1
  C  C127  1  0.13921700  0.30156500  0.92419900  1
  C  C128  1  0.14917800  0.35837200  0.93177000  1
  C  C129  1  0.12310800  0.41023500  0.95984100  1
  C  C130  1  0.11978700  0.18718200  0.90957100  1
  C  C131  1  0.15941100  0.18662600  0.89023300  1
  C  C132  1  0.16830400  0.24517200  0.89731800  1
  C  C133  1  0.50572000  0.61178700  0.01614600  1
  C  C134  1  0.49631600  0.55508300  0.02858000  1
  C  C135  1  0.46743600  0.53860900  0.01016200  1
  C  C136  1  0.44430800  0.58426900  0.98050300  1
  C  C137  1  0.45188500  0.64374000  0.96882900  1
  C  C138  1  0.48429200  0.65512700  0.98615500  1
  C  C139  1  0.41035700  0.57512400  0.96356600  1
  C  C140  1  0.38233700  0.62771000  0.93586100  1
  C  C141  1  0.38850100  0.68917500  0.92481200  1
  C  C142  1  0.42439000  0.69560100  0.94087900  1
  C  C143  1  0.43078400  0.75673000  0.92982900  1
  C  C144  1  0.46567500  0.76463600  0.94630600  1
  C  C145  1  0.49197800  0.71446400  0.97460500  1
  C  C146  1  0.35724200  0.74632600  0.89848400  1
  C  C147  1  0.36249000  0.80920600  0.88786600  1
  C  C148  1  0.40064000  0.81239700  0.90307600  1
  C  C149  1  0.13807100  0.57110000  0.12473400  1
  C  C150  1  0.15085500  0.48906000  0.12599500  1
  C  C151  1  0.20841800  0.40987800  0.12692700  1
  C  C152  1  0.25278700  0.41294600  0.12670800  1
  C  C153  1  0.23973800  0.49501400  0.12581400  1
  C  C154  1  0.18238100  0.57403800  0.12481300  1
  C  C155  1  0.31027800  0.33388000  0.12758500  1
  C  C156  1  0.35452300  0.33695300  0.12762100  1
  C  C157  1  0.34138400  0.41908700  0.12693600  1
  C  C158  1  0.28400800  0.49811400  0.12607000  1
  C  C159  1  0.27090800  0.58020200  0.12556900  1
  C  C160  1  0.21343600  0.65926200  0.12455600  1
  C  C161  1  0.16924200  0.65617100  0.12411100  1
  C  C162  1  0.38567000  0.42204600  0.12719700  1
  C  C163  1  0.37276000  0.50413900  0.12690500  1
  C  C164  1  0.31517900  0.58331400  0.12613300  1
  C  C165  1  0.82083600  0.57320400  0.13625500  1
  C  C166  1  0.87739100  0.49132600  0.13675800  1
  C  C167  1  0.88699800  0.41191200  0.13710800  1
  C  C168  1  0.84035100  0.41451500  0.13632200  1
  C  C169  1  0.78400900  0.49637200  0.13563100  1
  C  C170  1  0.77425300  0.57567400  0.13583700  1
  C  C171  1  0.85008000  0.33518000  0.13588100  1
  C  C172  1  0.80359100  0.33776200  0.13454300  1
  C  C173  1  0.74724700  0.41967100  0.13379600  1
  C  C174  1  0.73743400  0.49895800  0.13451000  1
  C  C175  1  0.68107700  0.58081300  0.13394800  1
  C  C176  1  0.67133700  0.66014700  0.13446100  1
  C  C177  1  0.71788500  0.65757700  0.13530800  1
  C  C178  1  0.70079100  0.42216900  0.13226700  1
  C  C179  1  0.64423100  0.50405200  0.13178200  1
  C  C180  1  0.63447800  0.58342900  0.13278000  1
  O  O1  1  0.03821300  0.56798200  0.50706800  1
  O  O2  1  0.03465000  0.43315900  0.45256500  1
  O  O3  1  0.96864300  0.58568600  0.45776500  1
  O  O4  1  0.10370300  0.41524800  0.50207000  1
  O  O5  1  0.03999800  0.39529100  0.54892600  1
  O  O6  1  0.90717700  0.56748500  0.50711000  1
  O  O7  1  0.97146200  0.41557900  0.49960800  1
  O  O8  1  0.97893500  0.54694000  0.55696100  1
  O  O9  1  0.53235700  0.58582700  0.49394500  1
  O  O10  1  0.53734600  0.41539800  0.45616600  1
  O  O11  1  0.47287200  0.56779500  0.44910300  1
  O  O12  1  0.59525500  0.43397700  0.50299500  1
  O  O13  1  0.51943000  0.45621100  0.55472700  1
  O  O14  1  0.39898300  0.58746200  0.50027100  1
  O  O15  1  0.46333900  0.43500700  0.50758200  1
  O  O16  1  0.45891200  0.60767800  0.54460400  1
  O  O17  1  0.23434300  0.11129900  0.77954400  1
  O  O18  1  0.18095000  0.07237700  0.85473600  1
  O  O19  1  0.23817800  0.10977000  0.84889100  1
  O  O20  1  0.17732300  0.07344500  0.78440900  1
  O  O21  1  0.27632000  0.88856100  0.78373700  1
  O  O22  1  0.33715700  0.92490400  0.84822800  1
  O  O23  1  0.28012900  0.88706200  0.85308400  1
  O  O24  1  0.33350500  0.92603400  0.77788600  1
  O  O25  1  0.97441500  0.58269700  0.17658700  1
  O  O26  1  0.11370300  0.41078300  0.13177800  1
  O  O27  1  0.04929600  0.56323600  0.12448700  1
  O  O28  1  0.03875700  0.43027400  0.18352900  1
  O  O29  1  0.98024700  0.41255600  0.13912300  1
  O  O30  1  0.99385400  0.54242300  0.07792000  1
  O  O31  1  0.05464800  0.39086600  0.08787800  1
  O  O32  1  0.91722900  0.56450100  0.13031900  1
  O  O33  1  0.54106600  0.58262200  0.13376800  1
  O  O34  1  0.53426000  0.45153000  0.07578200  1
  O  O35  1  0.47314700  0.60312800  0.08394700  1
  O  O36  1  0.60547200  0.43079400  0.12608600  1
  O  O37  1  0.54354200  0.41227200  0.17496300  1
  O  O38  1  0.40895700  0.58291700  0.13025200  1
  O  O39  1  0.47452900  0.43019600  0.12520700  1
  O  O40  1  0.47728300  0.56476200  0.18027200  1
