# Generated by REPEAT Assigner based on pymatgen
data_DB0-m29_o81_o44_f0_pts.sym.23
_audit_creation_date              2022-05-24
_audit_creation_method            REPEAT_Assigner
_cell_length_a                    16.100947
_cell_length_b                    9.406749
_cell_length_c                    17.562908
_cell_angle_alpha                 86.133170
_cell_angle_beta                  84.068653
_cell_angle_gamma                 108.644990
_cell_volume                      2492.649658
_symmetry_space_group_name_H-M    P1
_symmetry_Int_Tables_number       1
loop_
    _symmetry_equiv_pos_site_id
    _symmetry_equiv_pos_as_xyz
    1  x,y,z
loop_
    _atom_site_type_symbol
    _atom_site_label
    _atom_site_fract_x
    _atom_site_fract_y
    _atom_site_fract_z
    _atom_type_partial_charge
    C   C1   0.887938  0.970419  0.887457  -0.187816
    C   C2   0.266681  0.935473  0.965425  0.035390
    C   C3   0.186303  0.920109  0.939110  -0.223613
    C   C4   0.121868  0.960638  0.981470  0.213856
    C   C5   0.045160  0.955569  0.951333  -0.258771
    C   C6   0.981947  0.006188  0.990564  0.017202
    C   C7   0.809605  0.966317  0.861691  -0.138439
    C   C8   0.743192  0.989601  0.909326  0.068474
    C   C9   0.903658  0.005786  0.961448  0.185675
    C   C10  0.839331  0.042892  0.007368  -0.110276
    C   C11  0.756034  0.021276  0.984114  0.000299
    C   C12  0.278706  0.980446  0.038749  0.045988
    C   C13  0.213263  0.018633  0.080873  -0.146070
    C   C14  0.135860  0.011605  0.051857  -0.028220
    C   C15  0.073245  0.058483  0.092358  0.287221
    C   C16  0.997153  0.056566  0.061823  -0.024254
    C   C17  0.937655  0.109998  0.102257  -0.219565
    C   C18  0.859905  0.104568  0.075464  0.318022
    H   H1   0.935712  0.949463  0.846316  0.150915
    H   H2   0.175336  0.885434  0.882578  0.167596
    H   H3   0.037343  0.910203  0.897033  0.160990
    H   H4   0.798824  0.938260  0.804025  0.143090
    H   H5   0.224759  0.058690  0.136336  0.144328
    H   H6   0.951240  0.158027  0.155633  0.171126
    O   O1   0.609425  0.034452  0.023106  -0.533777
    C   C19  0.679097  0.003767  0.041872  0.563227
    O   O2   0.515080  0.702568  0.102677  -0.479803
    O   O3   0.676641  0.943266  0.111955  -0.488798
    O   O4   0.509494  0.843159  0.201629  -0.530534
    C   C20  0.511198  0.715398  0.176804  0.561068
    Fe  Fe1  0.518286  0.993227  0.113876  1.463528
    O   O5   0.400536  0.905058  0.076843  -0.589349
    O   O6   0.398116  0.140467  0.095241  -0.465322
    C   C21  0.362420  0.009168  0.070413  0.581912
    O   O7   0.549806  0.196174  0.153708  -0.604669
    O   O8   0.460261  0.063722  0.261585  -0.491349
    C   C22  0.508805  0.192642  0.222725  0.609772
    O   O9   0.466671  0.784150  0.797216  -0.557982
    O   O10  0.558082  0.909475  0.689029  -0.489984
    C   C23  0.506460  0.782979  0.728220  0.628558
    O   O11  0.627281  0.072635  0.865200  -0.603335
    O   O12  0.611940  0.823191  0.870179  -0.500870
    C   C24  0.657380  0.961115  0.881691  0.609143
    O   O13  0.326910  0.907829  0.838099  -0.553044
    O   O14  0.513849  0.137686  0.745053  -0.504378
    C   C25  0.495215  0.253939  0.770291  0.613231
    O   O15  0.420392  0.960281  0.927432  -0.486327
    C   C26  0.339666  0.926440  0.909873  0.582671
    O   O16  0.478620  0.257394  0.844748  -0.527337
    Fe  Fe2  0.506081  0.990125  0.833652  1.430170
    C   C27  0.495842  0.382310  0.717074  -0.118738
    C   C28  0.499763  0.375005  0.638212  0.275404
    C   C29  0.503099  0.499572  0.589893  0.098482
    C   C30  0.505500  0.632460  0.619314  -0.187686
    H   H7   0.510076  0.729972  0.580737  0.169788
    C   C31  0.499712  0.639723  0.697561  0.024508
    C   C32  0.493248  0.514169  0.746411  -0.152217
    C   C33  0.503970  0.492281  0.508495  -0.057109
    C   C34  0.504282  0.486956  0.440120  -0.194761
    C   C35  0.504456  0.343851  0.330797  -0.290391
    H   H8   0.501691  0.248485  0.370131  0.173397
    C   C36  0.510362  0.334047  0.252789  0.135507
    C   C37  0.514451  0.456551  0.202837  -0.219994
    C   C38  0.510883  0.588703  0.230775  0.094215
    C   C39  0.507453  0.599436  0.309267  -0.262628
    H   H9   0.506554  0.702645  0.332349  0.191674
    C   C40  0.505160  0.477184  0.358894  0.353901
    H   H10  0.491013  0.522634  0.807576  0.211038
    H   H11  0.517316  0.446338  0.141807  0.204075
    F   F1   0.087220  0.109386  0.161911  -0.150401
    F   F2   0.809147  0.174531  0.113538  -0.174533
    F   F3   0.499218  0.246291  0.607625  -0.133103
