# generated using pymatgen
data_ZnH24C26S7NO4
_symmetry_space_group_name_H-M   'P 1'
_cell_length_a   12.01381500
_cell_length_b   13.15184000
_cell_length_c   15.06610400
_cell_angle_alpha   90.00144300
_cell_angle_beta   85.85932500
_cell_angle_gamma   91.19817200
_symmetry_Int_Tables_number   1
_chemical_formula_structural   ZnH24C26S7NO4
_chemical_formula_sum   'Zn2 H48 C52 S14 N2 O8'
_cell_volume   2373.76586031
_cell_formula_units_Z   2
loop_
 _symmetry_equiv_pos_site_id
 _symmetry_equiv_pos_as_xyz
  1  'x, y, z'
loop_
 _atom_site_type_symbol
 _atom_site_label
 _atom_site_symmetry_multiplicity
 _atom_site_fract_x
 _atom_site_fract_y
 _atom_site_fract_z
 _atom_site_occupancy
  Zn  Zn1  1  0.37708100  0.49973200  0.50691100  1
  Zn  Zn2  1  0.62899300  0.47842400  0.50554700  1
  H  H1  1  0.56387600  0.73806100  0.91535700  1
  H  H2  1  0.52807300  0.23938500  0.08603500  1
  H  H3  1  0.63974500  0.15753900  0.48423000  1
  H  H4  1  0.36445900  0.82094800  0.52154500  1
  H  H5  1  0.22438100  0.59040500  0.62596100  1
  H  H6  1  0.78524100  0.36423200  0.40178200  1
  H  H7  1  0.36632400  0.18856700  0.20586300  1
  H  H8  1  0.33764300  0.32280100  0.20780200  1
  H  H9  1  0.33154500  0.25196400  0.31072000  1
  H  H10  1  0.35857000  0.78124500  0.72592400  1
  H  H11  1  0.37107000  0.76010200  0.84328700  1
  H  H12  1  0.32559100  0.65733000  0.77299600  1
  H  H13  1  0.00959900  0.33500100  0.20007200  1
  H  H14  1  0.93077100  0.42814200  0.26384400  1
  H  H15  1  0.86724600  0.30558800  0.24199000  1
  H  H16  1  0.03447700  0.82366100  0.67247100  1
  H  H17  1  0.07396900  0.75406900  0.57254700  1
  H  H18  1  0.17110300  0.76845200  0.65878600  1
  H  H19  1  0.39159700  0.80223900  0.25285900  1
  H  H20  1  0.36464700  0.69811800  0.33043600  1
  H  H21  1  0.36376300  0.67619800  0.21168200  1
  H  H22  1  0.22606100  0.24338200  0.81182800  1
  H  H23  1  0.23983100  0.37759500  0.78536700  1
  H  H24  1  0.28132400  0.32954100  0.89067700  1
  H  H25  1  0.45206500  0.91325900  0.11340100  1
  H  H26  1  0.40191100  0.79596900  0.06734200  1
  H  H27  1  0.47294000  0.89064800  0.99486300  1
  H  H28  1  0.71804200  0.14753400  0.85651100  1
  H  H29  1  0.71258100  0.17353900  0.97482100  1
  H  H30  1  0.70647700  0.27665500  0.89529200  1
  H  H31  1  0.19765700  0.27376300  0.64109500  1
  H  H32  1  0.27500400  0.15799900  0.65013000  1
  H  H33  1  0.12648800  0.15078700  0.63853800  1
  H  H34  1  0.86433600  0.75175200  0.59422900  1
  H  H35  1  0.72844500  0.80252700  0.62173800  1
  H  H36  1  0.84447800  0.88595400  0.58347200  1
  H  H37  1  0.82508100  0.00032100  0.28033600  1
  H  H38  1  0.72059900  0.09543100  0.30685600  1
  H  H39  1  0.68276200  0.96132800  0.31052900  1
  H  H40  1  0.14778000  0.98431700  0.36159600  1
  H  H41  1  0.22305000  0.86688800  0.37084600  1
  H  H42  1  0.29826700  0.98690700  0.35614600  1
  H  H43  1  0.18098200  0.58619900  0.23223200  1
  H  H44  1  0.17123800  0.63171600  0.34562600  1
  H  H45  1  0.05264100  0.56829100  0.30047800  1
  H  H46  1  0.75570800  0.43992700  0.78685300  1
  H  H47  1  0.89919400  0.43373300  0.74223500  1
  H  H48  1  0.78804900  0.37595700  0.68267200  1
  C  C1  1  0.52538000  0.68857100  0.50766100  1
  C  C2  1  0.48033400  0.28983800  0.50189800  1
  C  C3  1  0.48666700  0.48472900  0.68055600  1
  C  C4  1  0.52010000  0.49357600  0.33203900  1
  C  C5  1  0.52317100  0.40311900  0.19015500  1
  C  C6  1  0.51015200  0.57723900  0.81917500  1
  C  C7  1  0.52714800  0.49393200  0.23447400  1
  C  C8  1  0.48432900  0.48761700  0.77799800  1
  C  C9  1  0.53908400  0.58486600  0.18882600  1
  C  C10  1  0.47511100  0.39817600  0.82543900  1
  C  C11  1  0.54067300  0.58573400  0.09483600  1
  C  C12  1  0.49913300  0.39682600  0.91536700  1
  C  C13  1  0.52544100  0.49291400  0.05078800  1
  C  C14  1  0.51532000  0.48934200  0.95885700  1
  C  C15  1  0.52192000  0.40245100  0.09826500  1
  C  C16  1  0.52262300  0.57862300  0.91011900  1
  C  C17  1  0.55748600  0.67381700  0.04207800  1
  C  C18  1  0.51068100  0.30701300  0.96329100  1
  C  C19  1  0.54842000  0.66827000  0.95194100  1
  C  C20  1  0.52012000  0.31128200  0.05313600  1
  C  C21  1  0.46517700  0.17745500  0.49854700  1
  C  C22  1  0.53900800  0.80122600  0.50069700  1
  C  C23  1  0.64738900  0.95599100  0.47363400  1
  C  C24  1  0.35406500  0.02243900  0.50427300  1
  C  C25  1  0.64164500  0.85135900  0.48112100  1
  C  C26  1  0.36083400  0.12746600  0.50234300  1
  C  C27  1  0.44385500  0.85936100  0.50829000  1
  C  C28  1  0.55967500  0.11905500  0.48943100  1
  C  C29  1  0.44988200  0.96483700  0.50111300  1
  C  C30  1  0.55252300  0.01354900  0.48830300  1
  C  C31  1  0.95321700  0.40127100  0.42521000  1
  C  C32  1  0.05592400  0.56492100  0.60108400  1
  C  C33  1  0.83976800  0.40904200  0.44106000  1
  C  C34  1  0.16851700  0.55590700  0.58130500  1
  C  C35  1  0.86194300  0.51190600  0.56520200  1
  C  C36  1  0.14071900  0.47001100  0.44981500  1
  C  C37  1  0.97974700  0.51399900  0.54800400  1
  C  C38  1  0.02517800  0.46185200  0.47339300  1
  C  C39  1  0.37529000  0.26019300  0.24377600  1
  C  C40  1  0.38129200  0.72529400  0.77624200  1
  C  C41  1  0.94606800  0.34573800  0.25624100  1
  C  C42  1  0.08213300  0.75790600  0.64533100  1
  C  C43  1  0.40350900  0.72001900  0.26410700  1
  C  C44  1  0.27798700  0.31321400  0.81876400  1
  C  C45  1  0.46963200  0.85469100  0.06161200  1
  C  C46  1  0.68141600  0.19656900  0.91044000  1
  C  C47  1  0.20482300  0.19370600  0.61883400  1
  C  C48  1  0.80508600  0.80974600  0.57641200  1
  C  C49  1  0.74903000  0.01837600  0.32307300  1
  C  C50  1  0.22199300  0.94901200  0.38746300  1
  C  C51  1  0.14482400  0.57042800  0.30073400  1
  C  C52  1  0.81155100  0.44084800  0.72494300  1
  S  S1  1  0.52225500  0.28837400  0.25503500  1
  S  S2  1  0.52555100  0.68981800  0.75172000  1
  S  S3  1  0.99743000  0.29469700  0.35741800  1
  S  S4  1  0.02541200  0.64191600  0.69825100  1
  S  S5  1  0.55160800  0.69437200  0.25907500  1
  S  S6  1  0.41753700  0.29246700  0.76783900  1
  S  S7  1  0.60257900  0.79696700  0.07868600  1
  S  S8  1  0.53037200  0.18290000  0.91581800  1
  S  S9  1  0.23034600  0.19121700  0.49879700  1
  S  S10  1  0.77137200  0.78774400  0.46247300  1
  S  S11  1  0.78039300  0.01356200  0.43915500  1
  S  S12  1  0.21727600  0.96451300  0.50750100  1
  S  S13  1  0.19447300  0.44904500  0.33761800  1
  S  S14  1  0.79505100  0.55971500  0.66620100  1
  N  N1  1  0.21078400  0.51081000  0.50722600  1
  N  N2  1  0.79518700  0.46711500  0.50671800  1
  O  O1  1  0.42364800  0.64874400  0.50897100  1
  O  O2  1  0.58232700  0.32939800  0.50209100  1
  O  O3  1  0.61407200  0.63165800  0.50782900  1
  O  O4  1  0.39199300  0.34669700  0.50420600  1
  O  O5  1  0.39471600  0.49472900  0.63975600  1
  O  O6  1  0.61241200  0.48346400  0.37271000  1
  O  O7  1  0.58419300  0.47623900  0.63764400  1
  O  O8  1  0.42091500  0.50080700  0.37443800  1
