# generated using pymatgen
data_FeH12C25O8
_symmetry_space_group_name_H-M   'P 1'
_cell_length_a   14.47544700
_cell_length_b   11.70919800
_cell_length_c   15.72329300
_cell_angle_alpha   90.63285100
_cell_angle_beta   91.79770500
_cell_angle_gamma   101.12608000
_symmetry_Int_Tables_number   1
_chemical_formula_structural   FeH12C25O8
_chemical_formula_sum   'Fe2 H24 C50 O16'
_cell_volume   2613.25951998
_cell_formula_units_Z   2
loop_
 _symmetry_equiv_pos_site_id
 _symmetry_equiv_pos_as_xyz
  1  'x, y, z'
loop_
 _atom_site_type_symbol
 _atom_site_label
 _atom_site_symmetry_multiplicity
 _atom_site_fract_x
 _atom_site_fract_y
 _atom_site_fract_z
 _atom_site_occupancy
  Fe  Fe1  1  0.50271300  0.97723100  0.11770500  1
  Fe  Fe2  1  0.50707400  0.01361600  0.76184600  1
  H  H1  1  0.15071600  0.90245200  0.78210700  1
  H  H2  1  0.01541100  0.89557900  0.86463500  1
  H  H3  1  0.97709900  0.07878500  0.87079600  1
  H  H4  1  0.82474700  0.07235600  0.80350000  1
  H  H5  1  0.25568400  0.02302300  0.13870300  1
  H  H6  1  0.94403500  0.99015800  0.22907100  1
  H  H7  1  0.79644400  0.97179000  0.16385300  1
  H  H8  1  0.48112100  0.76222000  0.34887100  1
  H  H9  1  0.51018800  0.79054200  0.47617700  1
  H  H10  1  0.46604200  0.18912300  0.40312700  1
  H  H11  1  0.49490100  0.21881100  0.52985500  1
  H  H12  1  0.48644000  0.53266300  0.14235700  1
  H  H13  1  0.48894500  0.33874900  0.16201400  1
  H  H14  1  0.48458600  0.64067400  0.71764600  1
  H  H15  1  0.48268800  0.44527200  0.73667600  1
  H  H16  1  0.08555400  0.08121300  0.27395900  1
  H  H17  1  0.20072400  0.05577600  0.26388500  1
  H  H18  1  0.03461600  0.84912600  0.26638200  1
  H  H19  1  0.24660100  0.88103300  0.31040200  1
  H  H20  1  0.18658500  0.81183100  0.21499600  1
  H  H21  1  0.16018600  0.74817000  0.31705300  1
  H  H22  1  0.15494500  0.97767700  0.41523300  1
  H  H23  1  0.07465000  0.83903800  0.42083000  1
  H  H24  1  0.02978300  0.96842400  0.39569100  1
  C  C1  1  0.25052900  0.96308000  0.88418400  1
  C  C2  1  0.16119600  0.92978400  0.84811300  1
  C  C3  1  0.08289000  0.93027700  0.89515800  1
  C  C4  1  0.91593500  0.04129000  0.90574000  1
  C  C5  1  0.25950000  0.98482600  0.97154800  1
  C  C6  1  0.17967000  0.98958600  0.01828700  1
  C  C7  1  0.09106700  0.97277300  0.97838600  1
  C  C8  1  0.01213700  0.98718800  0.02489800  1
  C  C9  1  0.82898200  0.04253400  0.86805800  1
  C  C10  1  0.74800100  0.00006500  0.91008300  1
  C  C11  1  0.92417500  0.99702300  0.98681700  1
  C  C12  1  0.84362500  0.97671400  0.03444500  1
  C  C13  1  0.75455400  0.96952000  0.99488800  1
  C  C14  1  0.18820600  0.00945000  0.10531400  1
  C  C15  1  0.10991400  0.00369500  0.15357600  1
  C  C16  1  0.02124700  0.99172600  0.11335100  1
  C  C17  1  0.94159000  0.98696700  0.16057100  1
  C  C18  1  0.85414400  0.97372500  0.12201600  1
  C  C19  1  0.66802900  0.94099700  0.04373300  1
  C  C20  1  0.48211300  0.75345400  0.18186700  1
  C  C21  1  0.35210700  0.00264200  0.01523900  1
  C  C22  1  0.47832800  0.14099400  0.24298000  1
  C  C23  1  0.50663900  0.84100700  0.63713500  1
  C  C24  1  0.65671900  0.98610600  0.86357400  1
  C  C25  1  0.49334600  0.22588900  0.69620900  1
  C  C26  1  0.33149700  0.97170700  0.82785600  1
  C  C27  1  0.48424800  0.65758300  0.24139900  1
  C  C28  1  0.48598500  0.54832000  0.21016100  1
  C  C29  1  0.48620000  0.45752700  0.26480600  1
  C  C30  1  0.48700000  0.34975200  0.23022100  1
  C  C31  1  0.47981500  0.25505000  0.28150700  1
  C  C32  1  0.48545000  0.67581600  0.32841800  1
  C  C33  1  0.48778900  0.58476800  0.38533400  1
  C  C34  1  0.48542300  0.47369400  0.35226600  1
  C  C35  1  0.48213900  0.37845900  0.40532400  1
  C  C36  1  0.49943500  0.71162700  0.51163200  1
  C  C37  1  0.49001500  0.60124600  0.47396400  1
  C  C38  1  0.48574500  0.50579200  0.52696000  1
  C  C39  1  0.49581300  0.72514700  0.59832400  1
  C  C40  1  0.48545900  0.62981000  0.64936300  1
  C  C41  1  0.47471700  0.26817400  0.36790900  1
  C  C42  1  0.48443300  0.39505300  0.49381600  1
  C  C43  1  0.48872600  0.30444200  0.55046200  1
  C  C44  1  0.48408900  0.52151100  0.61445400  1
  C  C45  1  0.48327300  0.43002900  0.66883000  1
  C  C46  1  0.48809200  0.32167300  0.63734500  1
  C  C47  1  0.12582000  0.01773800  0.24849100  1
  C  C48  1  0.10133500  0.90125200  0.29336300  1
  C  C49  1  0.17882600  0.83161000  0.28318200  1
  C  C50  1  0.08957100  0.92313200  0.38736000  1
  O  O1  1  0.60109900  0.00109300  0.03161000  1
  O  O2  1  0.46790200  0.73073300  0.10006700  1
  O  O3  1  0.65870700  0.85885800  0.10057900  1
  O  O4  1  0.50037700  0.86224300  0.20949000  1
  O  O5  1  0.37955000  0.91639900  0.05558200  1
  O  O6  1  0.40390500  0.10776000  0.02100900  1
  O  O7  1  0.52528400  0.13535500  0.17370000  1
  O  O8  1  0.42776200  0.04690400  0.27460200  1
  O  O9  1  0.46995700  0.85250900  0.71123900  1
  O  O10  1  0.55784400  0.93105300  0.60109600  1
  O  O11  1  0.63754300  0.06720500  0.81243900  1
  O  O12  1  0.59396000  0.88989500  0.87127500  1
  O  O13  1  0.31533300  0.95395600  0.74574000  1
  O  O14  1  0.50612200  0.12427500  0.66763500  1
  O  O15  1  0.41903800  0.00480200  0.85645200  1
  O  O16  1  0.48584200  0.24185800  0.77824100  1
