# Generated by REPEAT Assigner based on pymatgen
data_DB0-m3_o9_o27_f0_nbo.sym.141
_audit_creation_date              2022-05-24
_audit_creation_method            REPEAT_Assigner
_cell_length_a                    21.853765
_cell_length_b                    21.863909
_cell_length_c                    24.718366
_cell_angle_alpha                 116.232509
_cell_angle_beta                  116.229134
_cell_angle_gamma                 90.008090
_cell_volume                      9218.644501
_symmetry_space_group_name_H-M    P1
_symmetry_Int_Tables_number       1
loop_
    _symmetry_equiv_pos_site_id
    _symmetry_equiv_pos_as_xyz
    1  x,y,z
loop_
    _atom_site_type_symbol
    _atom_site_label
    _atom_site_fract_x
    _atom_site_fract_y
    _atom_site_fract_z
    _atom_type_partial_charge
    C   C1    0.074097  0.570285  0.637623  0.572400
    C   C2    0.037183  0.252231  0.291566  -0.078034
    C   C3    0.586685  0.275101  0.326566  -0.100150
    C   C4    0.521496  0.200629  0.462351  -0.203226
    C   C5    0.503195  0.192411  0.505859  0.104535
    C   C6    0.487170  0.247789  0.549192  -0.049804
    C   C7    0.489513  0.310256  0.548118  -0.264077
    C   C8    0.506869  0.318200  0.503931  0.172798
    C   C9    0.523044  0.262788  0.460615  -0.146852
    C   C10   0.407170  0.252529  0.595411  -0.421156
    C   C11   0.392166  0.250979  0.643523  0.464675
    C   C12   0.443211  0.244713  0.697984  -0.214898
    C   C13   0.258970  0.441924  0.450644  -0.197471
    C   C14   0.507704  0.237479  0.702644  -0.187311
    C   C15   0.521465  0.236073  0.652883  -0.136389
    C   C16   0.471130  0.243594  0.599115  0.280913
    C   C17   0.476543  0.449625  0.186960  0.759505
    C   C18   0.445581  0.390071  0.114562  -0.542660
    C   C19   0.284587  0.206197  0.627237  0.839828
    C   C20   0.208361  0.203142  0.603564  -0.564647
    C   C21   0.313125  0.501752  0.498154  0.167121
    C   C22   0.302737  0.560225  0.544541  -0.112977
    C   C23   0.238349  0.557589  0.541835  -0.213009
    C   C24   0.184584  0.497600  0.494861  0.152574
    C   C25   0.195031  0.439135  0.448976  -0.177782
    C   C26   0.375986  0.657049  0.664181  -0.145231
    C   C27   0.424679  0.720777  0.711528  -0.153289
    C   C28   0.453453  0.754914  0.689710  -0.100614
    C   C29   0.118178  0.498194  0.495943  0.659913
    C   C30   0.433419  0.725339  0.620489  -0.107828
    C   C31   0.385162  0.661357  0.573223  -0.089289
    C   C32   0.356666  0.626625  0.594899  0.193151
    C   C33   0.110135  0.676443  0.749600  -0.208112
    C   C34   0.144848  0.711668  0.821010  0.105549
    C   C35   0.184896  0.679762  0.857107  -0.549692
    C   C36   0.189152  0.611874  0.820941  0.147722
    C   C37   0.152643  0.575878  0.749414  -0.216264
    C   C38   0.113312  0.608195  0.713469  0.224149
    C   C39   0.290142  0.787540  0.071733  0.962891
    C   C40   0.929081  0.432829  0.366605  0.582303
    C   C41   0.222173  0.717721  0.933097  0.989101
    C   C42   0.294590  0.866017  0.182878  0.147285
    C   C43   0.329078  0.901424  0.254333  -0.226892
    C   C44   0.397401  0.898903  0.291423  0.199513
    C   C45   0.430538  0.859747  0.256328  -0.232374
    C   C46   0.395302  0.822590  0.184842  0.145624
    C   C47   0.327301  0.825944  0.147724  -0.539935
    C   C48   0.894531  0.400422  0.650770  -0.135699
    C   C49   0.845166  0.413582  0.601005  -0.155291
    C   C50   0.858596  0.475800  0.601885  0.269716
    C   C51   0.884719  0.504552  0.507535  0.651422
    C   C52   0.920928  0.525625  0.653938  -0.109406
    C   C53   0.969799  0.512766  0.704213  -0.182624
    C   C54   0.956871  0.449997  0.702358  -0.088982
    C   C55   0.740093  0.491264  0.547155  -0.207391
    C   C56   0.687907  0.506413  0.500852  0.171810
    C   C57   0.701096  0.522577  0.458223  -0.041656
    C   C58   0.765976  0.522567  0.462041  -0.281528
    C   C59   0.817764  0.506127  0.507458  0.178207
    C   C60   0.804708  0.490395  0.550448  -0.171790
    C   C61   0.622207  0.502914  0.340980  -0.355557
    C   C62   0.097280  0.250983  0.343060  -0.131819
    C   C63   0.573176  0.522221  0.296506  0.405500
    C   C64   0.554519  0.584733  0.323282  -0.226352
    C   C65   0.582523  0.626007  0.393867  -0.136540
    C   C66   0.629225  0.605109  0.438018  -0.149591
    C   C67   0.649195  0.543505  0.411579  0.206807
    C   C68   0.893301  0.427549  0.254986  -0.215623
    C   C69   0.858078  0.391719  0.183633  0.110483
    C   C70   0.816797  0.324317  0.147569  -0.548838
    C   C71   0.811558  0.292836  0.183558  0.142628
    C   C72   0.848412  0.328001  0.254987  -0.212031
    C   C73   0.148478  0.312201  0.394712  -0.199709
    C   C74   0.889194  0.395591  0.290929  0.209691
    C   C75   0.711547  0.217575  0.933269  0.998667
    C   C76   0.779405  0.286486  0.071731  0.968931
    C   C77   0.707017  0.185757  0.822429  0.113508
    C   C78   0.672666  0.149671  0.751082  -0.250161
    C   C79   0.604911  0.109038  0.714184  0.473935
    C   C80   0.572026  0.103849  0.749034  -0.193755
    C   C81   0.607083  0.138366  0.820428  0.097383
    C   C82   0.674570  0.179885  0.857440  -0.570465
    C   C83   0.495259  0.619551  0.493962  0.359928
    C   C84   0.138959  0.375101  0.395937  0.325932
    C   C85   0.380615  0.500915  0.499002  0.603023
    C   C86   0.505252  0.384548  0.502683  0.626655
    C   C87   0.619826  0.504662  0.498438  0.629463
    C   C88   0.501326  0.124886  0.504670  0.691560
    C   C89   0.434194  0.937099  0.367354  0.575776
    C   C90   0.502035  0.884643  0.502909  0.689964
    C   C91   0.568345  0.071460  0.638576  0.429931
    C   C92   0.309855  0.540361  0.280028  0.007674
    C   C93   0.371341  0.591013  0.332091  -0.356993
    C   C94   0.374063  0.642656  0.391797  0.409497
    C   C95   0.078780  0.376226  0.344199  -0.113294
    C   C96   0.313889  0.645926  0.397284  -0.198130
    C   C97   0.252435  0.595169  0.345336  -0.090963
    C   C98   0.250534  0.542088  0.286903  -0.182544
    C   C99   0.440967  0.763375  0.452501  -0.142664
    C   C100  0.500633  0.817230  0.501869  0.091246
    C   C101  0.558213  0.805569  0.547419  -0.156167
    C   C102  0.554779  0.740777  0.543589  -0.205564
    C   C103  0.495717  0.686342  0.493417  0.533992
    C   C104  0.438663  0.697506  0.446411  -0.347711
    C   C105  0.685419  0.852941  0.604781  -0.181977
    C   C106  0.028282  0.314714  0.291810  -0.201056
    C   C107  0.746449  0.903380  0.658627  -0.153363
    C   C108  0.744391  0.961313  0.711390  -0.060953
    C   C109  0.681292  0.968812  0.710217  -0.206190
    C   C110  0.619974  0.919198  0.655628  -0.098882
    C   C111  0.621946  0.861214  0.602660  0.312560
    C   C112  0.526915  0.226333  0.300079  -0.130396
    C   C113  0.506215  0.222633  0.343970  -0.158179
    C   C114  0.544441  0.268620  0.414369  0.234277
    C   C115  0.604696  0.317074  0.440886  -0.104215
    C   C116  0.625851  0.320025  0.396961  -0.167396
    H   H1    0.997379  0.204116  0.250589  0.095889
    H   H2    0.491379  0.805036  0.726792  0.096469
    H   H3    0.455358  0.752487  0.603265  0.069960
    H   H4    0.369365  0.638610  0.519076  0.094140
    H   H5    0.079058  0.702375  0.722421  0.135493
    H   H6    0.141062  0.764838  0.848084  0.048788
    H   H7    0.219681  0.585660  0.848062  0.036328
    H   H8    0.155840  0.522534  0.721977  0.113969
    H   H9    0.241280  0.869071  0.155024  0.034080
    H   H10   0.302305  0.932040  0.280731  0.134328
    H   H11   0.483796  0.856654  0.284340  0.138013
    H   H12   0.104601  0.201882  0.342555  0.110864
    H   H13   0.422139  0.792023  0.158501  0.034573
    H   H14   0.995330  0.439942  0.741736  0.099721
    H   H15   0.884121  0.351405  0.649612  0.113146
    H   H16   0.796146  0.374705  0.560895  0.088769
    H   H17   0.931056  0.575359  0.656246  0.077775
    H   H18   0.018014  0.552169  0.745506  0.136842
    H   H19   0.730132  0.479327  0.580972  0.135551
    H   H20   0.776119  0.535325  0.428750  0.141251
    H   H21   0.638307  0.454927  0.320519  0.147386
    H   H22   0.518410  0.601892  0.289087  0.147562
    H   H23   0.195916  0.310881  0.434570  0.109810
    H   H24   0.568098  0.675014  0.414514  0.099263
    H   H25   0.651268  0.637801  0.493392  0.098267
    H   H26   0.925515  0.480131  0.282179  0.146996
    H   H27   0.862627  0.417579  0.156632  0.042450
    H   H28   0.780027  0.239947  0.156408  0.042721
    H   H29   0.844446  0.302242  0.282284  0.113750
    H   H30   0.759956  0.217481  0.850269  0.050893
    H   H31   0.698974  0.154568  0.724548  0.117179
    H   H32   0.519158  0.071822  0.720845  0.110596
    H   H33   0.580516  0.133412  0.846728  0.046150
    H   H34   0.071836  0.424964  0.343704  0.083771
    H   H35   0.202309  0.502351  0.246107  0.107512
    H   H36   0.308135  0.499391  0.233756  0.085653
    H   H37   0.417604  0.589923  0.326341  0.202158
    H   H38   0.315013  0.687972  0.442666  0.086651
    H   H39   0.205661  0.597167  0.350311  0.101484
    H   H40   0.396260  0.771938  0.416205  0.121106
    H   H41   0.599362  0.732693  0.580429  0.085191
    H   H42   0.687324  0.807036  0.563965  0.106529
    H   H43   0.796031  0.897085  0.659876  0.115824
    H   H44   0.792347  0.000456  0.754090  0.096117
    H   H45   0.981969  0.315283  0.250475  0.148056
    H   H46   0.680088  0.013304  0.752526  0.113674
    H   H47   0.570712  0.924956  0.655327  0.058570
    H   H48   0.603213  0.277704  0.292218  0.091537
    H   H49   0.496473  0.190693  0.244904  0.113399
    H   H50   0.459450  0.184072  0.322957  0.105332
    H   H51   0.635983  0.351992  0.496137  0.098713
    H   H52   0.673408  0.357205  0.417597  0.131681
    H   H53   0.534560  0.157706  0.428913  0.128510
    H   H54   0.477103  0.353318  0.582113  0.141140
    H   H55   0.368266  0.259560  0.553873  0.161659
    H   H56   0.266701  0.396389  0.414382  0.117508
    H   H57   0.433301  0.246708  0.737815  0.160023
    H   H58   0.547859  0.233938  0.745971  0.119832
    H   H59   0.572459  0.231192  0.657265  0.068382
    H   H60   0.576822  0.449220  0.208680  0.314058
    H   H61   0.486167  0.379293  0.098478  0.121107
    H   H62   0.403231  0.403735  0.079066  0.162358
    H   H63   0.423075  0.342395  0.111441  0.153981
    H   H64   0.301507  0.288061  0.614252  0.337030
    H   H65   0.195552  0.251307  0.601278  0.117316
    H   H66   0.195364  0.198473  0.640377  0.165536
    H   H67   0.229920  0.603299  0.577245  0.127987
    H   H68   0.176635  0.156577  0.551371  0.152072
    H   H69   0.353564  0.630701  0.681722  0.096205
    H   H70   0.440071  0.744131  0.765782  0.118014
    N   N1    0.277184  0.697934  0.968783  -0.372768
    N   N2    0.326913  0.261433  0.639713  -0.712391
    N   N3    0.311028  0.732698  0.037324  -0.354436
    N   N4    0.234879  0.807021  0.036024  -0.353074
    N   N5    0.201543  0.772765  0.967528  -0.371577
    N   N6    0.724431  0.231050  0.036181  -0.370199
    N   N7    0.690633  0.197187  0.967678  -0.361815
    N   N8    0.766730  0.272769  0.968841  -0.376780
    N   N9    0.800060  0.307056  0.037299  -0.348694
    N   N10   0.546157  0.480344  0.224332  -0.629732
    O   O1    0.055829  0.501321  0.605017  -0.617024
    O   O2    0.525259  0.621887  0.554339  -0.626768
    O   O3    0.380156  0.470753  0.439513  -0.657184
    O   O4    0.438590  0.530821  0.559058  -0.642063
    O   O5    0.476629  0.382279  0.442493  -0.649202
    O   O6    0.531015  0.443441  0.561914  -0.675431
    O   O7    0.561851  0.474674  0.438057  -0.606848
    O   O8    0.620217  0.532032  0.557665  -0.711759
    O   O9    0.554069  0.096072  0.505051  -0.701386
    O   O10   0.447099  0.095653  0.502326  -0.671733
    O   O11   0.503140  0.951235  0.400902  -0.659670
    O   O12   0.057766  0.607095  0.605526  -0.667305
    O   O13   0.396618  0.955294  0.398644  -0.638387
    O   O14   0.556620  0.914287  0.506092  -0.683815
    O   O15   0.447536  0.911598  0.498858  -0.700731
    O   O16   0.606188  0.055436  0.607505  -0.619271
    O   O17   0.499355  0.055520  0.605220  -0.604605
    O   O18   0.438584  0.469309  0.212298  -0.554738
    O   O19   0.307845  0.157809  0.633979  -0.593146
    O   O20   0.088484  0.445315  0.495093  -0.709926
    O   O21   0.092776  0.553541  0.500589  -0.668487
    O   O22   0.943469  0.395943  0.398648  -0.606202
    O   O23   0.949308  0.501607  0.399065  -0.690339
    O   O24   0.911459  0.450320  0.505518  -0.684963
    O   O25   0.913446  0.556417  0.506505  -0.677246
    O   O26   0.468112  0.560599  0.434961  -0.537209
    Zn  Zn1   0.000879  0.432166  0.501970  1.277421
    Zn  Zn2   0.002357  0.570795  0.502100  1.296238
    Zn  Zn3   0.461609  0.461511  0.420093  1.250130
    Zn  Zn4   0.538754  0.542654  0.576901  1.293585
    Zn  Zn5   0.571220  0.004692  0.504253  1.287313
    Zn  Zn6   0.431425  0.004045  0.501851  1.287256
