# Generated by REPEAT Assigner based on pymatgen
data_DB0-m3_o1_o29_f0_nbo.sym.93
_audit_creation_date              2022-05-24
_audit_creation_method            REPEAT_Assigner
_cell_length_a                    21.808902
_cell_length_b                    21.808940
_cell_length_c                    55.301910
_cell_angle_alpha                 90.000000
_cell_angle_beta                  90.000000
_cell_angle_gamma                 90.000000
_cell_volume                      26303.193015
_symmetry_space_group_name_H-M    P1
_symmetry_Int_Tables_number       1
loop_
    _symmetry_equiv_pos_site_id
    _symmetry_equiv_pos_as_xyz
    1  x,y,z
loop_
    _atom_site_type_symbol
    _atom_site_label
    _atom_site_fract_x
    _atom_site_fract_y
    _atom_site_fract_z
    _atom_type_partial_charge
    C   C1    0.000233  0.498878  0.124019  0.067264
    C   C2    0.619727  0.500432  0.000494  0.670757
    C   C3    0.499213  0.000217  0.775179  -0.156011
    C   C4    0.499313  0.999943  0.724818  -0.150067
    C   C5    0.000234  0.500601  0.724819  -0.143099
    C   C6    0.500843  0.000056  0.275178  -0.152603
    C   C7    0.999767  0.499547  0.275180  -0.161357
    C   C8    0.914891  0.567688  0.224362  -0.408855
    C   C9    0.432645  0.914709  0.224492  -0.407212
    C   C10   0.085084  0.431101  0.224538  -0.401486
    C   C11   0.569242  0.084893  0.224406  -0.406410
    C   C12   0.916151  0.430977  0.775531  -0.413033
    C   C13   0.499488  0.619701  0.999575  0.671525
    C   C14   0.429450  0.084113  0.775455  -0.412019
    C   C15   0.083910  0.570542  0.775563  -0.414329
    C   C16   0.569004  0.916346  0.775637  -0.410933
    C   C17   0.414235  0.068257  0.724366  -0.411492
    C   C18   0.931939  0.415506  0.724448  -0.404760
    C   C19   0.584416  0.931655  0.724533  -0.403123
    C   C20   0.068523  0.585701  0.724453  -0.404705
    C   C21   0.416959  0.930280  0.275575  -0.409236
    C   C22   0.929998  0.583439  0.275459  -0.410954
    C   C23   0.584729  0.069833  0.275515  -0.410487
    C   C24   0.380051  0.499392  0.999560  0.675615
    C   C25   0.069566  0.415684  0.275634  -0.419944
    C   C26   0.914691  0.567872  0.199546  0.593865
    C   C27   0.432415  0.914297  0.199676  0.590475
    C   C28   0.085444  0.430700  0.199723  0.595813
    C   C29   0.569597  0.085044  0.199590  0.595901
    C   C30   0.915793  0.430736  0.800347  0.605182
    C   C31   0.429041  0.084478  0.800271  0.598652
    C   C32   0.084064  0.570958  0.800378  0.596777
    C   C33   0.569254  0.916200  0.800453  0.598375
    C   C34   0.413981  0.068386  0.699550  0.597446
    C   C35   0.000394  0.880143  0.499582  0.679250
    C   C36   0.931758  0.415141  0.699632  0.595424
    C   C37   0.584722  0.931198  0.699718  0.595396
    C   C38   0.068926  0.585899  0.699638  0.594922
    C   C39   0.416647  0.930088  0.300391  0.592589
    C   C40   0.929534  0.583751  0.300274  0.596952
    C   C41   0.584930  0.070298  0.300331  0.600311
    C   C42   0.069761  0.415485  0.300450  0.606658
    C   C43   0.957233  0.533198  0.186883  -0.256900
    C   C44   0.467063  0.956735  0.186947  -0.250734
    C   C45   0.042958  0.465234  0.186970  -0.262068
    C   C46   0.119843  0.000447  0.499601  0.665045
    C   C47   0.535031  0.042457  0.186904  -0.259470
    C   C48   0.957644  0.466120  0.813064  -0.263840
    C   C49   0.464316  0.042609  0.813025  -0.259330
    C   C50   0.042097  0.535674  0.813079  -0.254074
    C   C51   0.533867  0.958153  0.813116  -0.260029
    C   C52   0.456492  0.033678  0.686884  -0.259745
    C   C53   0.966421  0.457611  0.686926  -0.258810
    C   C54   0.542211  0.965707  0.686968  -0.260815
    C   C55   0.034382  0.543339  0.686929  -0.261836
    C   C56   0.458531  0.965488  0.313085  -0.255288
    C   C57   0.999498  0.119821  0.500468  0.666119
    C   C58   0.964784  0.541857  0.313027  -0.256693
    C   C59   0.542990  0.035036  0.313054  -0.261611
    C   C60   0.034342  0.457407  0.313115  -0.265534
    C   C61   0.000058  0.499274  0.199618  0.115883
    C   C62   0.501017  0.999661  0.199617  0.112505
    C   C63   0.999922  0.500854  0.800380  0.118206
    C   C64   0.499135  0.000328  0.800379  0.116649
    C   C65   0.499340  0.999777  0.699618  0.116587
    C   C66   0.000344  0.500517  0.699619  0.113951
    C   C67   0.500789  0.000191  0.300378  0.113600
    C   C68   0.880165  0.999406  0.500454  0.680573
    C   C69   0.999633  0.499606  0.300379  0.118674
    C   C70   0.956765  0.530655  0.161757  0.409467
    C   C71   0.469547  0.956069  0.161820  0.406203
    C   C72   0.043551  0.467520  0.161840  0.412797
    C   C73   0.532684  0.042853  0.161775  0.410070
    C   C74   0.957010  0.468562  0.838191  0.409310
    C   C75   0.466563  0.043224  0.838156  0.412446
    C   C76   0.042521  0.533416  0.838209  0.405502
    C   C77   0.531414  0.957712  0.838243  0.411697
    C   C78   0.455973  0.031080  0.661759  0.411496
    C   C79   0.281525  0.460324  0.984420  -0.156706
    C   C80   0.968956  0.456992  0.661799  0.413048
    C   C81   0.542753  0.967938  0.661837  0.412094
    C   C82   0.032086  0.543781  0.661799  0.413712
    C   C83   0.457943  0.967982  0.338212  0.414448
    C   C84   0.966976  0.542423  0.338159  0.408757
    C   C85   0.543458  0.032830  0.338185  0.411683
    C   C86   0.031835  0.456916  0.338242  0.411420
    C   C87   0.005527  0.553238  0.111402  -0.127274
    C   C88   0.446834  0.004540  0.111420  -0.122546
    C   C89   0.994951  0.444381  0.111492  -0.124806
    C   C90   0.539506  0.281760  0.985103  -0.151775
    C   C91   0.555692  0.993969  0.111472  -0.121433
    C   C92   0.006424  0.446930  0.888573  -0.127493
    C   C93   0.444474  0.993726  0.888494  -0.124639
    C   C94   0.992769  0.555443  0.888502  -0.127420
    C   C95   0.552986  0.007386  0.888581  -0.128642
    C   C96   0.504683  0.053544  0.611381  -0.125014
    C   C97   0.946396  0.505484  0.611390  -0.125737
    C   C98   0.494101  0.944688  0.611511  -0.125121
    C   C99   0.055255  0.494923  0.611505  -0.123978
    C   C100  0.507374  0.946507  0.388603  -0.127445
    C   C101  0.718025  0.539447  0.985075  -0.151240
    C   C102  0.944780  0.492875  0.388475  -0.127403
    C   C103  0.493727  0.055021  0.388468  -0.125361
    C   C104  0.053291  0.506545  0.388600  -0.127444
    C   C105  0.005248  0.553196  0.086481  -0.064501
    C   C106  0.446825  0.004284  0.086498  -0.065096
    C   C107  0.995213  0.444160  0.086570  -0.064233
    C   C108  0.555863  0.994255  0.086551  -0.064535
    C   C109  0.006198  0.446941  0.913495  -0.065310
    C   C110  0.444257  0.993894  0.913416  -0.065528
    C   C111  0.992973  0.555642  0.913423  -0.066894
    C   C112  0.501225  0.999273  0.124018  0.061298
    C   C113  0.460562  0.718257  0.984382  -0.154497
    C   C114  0.552958  0.007123  0.913502  -0.064078
    C   C115  0.504475  0.053436  0.586460  -0.063756
    C   C116  0.946472  0.505165  0.586469  -0.065868
    C   C117  0.494434  0.944400  0.586590  -0.062030
    C   C118  0.055510  0.495147  0.586585  -0.064884
    C   C119  0.507081  0.946604  0.413525  -0.064801
    C   C120  0.944497  0.493115  0.413396  -0.065885
    C   C121  0.493865  0.055306  0.413389  -0.066972
    C   C122  0.053196  0.506355  0.413521  -0.065894
    C   C123  0.000217  0.498613  0.073919  0.041005
    C   C124  0.281524  0.537839  0.014922  -0.156559
    C   C125  0.501387  0.999302  0.073918  0.038854
    C   C126  0.999594  0.501346  0.926067  0.042003
    C   C127  0.498548  0.000465  0.926067  0.039169
    C   C128  0.499500  0.998816  0.573918  0.036594
    C   C129  0.001077  0.500141  0.573920  0.041259
    C   C130  0.500433  0.001052  0.426065  0.040972
    C   C131  0.998751  0.499751  0.426067  0.042126
    C   C132  0.895310  0.661349  0.186399  0.359629
    C   C133  0.852971  0.706219  0.199034  0.133814
    C   C134  0.878456  0.770623  0.196934  -0.274329
    C   C135  0.537775  0.718270  0.015001  -0.152706
    C   C136  0.338912  0.894798  0.186585  0.356740
    C   C137  0.294073  0.852557  0.199288  0.132514
    C   C138  0.229661  0.878017  0.197176  -0.272675
    C   C139  0.104988  0.337114  0.186733  0.357182
    C   C140  0.147301  0.292406  0.199471  0.136942
    C   C141  0.121894  0.227957  0.197443  -0.275239
    C   C142  0.663158  0.104461  0.186543  0.360399
    C   C143  0.707903  0.146865  0.199214  0.138447
    C   C144  0.772342  0.121425  0.197196  -0.274283
    C   C145  0.897786  0.336909  0.813417  0.370179
    C   C146  0.718555  0.462241  0.015697  -0.159405
    C   C147  0.856174  0.291450  0.800733  0.131056
    C   C148  0.882604  0.227426  0.802821  -0.280962
    C   C149  0.335131  0.102552  0.813234  0.362571
    C   C150  0.289799  0.144202  0.800499  0.135373
    C   C151  0.225738  0.117823  0.802513  -0.282128
    C   C152  0.101997  0.664872  0.813367  0.366444
    C   C153  0.143729  0.710223  0.800684  0.136235
    C   C154  0.117307  0.774272  0.802667  -0.281399
    C   C155  0.663085  0.898326  0.813547  0.365374
    C   C156  0.708555  0.856625  0.800915  0.135200
    C   C157  0.461998  0.281237  0.015607  -0.160259
    C   C158  0.772572  0.883090  0.802970  -0.281014
    C   C159  0.394582  0.161834  0.686377  0.359993
    C   C160  0.352275  0.206737  0.699011  0.136402
    C   C161  0.377763  0.271134  0.696880  -0.279685
    C   C162  0.838287  0.395631  0.686507  0.361444
    C   C163  0.793440  0.353344  0.699182  0.129153
    C   C164  0.729022  0.378781  0.697058  -0.272386
    C   C165  0.604231  0.837582  0.686754  0.360481
    C   C166  0.646567  0.792899  0.699493  0.134770
    C   C167  0.621151  0.728447  0.697495  -0.276407
    C   C168  0.781884  0.959380  0.485437  -0.141314
    C   C169  0.162516  0.605318  0.686625  0.360215
    C   C170  0.207247  0.647683  0.699324  0.136435
    C   C171  0.271684  0.622231  0.697318  -0.275463
    C   C172  0.398631  0.836293  0.313495  0.360360
    C   C173  0.356974  0.790826  0.300839  0.135876
    C   C174  0.383383  0.726795  0.302938  -0.282585
    C   C175  0.835594  0.601791  0.313212  0.362684
    C   C176  0.790286  0.643463  0.300475  0.136149
    C   C177  0.726223  0.617075  0.302459  -0.279758
    C   C178  0.602865  0.164241  0.313286  0.363777
    C   C179  0.040374  0.781608  0.484824  -0.145771
    C   C180  0.644558  0.209576  0.300574  0.133940
    C   C181  0.618124  0.273623  0.302546  -0.281038
    C   C182  0.163564  0.397592  0.313571  0.368547
    C   C183  0.209066  0.355922  0.300941  0.130986
    C   C184  0.273076  0.382390  0.303025  -0.282379
    C   C185  0.218391  0.038466  0.484062  -0.162722
    C   C186  0.961473  0.218100  0.484666  -0.153586
    C   C187  0.781363  0.038710  0.515203  -0.153543
    C   C188  0.999616  0.501136  0.875970  0.070931
    C   C189  0.036782  0.218636  0.516015  -0.163363
    C   C190  0.218389  0.963155  0.515410  -0.164624
    C   C191  0.961042  0.781596  0.514590  -0.146204
    C   C192  0.218347  0.458899  0.984999  -0.183208
    C   C193  0.540951  0.218576  0.985520  -0.188110
    C   C194  0.781210  0.540873  0.985478  -0.186601
    C   C195  0.459143  0.781433  0.984949  -0.184509
    C   C196  0.218336  0.538880  0.014496  -0.181779
    C   C197  0.538771  0.781462  0.014592  -0.182354
    C   C198  0.781737  0.461252  0.015123  -0.176614
    C   C199  0.498795  0.000560  0.875970  0.071727
    C   C200  0.460978  0.218056  0.015019  -0.177137
    C   C201  0.718697  0.957991  0.485856  -0.196192
    C   C202  0.041767  0.718432  0.485412  -0.192081
    C   C203  0.281566  0.039929  0.484624  -0.178295
    C   C204  0.959999  0.281284  0.485064  -0.186200
    C   C205  0.718184  0.039700  0.514606  -0.183986
    C   C206  0.037814  0.281818  0.515446  -0.175012
    C   C207  0.281580  0.962112  0.515007  -0.172017
    C   C208  0.960055  0.718405  0.514161  -0.188635
    C   C209  0.186677  0.498794  0.999786  0.111988
    C   C210  0.499373  0.999215  0.624018  0.066051
    C   C211  0.501065  0.186651  0.000225  0.111680
    C   C212  0.813155  0.501163  0.000256  0.108263
    C   C213  0.498850  0.813129  0.999810  0.110857
    C   C214  0.686768  0.998751  0.500186  0.121359
    C   C215  0.001013  0.686746  0.499826  0.120194
    C   C216  0.313246  0.001123  0.499854  0.101880
    C   C217  0.998800  0.313223  0.500211  0.106178
    C   C218  0.313184  0.499180  0.999632  0.104056
    C   C219  0.500643  0.313158  0.000397  0.103949
    C   C220  0.686612  0.500728  0.000426  0.100946
    C   C221  0.000744  0.500238  0.624020  0.067360
    C   C222  0.499277  0.686587  0.999651  0.099796
    C   C223  0.813290  0.999148  0.500364  0.089529
    C   C224  0.000605  0.813269  0.499666  0.088265
    C   C225  0.186721  0.000700  0.499694  0.114898
    C   C226  0.999242  0.186699  0.500382  0.110289
    C   C227  0.000158  0.498488  0.047417  0.640891
    C   C228  0.501485  0.999470  0.047416  0.643257
    C   C229  0.999663  0.501465  0.952571  0.641570
    C   C230  0.498441  0.000300  0.952571  0.642726
    C   C231  0.499656  0.998601  0.547417  0.643419
    C   C232  0.500588  0.000668  0.375969  0.069980
    C   C233  0.001264  0.500118  0.547419  0.640752
    C   C234  0.500307  0.001257  0.452569  0.642042
    C   C235  0.998550  0.499801  0.452571  0.641256
    C   C236  0.119803  0.498624  0.999863  0.698827
    C   C237  0.501260  0.119778  0.000131  0.698610
    C   C238  0.880047  0.501333  0.000149  0.698421
    C   C239  0.498660  0.880020  0.999881  0.695769
    C   C240  0.619885  0.998576  0.500096  0.694573
    C   C241  0.001203  0.619862  0.499900  0.695624
    C   C242  0.380128  0.001287  0.499914  0.698318
    C   C243  0.999130  0.499700  0.375970  0.070389
    C   C244  0.998604  0.380105  0.500115  0.698985
    C   C245  0.959071  0.535974  0.237351  0.142021
    C   C246  0.464380  0.959000  0.237414  0.144338
    C   C247  0.040797  0.462895  0.237440  0.132455
    C   C248  0.537466  0.040721  0.237374  0.144481
    C   C249  0.959868  0.463465  0.762596  0.152873
    C   C250  0.461995  0.040371  0.762556  0.149881
    C   C251  0.040287  0.537980  0.762609  0.155394
    C   C252  0.536504  0.959946  0.762647  0.152181
    C   C253  0.458438  0.036566  0.737351  0.144220
    C   C254  0.500386  0.380025  0.000474  0.674724
    C   C255  0.963640  0.459779  0.737393  0.136340
    C   C256  0.540158  0.963479  0.737438  0.137293
    C   C257  0.036720  0.541505  0.737399  0.136796
    C   C258  0.460657  0.962736  0.262617  0.147260
    C   C259  0.962573  0.539726  0.262558  0.151385
    C   C260  0.541082  0.037244  0.262584  0.146171
    C   C261  0.037089  0.459307  0.262646  0.160132
    C   C262  0.999977  0.499383  0.224818  -0.146426
    C   C263  0.500954  0.999793  0.224817  -0.151550
    C   C264  0.000025  0.500766  0.775180  -0.161361
    H   H1    0.306118  0.429643  0.972521  0.131425
    H   H2    0.071773  0.806186  0.473216  0.130884
    H   H3    0.153130  0.195629  0.206812  0.071394
    H   H4    0.118219  0.214785  0.178129  0.056005
    H   H5    0.676277  0.100123  0.167251  0.007866
    H   H6    0.664890  0.058358  0.194972  -0.089618
    H   H7    0.706109  0.192800  0.190648  0.002846
    H   H8    0.695450  0.151008  0.218576  -0.044439
    H   H9    0.774441  0.075549  0.205806  0.050835
    H   H10   0.804697  0.152729  0.206516  0.071158
    H   H11   0.785472  0.117591  0.177883  0.055294
    H   H12   0.902213  0.323925  0.832721  0.006977
    H   H13   0.193824  0.068292  0.471822  0.132177
    H   H14   0.943963  0.335882  0.805034  -0.092115
    H   H15   0.810159  0.292561  0.809250  0.005087
    H   H16   0.851966  0.303754  0.781358  -0.043005
    H   H17   0.928568  0.226010  0.794263  0.052867
    H   H18   0.851876  0.194547  0.793488  0.073786
    H   H19   0.886504  0.214436  0.822146  0.057054
    H   H20   0.322000  0.098133  0.832523  0.007906
    H   H21   0.334130  0.056377  0.804849  -0.090550
    H   H22   0.290884  0.190215  0.809018  0.004803
    H   H23   0.302246  0.148402  0.781138  -0.043485
    H   H24   0.931648  0.193322  0.472493  0.130424
    H   H25   0.224348  0.071860  0.793954  0.053829
    H   H26   0.192952  0.148577  0.793144  0.072709
    H   H27   0.212604  0.113932  0.821824  0.057716
    H   H28   0.097417  0.677997  0.832650  0.006896
    H   H29   0.055889  0.665854  0.804924  -0.091919
    H   H30   0.189674  0.709156  0.809260  0.003927
    H   H31   0.148089  0.697778  0.781329  -0.044092
    H   H32   0.071412  0.775643  0.794049  0.053446
    H   H33   0.148122  0.807072  0.793335  0.072754
    H   H34   0.113255  0.787403  0.821973  0.057208
    H   H35   0.805729  0.070271  0.526813  0.132449
    H   H36   0.676065  0.902913  0.832846  0.007907
    H   H37   0.664098  0.944435  0.805106  -0.091084
    H   H38   0.707458  0.810678  0.809490  0.003608
    H   H39   0.696253  0.852257  0.781546  -0.043536
    H   H40   0.773975  0.928986  0.794354  0.052653
    H   H41   0.805460  0.852297  0.793676  0.073551
    H   H42   0.785560  0.887151  0.822291  0.056992
    H   H43   0.398842  0.174764  0.667061  0.008621
    H   H44   0.440725  0.163608  0.694770  -0.088625
    H   H45   0.306300  0.204903  0.690480  0.003713
    H   H46   0.066786  0.194281  0.528253  0.132171
    H   H47   0.348209  0.194472  0.718394  -0.043494
    H   H48   0.423679  0.273275  0.705454  0.052113
    H   H49   0.346529  0.303606  0.706173  0.072723
    H   H50   0.381521  0.284077  0.677545  0.057186
    H   H51   0.825310  0.399809  0.667194  0.008919
    H   H52   0.836503  0.441805  0.694873  -0.089406
    H   H53   0.795286  0.307337  0.690678  0.005264
    H   H54   0.805751  0.349360  0.718563  -0.041718
    H   H55   0.726870  0.424729  0.705605  0.050282
    H   H56   0.696591  0.347562  0.706381  0.071145
    H   H57   0.193823  0.933150  0.527583  0.132256
    H   H58   0.716034  0.382456  0.677725  0.055733
    H   H59   0.600009  0.824377  0.667466  0.008601
    H   H60   0.558079  0.835879  0.695141  -0.089650
    H   H61   0.692553  0.794664  0.690968  0.003741
    H   H62   0.650594  0.805435  0.718850  -0.042898
    H   H63   0.575224  0.726377  0.706064  0.051118
    H   H64   0.652404  0.696137  0.706865  0.072139
    H   H65   0.617434  0.715232  0.678187  0.056304
    H   H66   0.175673  0.601019  0.667335  0.007887
    H   H67   0.164220  0.559197  0.695039  -0.089002
    H   H68   0.929485  0.806163  0.526135  0.130102
    H   H69   0.205482  0.693637  0.690773  0.003593
    H   H70   0.194757  0.651788  0.718683  -0.043424
    H   H71   0.273754  0.576336  0.705913  0.050904
    H   H72   0.304028  0.653506  0.706658  0.071629
    H   H73   0.284851  0.618435  0.678007  0.055827
    H   H74   0.403094  0.823347  0.332802  0.009414
    H   H75   0.444789  0.835231  0.305097  -0.089917
    H   H76   0.310977  0.791972  0.309371  0.004058
    H   H77   0.352729  0.803092  0.281462  -0.044008
    H   H78   0.429328  0.725343  0.294365  0.053762
    H   H79   0.193770  0.427685  0.973313  0.147285
    H   H80   0.352622  0.693909  0.293626  0.073554
    H   H81   0.387319  0.713843  0.322267  0.057559
    H   H82   0.822422  0.597330  0.332495  0.007879
    H   H83   0.834615  0.555633  0.304812  -0.090669
    H   H84   0.791349  0.689459  0.309009  0.004111
    H   H85   0.802775  0.647705  0.281120  -0.044016
    H   H86   0.724856  0.571129  0.293884  0.052850
    H   H87   0.693455  0.647845  0.293088  0.072310
    H   H88   0.713047  0.613142  0.321764  0.056903
    H   H89   0.598324  0.177404  0.332566  0.007944
    H   H90   0.572171  0.194202  0.973770  0.148295
    H   H91   0.556738  0.165195  0.304858  -0.090605
    H   H92   0.690523  0.208539  0.309136  0.005073
    H   H93   0.648880  0.197094  0.281222  -0.043221
    H   H94   0.572211  0.274965  0.293943  0.053431
    H   H95   0.648911  0.306412  0.293194  0.072760
    H   H96   0.614110  0.286792  0.321849  0.057141
    H   H97   0.176502  0.402139  0.332875  0.007742
    H   H98   0.164592  0.443719  0.305145  -0.092139
    H   H99   0.207955  0.309958  0.309500  0.005204
    H   H100  0.196806  0.351593  0.281566  -0.042206
    H   H101  0.805539  0.571956  0.973658  0.149251
    H   H102  0.274492  0.428303  0.294425  0.053838
    H   H103  0.305987  0.351619  0.293732  0.073684
    H   H104  0.286022  0.386412  0.322352  0.057395
    H   H105  0.570173  0.306557  0.973265  0.130419
    H   H106  0.428055  0.805961  0.973195  0.148828
    H   H107  0.193755  0.569952  0.026239  0.146921
    H   H108  0.569704  0.806010  0.026403  0.148110
    H   H109  0.806483  0.430319  0.026870  0.146860
    H   H110  0.429915  0.193272  0.026700  0.145627
    H   H111  0.694339  0.926081  0.474393  0.148776
    H   H112  0.073676  0.693883  0.474013  0.148447
    H   H113  0.306122  0.070287  0.472586  0.148624
    H   H114  0.929630  0.305634  0.472964  0.149432
    H   H115  0.693424  0.071459  0.525999  0.146713
    H   H116  0.693267  0.570017  0.973186  0.130852
    H   H117  0.068019  0.306587  0.527477  0.147260
    H   H118  0.306144  0.931896  0.527098  0.145869
    H   H119  0.928294  0.693837  0.525618  0.147413
    H   H120  0.877835  0.592051  0.232832  0.178641
    H   H121  0.408294  0.877727  0.233019  0.177286
    H   H122  0.122096  0.406831  0.233080  0.175685
    H   H123  0.593530  0.121977  0.232891  0.177850
    H   H124  0.879575  0.406001  0.767013  0.177664
    H   H125  0.404551  0.120699  0.766909  0.177549
    H   H126  0.120567  0.595442  0.767065  0.179000
    H   H127  0.429973  0.693703  0.972434  0.131888
    H   H128  0.593977  0.879696  0.767168  0.178214
    H   H129  0.377201  0.092645  0.732840  0.179392
    H   H130  0.907579  0.378503  0.732957  0.176687
    H   H131  0.621446  0.907403  0.733070  0.175738
    H   H132  0.092797  0.622767  0.732957  0.177512
    H   H133  0.380362  0.905296  0.267076  0.178384
    H   H134  0.905118  0.620044  0.266917  0.177550
    H   H135  0.621368  0.094719  0.266999  0.177679
    H   H136  0.094563  0.379056  0.267161  0.180084
    H   H137  0.010336  0.596129  0.121016  0.122762
    H   H138  0.306113  0.568672  0.026761  0.131418
    H   H139  0.403966  0.009370  0.121048  0.121953
    H   H140  0.990131  0.401594  0.121177  0.123163
    H   H141  0.598503  0.989173  0.121143  0.121812
    H   H142  0.012437  0.404211  0.878945  0.122460
    H   H143  0.401843  0.987732  0.878804  0.122582
    H   H144  0.986792  0.598085  0.878818  0.123111
    H   H145  0.595716  0.013384  0.878959  0.123514
    H   H146  0.509485  0.096459  0.620980  0.122105
    H   H147  0.903493  0.510318  0.620995  0.122933
    H   H148  0.489269  0.901925  0.621212  0.122584
    H   H149  0.568525  0.693729  0.026888  0.130819
    H   H150  0.098031  0.490139  0.621201  0.122366
    H   H151  0.513394  0.903753  0.379001  0.122944
    H   H152  0.902173  0.486867  0.378769  0.123039
    H   H153  0.487763  0.097628  0.378759  0.122357
    H   H154  0.096044  0.512537  0.378993  0.122844
    H   H155  0.009593  0.596358  0.077048  0.099881
    H   H156  0.403648  0.008663  0.077079  0.099634
    H   H157  0.990848  0.400903  0.077206  0.098784
    H   H158  0.599104  0.989929  0.077173  0.099154
    H   H159  0.011785  0.403908  0.922917  0.100777
    H   H160  0.694218  0.431477  0.027643  0.132649
    H   H161  0.401140  0.988279  0.922776  0.100285
    H   H162  0.987401  0.598757  0.922789  0.101318
    H   H163  0.595988  0.012672  0.922930  0.100063
    H   H164  0.508868  0.096569  0.577010  0.099630
    H   H165  0.903326  0.509498  0.577024  0.099708
    H   H166  0.490112  0.901116  0.577243  0.098783
    H   H167  0.098784  0.490782  0.577233  0.099467
    H   H168  0.512623  0.903602  0.422974  0.100331
    H   H169  0.901353  0.487543  0.422740  0.100936
    H   H170  0.488254  0.098452  0.422728  0.101176
    H   H171  0.431155  0.305621  0.027508  0.132197
    H   H172  0.096197  0.511954  0.422965  0.100587
    H   H173  0.899610  0.674321  0.167089  0.008683
    H   H174  0.941434  0.663109  0.194808  -0.088273
    H   H175  0.807014  0.704399  0.190487  0.004080
    H   H176  0.848865  0.693910  0.218411  -0.042760
    H   H177  0.924354  0.772750  0.205524  0.050242
    H   H178  0.847200  0.803071  0.206228  0.071594
    H   H179  0.882255  0.783609  0.177604  0.055946
    H   H180  0.325899  0.898940  0.167274  0.009799
    H   H181  0.337164  0.940991  0.194936  -0.087906
    H   H182  0.806665  0.927987  0.473893  0.129489
    H   H183  0.295882  0.806531  0.190798  0.004206
    H   H184  0.306422  0.848610  0.218666  -0.042205
    H   H185  0.227546  0.923984  0.205708  0.049997
    H   H186  0.197237  0.846832  0.206520  0.071273
    H   H187  0.216635  0.881656  0.177846  0.055646
    H   H188  0.100810  0.323951  0.167439  0.009105
    H   H189  0.058818  0.335388  0.195104  -0.088743
    H   H190  0.193304  0.294194  0.190962  0.003466
    H   H191  0.151285  0.304901  0.218834  -0.043731
    H   H192  0.075949  0.225864  0.205995  0.051000
    N   N1    0.000185  0.499022  0.149827  -0.061251
    N   N2    0.501157  0.999392  0.149826  -0.056938
    N   N3    0.999712  0.501039  0.850166  -0.057368
    N   N4    0.498934  0.000505  0.850166  -0.065110
    N   N5    0.499363  0.999414  0.649826  -0.060432
    N   N6    0.000585  0.500340  0.649828  -0.063766
    N   N7    0.500670  0.000480  0.350165  -0.062945
    N   N8    0.999322  0.499681  0.350166  -0.059321
    O   O1    0.499672  0.408342  0.021395  -0.678537
    O   O2    0.091172  0.999832  0.520458  -0.686138
    O   O3    0.000131  0.091521  0.521392  -0.674511
    O   O4    0.908433  0.002535  0.521350  -0.678179
    O   O5    0.999130  0.091161  0.479607  -0.687524
    O   O6    0.091553  0.000861  0.478673  -0.675503
    O   O7    0.003307  0.908449  0.478689  -0.678434
    O   O8    0.908842  0.996653  0.479624  -0.691602
    O   O9    0.002165  0.445594  0.036139  -0.680111
    O   O10   0.554369  0.001646  0.036136  -0.680367
    O   O11   0.998128  0.551312  0.036066  -0.694693
    O   O12   0.591397  0.497345  0.021379  -0.675732
    O   O13   0.448651  0.997578  0.036068  -0.695311
    O   O14   0.999099  0.554383  0.963851  -0.679906
    O   O15   0.551296  0.000817  0.963922  -0.694314
    O   O16   0.000318  0.448618  0.963927  -0.695968
    O   O17   0.445532  0.999567  0.963856  -0.680569
    O   O18   0.501795  0.945667  0.536173  -0.680573
    O   O19   0.054189  0.502171  0.536167  -0.680925
    O   O20   0.497762  0.051385  0.536032  -0.694825
    O   O21   0.948473  0.498092  0.536042  -0.693576
    O   O22   0.499618  0.054214  0.463818  -0.680719
    O   O23   0.502420  0.591078  0.020412  -0.688760
    O   O24   0.051360  0.500457  0.463953  -0.695297
    O   O25   0.500832  0.948451  0.463956  -0.694504
    O   O26   0.945598  0.499196  0.463825  -0.680007
    O   O27   0.091444  0.445616  0.000147  -0.701777
    O   O28   0.554279  0.091434  0.000341  -0.701539
    O   O29   0.908413  0.554295  0.999304  -0.701806
    O   O30   0.445688  0.908380  0.999108  -0.701051
    O   O31   0.091178  0.551525  0.999658  -0.718453
    O   O32   0.551508  0.908669  0.000677  -0.717034
    O   O33   0.908688  0.448476  0.000886  -0.717509
    O   O34   0.408660  0.500059  0.020430  -0.690268
    O   O35   0.448370  0.091138  0.999866  -0.718052
    O   O36   0.591515  0.945570  0.500356  -0.700065
    O   O37   0.054220  0.591518  0.500204  -0.701326
    O   O38   0.408501  0.054247  0.499092  -0.701504
    O   O39   0.945630  0.408445  0.499247  -0.700915
    O   O40   0.591258  0.051473  0.499798  -0.717868
    O   O41   0.051449  0.408760  0.500890  -0.718039
    O   O42   0.408750  0.948429  0.500743  -0.716560
    O   O43   0.948317  0.591211  0.499656  -0.716905
    O   O44   0.912261  0.558215  0.148954  -0.466647
    O   O45   0.496647  0.591364  0.978686  -0.676196
    O   O46   0.441942  0.911476  0.149080  -0.468010
    O   O47   0.088114  0.439825  0.149115  -0.467472
    O   O48   0.560335  0.087327  0.148987  -0.465868
    O   O49   0.913055  0.440025  0.850955  -0.468561
    O   O50   0.437928  0.087170  0.850891  -0.468841
    O   O51   0.086381  0.562031  0.850997  -0.466887
    O   O52   0.559932  0.913842  0.851060  -0.468197
    O   O53   0.411450  0.058623  0.648960  -0.467761
    O   O54   0.941389  0.412414  0.649039  -0.468736
    O   O55   0.587293  0.940219  0.649108  -0.467398
    O   O56   0.591097  0.503144  0.979653  -0.687792
    O   O57   0.059768  0.588274  0.649032  -0.466323
    O   O58   0.414003  0.939482  0.350997  -0.470643
    O   O59   0.938318  0.586347  0.350897  -0.467937
    O   O60   0.587338  0.061476  0.350952  -0.467114
    O   O61   0.060335  0.413029  0.351055  -0.468235
    O   O62   0.870955  0.602132  0.188010  -0.476987
    O   O63   0.398136  0.870464  0.188207  -0.473856
    O   O64   0.129277  0.396370  0.188277  -0.476952
    O   O65   0.603911  0.128776  0.188077  -0.478833
    O   O66   0.872538  0.395754  0.811829  -0.481794
    O   O67   0.500834  0.408654  0.979608  -0.690064
    O   O68   0.394008  0.127755  0.811714  -0.478246
    O   O69   0.127236  0.606006  0.811877  -0.479347
    O   O70   0.604246  0.873048  0.811990  -0.479360
    O   O71   0.370224  0.102624  0.688016  -0.477957
    O   O72   0.897517  0.371317  0.688140  -0.476936
    O   O73   0.628528  0.896839  0.688269  -0.477323
    O   O74   0.103273  0.629645  0.688148  -0.478409
    O   O75   0.373402  0.895145  0.311896  -0.475647
    O   O76   0.894472  0.627002  0.311720  -0.477978
    O   O77   0.628115  0.105378  0.311806  -0.480125
    O   O78   0.408388  0.498923  0.978643  -0.678341
    O   O79   0.104732  0.372312  0.311985  -0.481834
    O   O80   0.997397  0.908784  0.520414  -0.689646
    Zn  Zn1   0.499839  0.499943  0.027449  1.297032
    Zn  Zn2   0.069363  0.499887  0.499969  1.339020
    Zn  Zn3   0.500105  0.069388  0.500026  1.338313
    Zn  Zn4   0.930446  0.500051  0.500034  1.336483
    Zn  Zn5   0.499991  0.499836  0.972603  1.296418
    Zn  Zn6   0.999978  0.999922  0.527447  1.294517
    Zn  Zn7   0.999963  0.999976  0.472605  1.297052
    Zn  Zn8   0.999805  0.430519  0.999936  1.338216
    Zn  Zn9   0.569421  0.999806  0.999927  1.337193
    Zn  Zn10  0.000028  0.569437  0.000066  1.338148
    Zn  Zn11  0.430501  0.999975  0.000074  1.338235
    Zn  Zn12  0.499879  0.930472  0.499973  1.336763
