# generated using pymatgen
data_Cu2H28C47(NO4)2
_symmetry_space_group_name_H-M   'P 1'
_cell_length_a   9.48269400
_cell_length_b   10.89721900
_cell_length_c   15.84427200
_cell_angle_alpha   89.99408200
_cell_angle_beta   73.06165700
_cell_angle_gamma   89.98672200
_symmetry_Int_Tables_number   1
_chemical_formula_structural   Cu2H28C47(NO4)2
_chemical_formula_sum   'Cu2 H28 C47 N2 O8'
_cell_volume   1566.24110413
_cell_formula_units_Z   1
loop_
 _symmetry_equiv_pos_site_id
 _symmetry_equiv_pos_as_xyz
  1  'x, y, z'
loop_
 _atom_site_type_symbol
 _atom_site_label
 _atom_site_symmetry_multiplicity
 _atom_site_fract_x
 _atom_site_fract_y
 _atom_site_fract_z
 _atom_site_occupancy
  Cu  Cu1  1  0.14179800  0.48760800  0.49834800  1
  Cu  Cu2  1  0.85956300  0.48959800  0.49863700  1
  H  H1  1  0.81595800  0.42048600  0.07344100  1
  H  H2  1  0.34808000  0.45017500  0.22489800  1
  H  H3  1  0.92377700  0.56524900  0.22141600  1
  H  H4  1  0.21123700  0.62089200  0.93338600  1
  H  H5  1  0.00624500  0.44770700  0.94093900  1
  H  H6  1  0.64605900  0.49625700  0.77701400  1
  H  H7  1  0.56672300  0.43426800  0.15706000  1
  H  H8  1  0.46498600  0.60027200  0.85330100  1
  H  H9  1  0.01534400  0.60327200  0.06383100  1
  H  H10  1  0.77322800  0.09947100  0.51358500  1
  H  H11  1  0.28830600  0.18841600  0.39793700  1
  H  H12  1  0.50844300  0.09185100  0.41248600  1
  H  H13  1  0.49125300  0.89907900  0.49516800  1
  H  H14  1  0.25955200  0.79779600  0.55140900  1
  H  H15  1  0.77209400  0.87806400  0.52248700  1
  H  H16  1  0.59287600  0.33615100  0.57691200  1
  H  H17  1  0.80756600  0.66821400  0.38720700  1
  H  H18  1  0.72578800  0.80355000  0.29798100  1
  H  H19  1  0.46985400  0.79865800  0.29478900  1
  H  H20  1  0.30381100  0.65995200  0.38120300  1
  H  H21  1  0.33458800  0.33509200  0.57803200  1
  H  H22  1  0.08594000  0.26176500  0.81974800  1
  H  H23  1  0.24352400  0.26908600  0.86177000  1
  H  H24  1  0.26431400  0.22108800  0.74995600  1
  H  H25  1  0.46881100  0.37888000  0.73217900  1
  H  H26  1  0.53514100  0.58730500  0.67294100  1
  H  H27  1  0.34270500  0.74073100  0.68298500  1
  H  H28  1  0.08304500  0.68615000  0.74950200  1
  C  C1  1  0.00412200  0.25254200  0.48925300  1
  C  C2  1  0.91850700  0.48057600  0.66889400  1
  C  C3  1  0.99829300  0.72553500  0.50948300  1
  C  C4  1  0.08349400  0.49589700  0.32874200  1
  C  C5  1  0.87170900  0.48106800  0.76747600  1
  C  C6  1  0.13353200  0.50668700  0.23219700  1
  C  C7  1  0.92583000  0.45732900  0.90508900  1
  C  C8  1  0.97339100  0.47462900  0.81529100  1
  C  C9  1  0.72329600  0.48964000  0.81434400  1
  C  C10  1  0.67597400  0.48760700  0.90676300  1
  C  C11  1  0.77835600  0.46100700  0.95025100  1
  C  C12  1  0.52933500  0.50973000  0.95677100  1
  C  C13  1  0.48355900  0.48725500  0.04759300  1
  C  C14  1  0.58958600  0.45144100  0.08768000  1
  C  C15  1  0.73521700  0.44297800  0.03978900  1
  C  C16  1  0.43032800  0.56266900  0.91849200  1
  C  C17  1  0.28566100  0.57971000  0.96553000  1
  C  C18  1  0.23673700  0.54918700  0.05320500  1
  C  C19  1  0.33450300  0.50546400  0.09612900  1
  C  C20  1  0.09005400  0.56814900  0.09813600  1
  C  C21  1  0.03803200  0.54641500  0.18720800  1
  C  C22  1  0.27991400  0.48429700  0.18680000  1
  C  C23  1  0.27599000  0.10422200  0.43512400  1
  C  C24  1  0.40278400  0.04801800  0.44017500  1
  C  C25  1  0.39351700  0.93950100  0.48482100  1
  C  C26  1  0.26055800  0.87958700  0.51343200  1
  C  C27  1  0.13353900  0.92904600  0.49940200  1
  C  C28  1  0.13870800  0.05106000  0.47347600  1
  C  C29  1  0.00765900  0.11655100  0.48555100  1
  C  C30  1  0.87656200  0.05215200  0.50515700  1
  C  C31  1  0.87543400  0.92589700  0.51255800  1
  C  C32  1  0.00237200  0.86209000  0.51104800  1
  C  C33  1  0.69429700  0.65950400  0.39227300  1
  C  C34  1  0.64877200  0.73933900  0.33897400  1
  C  C35  1  0.50677700  0.73658200  0.33719700  1
  C  C36  1  0.41057900  0.65454200  0.38908300  1
  C  C37  1  0.45251700  0.57190100  0.44502500  1
  C  C38  1  0.59936200  0.57421300  0.44616900  1
  C  C39  1  0.55438600  0.40603800  0.54058400  1
  C  C40  1  0.40736600  0.40510500  0.54094200  1
  C  C41  1  0.12944700  0.50052200  0.77575900  1
  C  C42  1  0.23812000  0.41372200  0.77182200  1
  C  C43  1  0.20453200  0.28453100  0.80308700  1
  C  C44  1  0.38362800  0.44606600  0.73540300  1
  C  C45  1  0.42093900  0.56242600  0.70172400  1
  C  C46  1  0.31318300  0.64880100  0.70730600  1
  C  C47  1  0.16787800  0.61798900  0.74472400  1
  N  N1  1  0.64814900  0.49422300  0.49779400  1
  N  N2  1  0.35447300  0.49055400  0.49650400  1
  O  O1  1  0.12163400  0.30953100  0.49743500  1
  O  O2  1  0.87971700  0.31087500  0.49396900  1
  O  O3  1  0.06005400  0.47852700  0.62642300  1
  O  O4  1  0.81733300  0.47593700  0.62671700  1
  O  O5  1  0.11769500  0.66532200  0.50557200  1
  O  O6  1  0.87707400  0.66745600  0.50979300  1
  O  O7  1  0.18305800  0.48790100  0.37025000  1
  O  O8  1  0.94250700  0.49517900  0.37035600  1
