# Generated by REPEAT Assigner based on pymatgen
data_DB0-m2_o9_o9_f0_nbo.sym.3
_audit_creation_date              2022-05-24
_audit_creation_method            REPEAT_Assigner
_cell_length_a                    18.624793
_cell_length_b                    18.709363
_cell_length_c                    18.831146
_cell_angle_alpha                 109.431058
_cell_angle_beta                  109.249511
_cell_angle_gamma                 109.375000
_cell_volume                      5073.515784
_symmetry_space_group_name_H-M    P1
_symmetry_Int_Tables_number       1
loop_
    _symmetry_equiv_pos_site_id
    _symmetry_equiv_pos_as_xyz
    1  x,y,z
loop_
    _atom_site_type_symbol
    _atom_site_label
    _atom_site_fract_x
    _atom_site_fract_y
    _atom_site_fract_z
    _atom_type_partial_charge
    C   C1    0.379758  0.497981  0.389913  0.696791
    C   C2    0.817865  0.785142  0.823312  -0.126329
    C   C3    0.963622  0.739933  0.972002  0.033489
    C   C4    0.951171  0.721961  0.033439  -0.235690
    C   C5    0.014031  0.776221  0.119689  0.210759
    C   C6    0.286647  0.542368  0.939399  -0.049904
    C   C7    0.201420  0.475899  0.881750  -0.201273
    C   C8    0.173711  0.396174  0.878813  0.150543
    C   C9    0.233893  0.381567  0.929172  -0.091278
    C   C10   0.319107  0.448001  0.986908  -0.139533
    C   C11   0.345328  0.528682  0.992590  -0.122088
    C   C12   0.078721  0.254482  0.748512  -0.164410
    C   C13   0.819277  0.816243  0.571182  -0.114617
    C   C14   0.998491  0.185434  0.680660  -0.021189
    C   C15   0.922737  0.184438  0.677644  -0.056257
    C   C16   0.929060  0.249815  0.745355  -0.118463
    C   C17   0.009415  0.318994  0.813715  0.100453
    C   C18   0.085306  0.323172  0.812974  -0.002365
    C   C19   0.778680  0.136812  0.561111  -0.169767
    C   C20   0.695566  0.072648  0.494169  -0.104284
    C   C21   0.668351  0.986571  0.472092  -0.099310
    C   C22   0.724083  0.964870  0.517434  -0.104929
    C   C23   0.807169  0.028925  0.584519  -0.188352
    C   C24   0.805417  0.811979  0.492982  0.056479
    C   C25   0.835245  0.115102  0.605735  0.229085
    C   C26   0.242999  0.332075  0.240358  -0.183656
    C   C27   0.011586  0.299944  0.173046  -0.402907
    C   C28   0.726067  0.746863  0.418077  -0.067296
    C   C29   0.664162  0.686453  0.423588  -0.130570
    C   C30   0.678504  0.691978  0.502270  0.060478
    C   C31   0.755499  0.758579  0.576529  -0.101217
    C   C32   0.630138  0.734337  0.282768  -0.160687
    C   C33   0.609478  0.723495  0.201175  -0.108507
    C   C34   0.663632  0.714080  0.167974  -0.106043
    C   C35   0.614668  0.623791  0.505210  0.616461
    C   C36   0.738475  0.715418  0.216406  -0.101417
    C   C37   0.759253  0.726502  0.298064  -0.074204
    C   C38   0.705770  0.737051  0.332057  0.133476
    C   C39   0.409285  0.783386  0.526849  -0.067260
    C   C40   0.348334  0.701376  0.456389  -0.227897
    C   C41   0.373459  0.655289  0.405159  0.250967
    C   C42   0.459197  0.692698  0.422983  -0.249778
    C   C43   0.520139  0.774661  0.493539  0.020033
    C   C44   0.495334  0.819904  0.545658  -0.188938
    C   C45   0.244313  0.567084  0.262137  -0.205951
    C   C46   0.624892  0.511320  0.627068  0.658503
    C   C47   0.179127  0.489068  0.188759  -0.022595
    C   C48   0.175712  0.411765  0.182615  -0.100354
    C   C49   0.242321  0.414310  0.247494  0.141694
    C   C50   0.308998  0.494123  0.320736  -0.189437
    C   C51   0.307483  0.570010  0.328631  0.049952
    C   C52   0.029480  0.276135  0.099230  0.304125
    C   C53   0.966527  0.198724  0.023345  -0.304830
    C   C54   0.979108  0.173526  0.952916  -0.102566
    C   C55   0.055181  0.225451  0.958088  -0.147719
    C   C56   0.118426  0.302647  0.033627  -0.215865
    C   C57   0.389068  0.385686  0.511301  0.631802
    C   C58   0.106175  0.328764  0.104170  0.257773
    C   C59   0.261100  0.537207  0.599581  0.003997
    C   C60   0.270287  0.466048  0.595581  -0.293076
    C   C61   0.239806  0.396283  0.516455  0.314706
    C   C62   0.198222  0.396929  0.441195  -0.268932
    C   C63   0.189312  0.468260  0.445227  -0.017197
    C   C64   0.220985  0.538499  0.524408  -0.209183
    C   C65   0.185921  0.253109  0.507012  -0.165999
    C   C66   0.194321  0.181796  0.504452  -0.055503
    C   C67   0.268438  0.178586  0.506334  -0.018826
    C   C68   0.753001  0.800989  0.783410  -0.039647
    C   C69   0.331256  0.245745  0.508434  -0.155823
    C   C70   0.322755  0.317035  0.511725  0.018355
    C   C71   0.250465  0.321419  0.512627  -0.006307
    C   C72   0.356401  0.118910  0.566670  -0.221304
    C   C73   0.370615  0.050264  0.562747  -0.104056
    C   C74   0.310441  0.967116  0.494043  -0.101828
    C   C75   0.236239  0.952717  0.429061  -0.052860
    C   C76   0.221578  0.021219  0.433184  -0.169812
    C   C77   0.281238  0.104504  0.502605  0.201988
    C   C78   0.524227  0.552465  0.809940  -0.054021
    C   C79   0.731839  0.791950  0.702377  -0.220901
    C   C80   0.598360  0.563800  0.803422  -0.214212
    C   C81   0.607673  0.492458  0.767123  0.209243
    C   C82   0.543244  0.409935  0.738373  -0.192819
    C   C83   0.469082  0.398628  0.744803  -0.052436
    C   C84   0.459611  0.469889  0.780650  -0.165599
    C   C85   0.750126  0.499121  0.819890  -0.120829
    C   C86   0.824651  0.506823  0.815078  -0.060828
    C   C87   0.833774  0.517213  0.748101  -0.020309
    C   C88   0.768975  0.520638  0.688634  -0.145049
    C   C89   0.695691  0.514672  0.695023  -0.006837
    C   C90   0.774355  0.765287  0.660607  0.244741
    C   C91   0.686658  0.504190  0.761348  -0.014867
    C   C92   0.957021  0.584908  0.726454  -0.172458
    C   C93   0.022932  0.583581  0.708850  -0.123663
    C   C94   0.037456  0.513951  0.696595  -0.079512
    C   C95   0.985806  0.445475  0.701627  -0.084932
    C   C96   0.920388  0.447076  0.720018  -0.134808
    C   C97   0.906380  0.517353  0.733484  0.141928
    C   C98   0.998376  0.873680  0.384066  0.579665
    C   C99   0.875341  0.879223  0.494399  0.636198
    C   C100  0.997361  0.116126  0.613876  0.710999
    C   C101  0.840015  0.750899  0.701149  -0.212574
    C   C102  0.124435  0.113152  0.501737  0.715987
    C   C103  0.010098  0.383950  0.884736  0.525198
    C   C104  0.114891  0.490951  0.119309  0.667254
    C   C105  0.996857  0.612381  0.117400  0.639843
    C   C106  0.890861  0.503772  0.881938  0.758910
    C   C107  0.061879  0.737550  0.532095  -0.063959
    C   C108  0.064081  0.756114  0.467603  -0.176829
    C   C109  0.989292  0.712512  0.388019  0.155625
    C   C110  0.913978  0.646306  0.371643  -0.065437
    C   C111  0.911658  0.627926  0.436198  -0.150234
    C   C112  0.861695  0.760806  0.782232  -0.093716
    C   C113  0.985430  0.673998  0.516663  -0.144704
    C   C114  0.985906  0.665019  0.249167  -0.166049
    C   C115  0.993211  0.678201  0.183433  -0.027047
    C   C116  0.003561  0.756033  0.185391  0.002607
    C   C117  0.003550  0.817236  0.250790  -0.138417
    C   C118  0.999103  0.805494  0.317835  0.099518
    C   C119  0.992251  0.729208  0.318102  -0.018991
    C   C120  0.087215  0.850780  0.144506  -0.196835
    C   C121  0.099066  0.869238  0.082945  -0.073859
    C   C122  0.037661  0.813347  0.996560  -0.155995
    Cu  Cu1   0.499677  0.563865  0.567503  0.792632
    Cu  Cu2   0.505110  0.445485  0.449679  0.970318
    Cu  Cu3   0.058749  0.995401  0.561225  0.922970
    Cu  Cu4   0.941185  0.998519  0.436523  0.931332
    Cu  Cu5   0.068160  0.561513  0.006502  0.900763
    Cu  Cu6   0.938124  0.434344  0.995517  0.951382
    H   H1    0.834946  0.792761  0.887085  0.081968
    H   H2    0.647331  0.705506  0.103968  0.095209
    H   H3    0.780961  0.707817  0.190439  0.081498
    H   H4    0.817830  0.727452  0.335618  0.050920
    H   H5    0.543249  0.884155  0.600951  0.111887
    H   H6    0.389559  0.819078  0.567238  0.111647
    H   H7    0.280828  0.672958  0.441654  0.122168
    H   H8    0.478611  0.657919  0.381544  0.103519
    H   H9    0.587479  0.803280  0.508196  0.067759
    H   H10   0.245823  0.627107  0.268016  0.107445
    H   H11   0.906716  0.157565  0.018952  0.148963
    H   H12   0.719349  0.821263  0.815943  0.097687
    H   H13   0.929355  0.112906  0.893700  0.101993
    H   H14   0.065263  0.205603  0.902985  0.109990
    H   H15   0.178440  0.343345  0.038356  0.092876
    H   H16   0.214064  0.594423  0.527520  0.112125
    H   H17   0.285542  0.592066  0.661669  0.085246
    H   H18   0.301973  0.465198  0.654525  0.130775
    H   H19   0.172840  0.341675  0.379103  0.117826
    H   H20   0.157728  0.469332  0.386391  0.089074
    H   H21   0.129143  0.256743  0.506837  0.100469
    H   H22   0.387826  0.242550  0.507396  0.111964
    H   H23   0.682477  0.806478  0.672025  0.106164
    H   H24   0.404000  0.183983  0.620686  0.149338
    H   H25   0.429163  0.061729  0.613432  0.103888
    H   H26   0.321772  0.913339  0.490758  0.091165
    H   H27   0.189869  0.887681  0.374606  0.069921
    H   H28   0.163893  0.009656  0.381342  0.108528
    H   H29   0.401592  0.461028  0.785953  0.109826
    H   H30   0.516847  0.608338  0.838199  0.099767
    H   H31   0.649237  0.628606  0.826845  0.113482
    H   H32   0.550639  0.354020  0.710305  0.095696
    H   H33   0.418365  0.333906  0.721785  0.086881
    H   H34   0.874657  0.731760  0.669334  0.108664
    H   H35   0.741692  0.490629  0.871173  0.104103
    H   H36   0.774467  0.525760  0.634933  0.116213
    H   H37   0.945653  0.639423  0.735321  0.123054
    H   H38   0.062902  0.636955  0.704142  0.112057
    H   H39   0.088836  0.512688  0.682328  0.080452
    H   H40   0.996337  0.390256  0.690655  0.083442
    H   H41   0.879200  0.392396  0.722345  0.099510
    H   H42   0.983670  0.659430  0.567206  0.119669
    H   H43   0.120264  0.772522  0.594632  0.094510
    H   H44   0.124656  0.804773  0.479441  0.101871
    H   H45   0.913547  0.749745  0.813112  0.124267
    H   H46   0.856250  0.609284  0.308331  0.075883
    H   H47   0.852067  0.577065  0.423557  0.109525
    H   H48   0.980460  0.605832  0.249579  0.104234
    H   H49   0.009329  0.876482  0.250357  0.096207
    H   H50   0.136487  0.893901  0.212108  0.098523
    H   H51   0.156969  0.926981  0.102338  0.106441
    H   H52   0.047734  0.827342  0.948324  0.084859
    H   H53   0.915182  0.695747  0.904594  0.069801
    H   H54   0.892794  0.664483  0.013686  0.098602
    H   H55   0.412260  0.580587  0.037431  0.103013
    H   H56   0.879719  0.867370  0.630019  0.109963
    H   H57   0.307686  0.604947  0.942186  0.085972
    H   H58   0.156550  0.486276  0.838361  0.123931
    H   H59   0.214374  0.317820  0.923468  0.100445
    H   H60   0.365592  0.436518  0.027110  0.100861
    H   H61   0.137782  0.257005  0.749183  0.104256
    H   H62   0.869691  0.246935  0.744052  0.092930
    H   H63   0.799766  0.204198  0.577810  0.096004
    H   H64   0.651786  0.089871  0.458958  0.107312
    H   H65   0.603211  0.936143  0.419590  0.087040
    H   H66   0.702502  0.897533  0.500448  0.120104
    H   H67   0.604029  0.633436  0.365484  0.105380
    H   H68   0.849863  0.011408  0.620693  0.083485
    H   H69   0.181945  0.271619  0.186917  0.004535
    H   H70   0.297401  0.329956  0.229464  0.074093
    H   H71   0.251755  0.330272  0.300718  0.076651
    H   H72   0.949595  0.301973  0.151423  0.097438
    H   H73   0.004136  0.249357  0.192619  0.091901
    H   H74   0.064054  0.364046  0.230118  0.099870
    H   H75   0.587486  0.742044  0.308470  0.109877
    H   H76   0.550807  0.722533  0.163282  0.112513
    O   O1    0.392677  0.533602  0.469704  -0.487459
    O   O2    0.954528  0.910961  0.358457  -0.566518
    O   O3    0.956485  0.907223  0.550022  -0.611970
    O   O4    0.855056  0.905924  0.438432  -0.515004
    O   O5    0.054000  0.090909  0.639476  -0.607880
    O   O6    0.948320  0.089746  0.532060  -0.588199
    O   O7    0.145046  0.079228  0.550911  -0.570352
    O   O8    0.043287  0.086030  0.446859  -0.573531
    O   O9    0.063706  0.466770  0.917052  -0.459247
    O   O10   0.947880  0.357185  0.903865  -0.539612
    O   O11   0.143866  0.547449  0.094932  -0.584810
    O   O12   0.427852  0.465849  0.369298  -0.579510
    O   O13   0.031701  0.434005  0.081509  -0.597040
    O   O14   0.050707  0.639173  0.089750  -0.540503
    O   O15   0.942083  0.529422  0.084347  -0.577974
    O   O16   0.974900  0.553729  0.912074  -0.559739
    O   O17   0.862177  0.447388  0.906387  -0.619925
    O   O18   0.568192  0.643552  0.539887  -0.454863
    O   O19   0.605989  0.545269  0.472207  -0.603868
    O   O20   0.607481  0.575956  0.647193  -0.489683
    O   O21   0.581659  0.443419  0.548236  -0.590856
    O   O22   0.431796  0.465945  0.576958  -0.465375
    O   O23   0.403369  0.363861  0.445139  -0.604502
    O   O24   0.051860  0.904312  0.465882  -0.478917
