# generated using pymatgen
data_Fe2H18C39O17
_symmetry_space_group_name_H-M   'P 1'
_cell_length_a   13.30811800
_cell_length_b   12.14781800
_cell_length_c   13.01765900
_cell_angle_alpha   91.07288900
_cell_angle_beta   100.77844700
_cell_angle_gamma   111.36911100
_symmetry_Int_Tables_number   1
_chemical_formula_structural   Fe2H18C39O17
_chemical_formula_sum   'Fe2 H18 C39 O17'
_cell_volume   1916.54087468
_cell_formula_units_Z   1
loop_
 _symmetry_equiv_pos_site_id
 _symmetry_equiv_pos_as_xyz
  1  'x, y, z'
loop_
 _atom_site_type_symbol
 _atom_site_label
 _atom_site_symmetry_multiplicity
 _atom_site_fract_x
 _atom_site_fract_y
 _atom_site_fract_z
 _atom_site_occupancy
  Fe  Fe1  1  0.49778700  0.00367000  0.21974600  1
  Fe  Fe2  1  0.50021300  0.00584100  0.79364300  1
  H  H1  1  0.12163300  0.05036800  0.75064900  1
  H  H2  1  0.94472600  0.05507200  0.73742400  1
  H  H3  1  0.79301700  0.04617700  0.81287300  1
  H  H4  1  0.21968000  0.00374200  0.20543200  1
  H  H5  1  0.07192500  0.99598000  0.28072800  1
  H  H6  1  0.52508600  0.60012600  0.68058700  1
  H  H7  1  0.51356700  0.59407300  0.34706100  1
  H  H8  1  0.49255700  0.41629700  0.34241900  1
  H  H9  1  0.54574200  0.43934300  0.68053500  1
  H  H10  1  0.46169400  0.86497500  0.51192600  1
  H  H11  1  0.56451600  0.15294500  0.50578300  1
  H  H12  1  0.86402400  0.81004000  0.22852600  1
  H  H13  1  0.75202300  0.82389800  0.28037600  1
  H  H14  1  0.98097000  0.85654000  0.40899200  1
  H  H15  1  0.86762200  0.86866400  0.45998800  1
  H  H16  1  0.75234400  0.65899800  0.39090800  1
  H  H17  1  0.87804200  0.67040500  0.48030500  1
  H  H18  1  0.86624800  0.64710400  0.34028800  1
  C  C1  1  0.22645700  0.03864300  0.89272200  1
  C  C2  1  0.13050900  0.04367700  0.83423300  1
  C  C3  1  0.04400300  0.03847100  0.88065100  1
  C  C4  1  0.95015500  0.04456600  0.82030900  1
  C  C5  1  0.86221200  0.03770600  0.86445000  1
  C  C6  1  0.23516000  0.03003400  0.00061500  1
  C  C7  1  0.14561700  0.02131700  0.04658500  1
  C  C8  1  0.05040100  0.02668000  0.98632100  1
  C  C9  1  0.96163100  0.02045900  0.03152500  1
  C  C10  1  0.86595000  0.02416900  0.97070400  1
  C  C11  1  0.77532500  0.01251400  0.01601300  1
  C  C12  1  0.15030000  0.01025700  0.15301600  1
  C  C13  1  0.06316900  0.00414000  0.19742200  1
  C  C14  1  0.96780400  0.00753900  0.13714600  1
  C  C15  1  0.87951700  0.99740100  0.18328300  1
  C  C16  1  0.78416800  0.00537700  0.12458800  1
  C  C17  1  0.69704500  0.01054900  0.17974100  1
  C  C18  1  0.48319800  0.79777400  0.32521100  1
  C  C19  1  0.34096300  0.04092800  0.06715400  1
  C  C20  1  0.50593400  0.20888900  0.32109800  1
  C  C21  1  0.51594700  0.81235800  0.69676200  1
  C  C22  1  0.66731500  0.99045000  0.94739400  1
  C  C23  1  0.54934900  0.22214100  0.69445400  1
  C  C24  1  0.31429300  0.03854700  0.83726700  1
  C  C25  1  0.48785000  0.73267200  0.60187400  1
  C  C26  1  0.50783000  0.62896000  0.60411100  1
  C  C27  1  0.51031200  0.57009200  0.51174700  1
  C  C28  1  0.50116900  0.62623900  0.41918500  1
  C  C29  1  0.48120300  0.73038500  0.41797000  1
  C  C30  1  0.47066200  0.78018200  0.50900000  1
  C  C31  1  0.51956800  0.39121900  0.41822900  1
  C  C32  1  0.53910600  0.28741400  0.41765200  1
  C  C33  1  0.55893000  0.23938300  0.50986000  1
  C  C34  1  0.55632600  0.29227500  0.60321300  1
  C  C35  1  0.54602600  0.40170800  0.60542600  1
  C  C36  1  0.52856400  0.45474600  0.51238200  1
  C  C37  1  0.84296200  0.85543100  0.29114600  1
  C  C38  1  0.88988700  0.82480000  0.39717000  1
  C  C39  1  0.84345100  0.69153800  0.40230800  1
  O  O1  1  0.59825500  0.99652900  0.12758500  1
  O  O2  1  0.51379200  0.76774000  0.24230600  1
  O  O3  1  0.71920500  0.03414400  0.28211700  1
  O  O4  1  0.46532700  0.89679800  0.33229700  1
  O  O5  1  0.34709800  0.95755100  0.12788000  1
  O  O6  1  0.42923200  0.13641400  0.06848600  1
  O  O7  1  0.57662500  0.16907100  0.29113500  1
  O  O8  1  0.40040800  0.14773500  0.28937600  1
  O  O9  1  0.43804400  0.83697900  0.72928500  1
  O  O10  1  0.61679800  0.89111600  0.72008900  1
  O  O11  1  0.65051500  0.07121700  0.88826000  1
  O  O12  1  0.58817300  0.88564600  0.94114500  1
  O  O13  1  0.30972700  0.06705600  0.74027000  1
  O  O14  1  0.52398800  0.10740400  0.67636200  1
  O  O15  1  0.39259900  0.00219700  0.88129400  1
  O  O16  1  0.55501100  0.26873500  0.78814800  1
  O  O17  1  0.88723000  0.97885000  0.28763600  1
