# Generated by REPEAT Assigner based on pymatgen
data_DB0-m3_o146_o155_f0_fsc.sym.76
_audit_creation_date              2022-05-24
_audit_creation_method            REPEAT_Assigner
_cell_length_a                    15.497517
_cell_length_b                    11.659614
_cell_length_c                    17.564992
_cell_angle_alpha                 90.152280
_cell_angle_beta                  90.000000
_cell_angle_gamma                 90.000000
_cell_volume                      3173.896066
_symmetry_space_group_name_H-M    P1
_symmetry_Int_Tables_number       1
loop_
    _symmetry_equiv_pos_site_id
    _symmetry_equiv_pos_as_xyz
    1  x,y,z
loop_
    _atom_site_type_symbol
    _atom_site_label
    _atom_site_fract_x
    _atom_site_fract_y
    _atom_site_fract_z
    _atom_type_partial_charge
    C   C1   0.307225  0.741497  0.994440  0.051235
    C   C2   0.692777  0.258502  0.005559  0.051579
    C   C3   0.078070  0.941536  0.000807  0.064765
    C   C4   0.921932  0.058464  0.999193  0.064849
    C   C5   0.219476  0.885536  0.054899  -0.178966
    C   C6   0.780526  0.114463  0.945101  -0.178927
    H   H1   0.208428  0.942296  0.102579  0.086404
    H   H2   0.791574  0.057702  0.897421  0.086402
    C   C7   0.246326  0.734935  0.935871  -0.045835
    C   C8   0.753676  0.265065  0.064129  -0.045927
    C   C9   0.294044  0.821165  0.052702  -0.085507
    C   C10  0.705958  0.178834  0.947298  -0.085639
    C   C11  0.159406  0.877424  0.997504  0.194513
    C   C12  0.840596  0.122575  0.002496  0.194453
    C   C13  0.174984  0.805196  0.937042  -0.113206
    C   C14  0.825018  0.194804  0.062958  -0.113224
    H   H3   0.128110  0.798366  0.891666  0.054829
    H   H4   0.871892  0.201634  0.108334  0.054846
    C   C15  0.302001  0.268107  0.995196  -0.138916
    C   C16  0.698002  0.731893  0.004804  -0.138516
    C   C17  0.077140  0.060178  0.994616  0.012318
    C   C18  0.922862  0.939822  0.005384  0.012318
    C   C19  0.199805  0.152385  0.926546  -0.249762
    C   C20  0.800197  0.847615  0.073453  -0.249536
    C   C21  0.260052  0.241196  0.062292  -0.031878
    C   C22  0.739951  0.758803  0.937708  -0.032078
    H   H5   0.281513  0.275941  0.116140  0.099465
    H   H6   0.718489  0.724058  0.883860  0.099515
    C   C23  0.271641  0.222892  0.927290  0.011391
    C   C24  0.728361  0.777108  0.072709  0.011102
    H   H7   0.302922  0.243204  0.874019  0.089112
    H   H8   0.697079  0.756796  0.125981  0.089174
    C   C25  0.157326  0.127336  0.993763  0.486178
    C   C26  0.842676  0.872664  0.006237  0.485971
    C   C27  0.187849  0.172325  0.061319  -0.293345
    C   C28  0.812153  0.827674  0.938681  -0.293208
    H   H9   0.154277  0.154489  0.113924  0.119698
    H   H10  0.845725  0.845510  0.886076  0.119677
    C   C29  0.000769  0.882091  0.006574  -0.203033
    C   C30  0.999234  0.117908  0.993426  -0.203096
    O   O1   0.593720  0.613175  0.068077  -0.498160
    O   O2   0.406282  0.386825  0.931923  -0.498180
    O   O3   0.595321  0.617912  0.937129  -0.554777
    O   O4   0.404681  0.382087  0.062871  -0.554781
    C   C31  0.624732  0.651753  0.003469  0.563777
    C   C32  0.375270  0.348247  0.996531  0.564010
    O   O5   0.594741  0.379711  0.936552  -0.639401
    O   O6   0.405261  0.620289  0.063447  -0.639508
    O   O7   0.585739  0.375087  0.067056  -0.611118
    O   O8   0.414263  0.624912  0.932943  -0.611153
    C   C33  0.619437  0.339274  0.002808  0.697033
    C   C34  0.380565  0.660725  0.997192  0.697363
    Zn  Zn1  0.503888  0.499292  0.915719  0.954382
    Zn  Zn2  0.496114  0.500707  0.084281  0.954403
    C   C35  0.518585  0.599288  0.778084  -0.105768
    C   C36  0.481413  0.400712  0.221915  -0.105660
    N   N1   0.506442  0.500239  0.815790  0.012437
    N   N2   0.493560  0.499760  0.184209  0.012351
    C   C37  0.491128  0.402785  0.777189  -0.197438
    C   C38  0.508879  0.597213  0.222811  -0.197286
    C   C39  0.503396  0.501801  0.658624  -0.150799
    C   C40  0.496608  0.498198  0.341376  -0.150502
    C   C41  0.517836  0.601747  0.698976  0.239348
    C   C42  0.482162  0.398254  0.301023  0.239163
    C   C43  0.530768  0.702559  0.659552  -0.161953
    C   C44  0.469224  0.297443  0.340447  -0.161891
    C   C45  0.489888  0.402392  0.698805  0.354053
    C   C46  0.510120  0.597605  0.301195  0.353728
    C   C47  0.513563  0.601448  0.459629  0.043068
    C   C48  0.486444  0.398550  0.540370  0.042881
    C   C49  0.484961  0.397810  0.460425  -0.069898
    C   C50  0.515041  0.602189  0.539575  -0.070097
    C   C51  0.498313  0.499149  0.420772  0.121577
    C   C52  0.501691  0.500850  0.579228  0.121783
    C   C53  0.527269  0.700717  0.416977  -0.063881
    C   C54  0.472749  0.299279  0.583023  -0.063632
    C   C55  0.525493  0.698166  0.339022  -0.410865
    C   C56  0.474524  0.301829  0.660977  -0.411191
    C   C57  0.529351  0.702256  0.581442  -0.017798
    C   C58  0.470641  0.297746  0.418558  -0.018012
    H   H11  0.536421  0.776523  0.307711  0.233908
    H   H12  0.463603  0.223471  0.692288  0.234030
    H   H13  0.540087  0.783677  0.440906  0.098202
    H   H14  0.459944  0.216315  0.559093  0.098101
    H   H15  0.539853  0.784875  0.556475  0.082664
    H   H16  0.460127  0.215129  0.443525  0.082776
    H   H17  0.479201  0.324239  0.807690  0.147247
    H   H18  0.520809  0.675758  0.192310  0.147252
    H   H19  0.527908  0.676199  0.810936  0.108378
    H   H20  0.472087  0.323802  0.189064  0.108357
    I   I1   0.553726  0.863407  0.711935  -0.021797
    I   I2   0.446255  0.136597  0.288065  -0.021773
    I   I3   0.247025  0.613213  0.846029  -0.041491
    I   I4   0.752977  0.386788  0.153970  -0.041451
    I   I5   0.385236  0.858441  0.138610  -0.014523
    I   I6   0.614765  0.141556  0.861391  -0.014506
    I   I7   0.152827  0.090239  0.821762  -0.045009
    I   I8   0.847174  0.909761  0.178238  -0.045063
    I   I9   0.999496  0.702691  0.025299  0.018944
    I   I10  0.000506  0.297309  0.974701  0.018950
