# generated using pymatgen
data_Cu3H24C41O12
_symmetry_space_group_name_H-M   'P 1'
_cell_length_a   29.77950000
_cell_length_b   30.48098400
_cell_length_c   21.33407600
_cell_angle_alpha   90.00000000
_cell_angle_beta   134.24217200
_cell_angle_gamma   90.00000000
_symmetry_Int_Tables_number   1
_chemical_formula_structural   Cu3H24C41O12
_chemical_formula_sum   'Cu12 H96 C164 O48'
_cell_volume   13873.12009564
_cell_formula_units_Z   4
loop_
 _symmetry_equiv_pos_site_id
 _symmetry_equiv_pos_as_xyz
  1  'x, y, z'
loop_
 _atom_site_type_symbol
 _atom_site_label
 _atom_site_symmetry_multiplicity
 _atom_site_fract_x
 _atom_site_fract_y
 _atom_site_fract_z
 _atom_site_occupancy
  Cu  Cu1  1  0.27919400  0.71959900  0.05802200  1
  Cu  Cu2  1  0.72076800  0.71975400  0.94430300  1
  Cu  Cu3  1  0.77919400  0.21959900  0.05802200  1
  Cu  Cu4  1  0.22076800  0.21975400  0.94430300  1
  Cu  Cu5  1  0.21686300  0.78010400  0.93799900  1
  Cu  Cu6  1  0.77991700  0.78205400  0.06078500  1
  Cu  Cu7  1  0.71686300  0.28010400  0.93799900  1
  Cu  Cu8  1  0.27991700  0.28205400  0.06078500  1
  Cu  Cu9  1  0.54188900  0.99862200  0.49564400  1
  Cu  Cu10  1  0.45854300  0.99854000  0.50344800  1
  Cu  Cu11  1  0.04188900  0.49862200  0.49564400  1
  Cu  Cu12  1  0.95854300  0.49854000  0.50344800  1
  H  H1  1  0.61340000  0.82424700  0.00767500  1
  H  H2  1  0.38703100  0.82374300  0.99837200  1
  H  H3  1  0.11340000  0.32424700  0.00767500  1
  H  H4  1  0.88703100  0.32374300  0.99837200  1
  H  H5  1  0.60248100  0.68450500  0.98640700  1
  H  H6  1  0.38502800  0.68376900  0.99225600  1
  H  H7  1  0.10248100  0.18450500  0.98640700  1
  H  H8  1  0.88502800  0.18376900  0.99225600  1
  H  H9  1  0.53185300  0.64542400  0.98303000  1
  H  H10  1  0.45123500  0.64508700  0.98587900  1
  H  H11  1  0.03185300  0.14542400  0.98303000  1
  H  H12  1  0.95123500  0.14508700  0.98587900  1
  H  H13  1  0.45943100  0.86323200  0.00377100  1
  H  H14  1  0.54358600  0.86339200  0.00782600  1
  H  H15  1  0.95943100  0.36323200  0.00377100  1
  H  H16  1  0.04358600  0.36339200  0.00782600  1
  H  H17  1  0.25562600  0.88116600  0.12276700  1
  H  H18  1  0.74242700  0.87942900  0.87311500  1
  H  H19  1  0.75562600  0.38116600  0.12276700  1
  H  H20  1  0.24242700  0.37942900  0.87311500  1
  H  H21  1  0.31265300  0.93735800  0.23744600  1
  H  H22  1  0.68592900  0.93533000  0.75818000  1
  H  H23  1  0.81265300  0.43735800  0.23744600  1
  H  H24  1  0.18592900  0.43533000  0.75818000  1
  H  H25  1  0.52522100  0.87009800  0.36634900  1
  H  H26  1  0.47308600  0.86895400  0.62886200  1
  H  H27  1  0.02522100  0.37009800  0.36634900  1
  H  H28  1  0.97308600  0.36895400  0.62886200  1
  H  H29  1  0.51414700  0.83915800  0.43136700  1
  H  H30  1  0.48370200  0.83738400  0.56386700  1
  H  H31  1  0.01414700  0.33915800  0.43136700  1
  H  H32  1  0.98370200  0.33738400  0.56386700  1
  H  H33  1  0.46798500  0.81332600  0.25472200  1
  H  H34  1  0.52992500  0.81240900  0.74089900  1
  H  H35  1  0.96798500  0.31332600  0.25472200  1
  H  H36  1  0.02992500  0.31240900  0.74089900  1
  H  H37  1  0.45740200  0.78213800  0.32008000  1
  H  H38  1  0.54008800  0.78053600  0.67565700  1
  H  H39  1  0.95740200  0.28213800  0.32008000  1
  H  H40  1  0.04008800  0.28053600  0.67565700  1
  H  H41  1  0.82065800  0.74441700  0.86567300  1
  H  H42  1  0.18020600  0.74580600  0.13934300  1
  H  H43  1  0.32065800  0.24441700  0.86567300  1
  H  H44  1  0.68020600  0.24580600  0.13934300  1
  H  H45  1  0.96156900  0.75119500  0.14463400  1
  H  H46  1  0.03878800  0.74665100  0.86009500  1
  H  H47  1  0.46156900  0.25119500  0.14463400  1
  H  H48  1  0.53878800  0.24665100  0.86009500  1
  H  H49  1  0.07002500  0.75018000  0.22120900  1
  H  H50  1  0.93066000  0.74489500  0.78384600  1
  H  H51  1  0.57002500  0.25018000  0.22120900  1
  H  H52  1  0.43066000  0.24489500  0.78384600  1
  H  H53  1  0.15110600  0.74779100  0.21920800  1
  H  H54  1  0.84965500  0.74381600  0.78599500  1
  H  H55  1  0.65110600  0.24779100  0.21920800  1
  H  H56  1  0.34965500  0.24381600  0.78599500  1
  H  H57  1  0.13969700  0.61816500  0.64468100  1
  H  H58  1  0.88732400  0.62938000  0.38476700  1
  H  H59  1  0.63969700  0.11816500  0.64468100  1
  H  H60  1  0.38732400  0.12938000  0.38476700  1
  H  H61  1  0.01351700  0.58157300  0.72573200  1
  H  H62  1  0.96101000  0.56822500  0.23966500  1
  H  H63  1  0.51351700  0.08157300  0.72573200  1
  H  H64  1  0.46101000  0.06822500  0.23966500  1
  H  H65  1  0.08200800  0.54300900  0.80217900  1
  H  H66  1  0.88616000  0.53626300  0.17842700  1
  H  H67  1  0.58200800  0.04300900  0.80217900  1
  H  H68  1  0.38616000  0.03626300  0.17842700  1
  H  H69  1  0.07061700  0.63840400  0.83715700  1
  H  H70  1  0.90274200  0.62572100  0.12969300  1
  H  H71  1  0.57061700  0.13840400  0.83715700  1
  H  H72  1  0.40274200  0.12572100  0.12969300  1
  H  H73  1  0.13902700  0.59982000  0.91396500  1
  H  H74  1  0.82802500  0.59353500  0.06806700  1
  H  H75  1  0.63902700  0.09982000  0.91396500  1
  H  H76  1  0.32802500  0.09353500  0.06806700  1
  H  H77  1  0.22709900  0.66431700  0.73321900  1
  H  H78  1  0.25191000  0.69180900  0.82702200  1
  H  H79  1  0.12656900  0.72626200  0.66790000  1
  H  H80  1  0.25405500  0.74876700  0.73494500  1
  H  H81  1  0.17980000  0.78171100  0.65913400  1
  H  H82  1  0.84293900  0.73102400  0.28533100  1
  H  H83  1  0.84212200  0.69451000  0.34930400  1
  H  H84  1  0.72862100  0.67474500  0.16569400  1
  H  H85  1  0.75173100  0.75097300  0.27847000  1
  H  H86  1  0.67466600  0.72674000  0.17938100  1
  H  H87  1  0.72709900  0.16431700  0.73321900  1
  H  H88  1  0.75191000  0.19180900  0.82702200  1
  H  H89  1  0.62656900  0.22626200  0.66790000  1
  H  H90  1  0.75405500  0.24876700  0.73494500  1
  H  H91  1  0.67980000  0.28171100  0.65913400  1
  H  H92  1  0.34293900  0.23102400  0.28533100  1
  H  H93  1  0.34212200  0.19451000  0.34930400  1
  H  H94  1  0.22862100  0.17474500  0.16569400  1
  H  H95  1  0.25173100  0.25097300  0.27847000  1
  H  H96  1  0.17466600  0.22674000  0.17938100  1
  C  C1  1  0.30449600  0.80834400  0.11515200  1
  C  C2  1  0.69331000  0.80757700  0.88194800  1
  C  C3  1  0.80449600  0.30834400  0.11515200  1
  C  C4  1  0.19331000  0.30757700  0.88194800  1
  C  C5  1  0.33260000  0.75281100  0.99743400  1
  C  C6  1  0.66360300  0.75359600  0.99891000  1
  C  C7  1  0.83260000  0.25281100  0.99743400  1
  C  C8  1  0.16360300  0.25359600  0.99891000  1
  C  C9  1  0.19302800  0.69114400  0.88123300  1
  C  C10  1  0.80687000  0.69403200  0.12334500  1
  C  C11  1  0.69302800  0.19114400  0.88123300  1
  C  C12  1  0.30687000  0.19403200  0.12334500  1
  C  C13  1  0.16334400  0.74691200  0.99836000  1
  C  C14  1  0.83671000  0.74841500  0.00546500  1
  C  C15  1  0.66334400  0.24691200  0.99836000  1
  C  C16  1  0.33671000  0.24841500  0.00546500  1
  C  C17  1  0.59311500  0.79350100  0.00289800  1
  C  C18  1  0.40412200  0.79307400  0.99620500  1
  C  C19  1  0.09311500  0.29350100  0.00289800  1
  C  C20  1  0.90412200  0.29307400  0.99620500  1
  C  C21  1  0.61354600  0.75438700  0.99713500  1
  C  C22  1  0.38082300  0.75370800  0.99564900  1
  C  C23  1  0.11354600  0.25438700  0.99713500  1
  C  C24  1  0.88082300  0.25370800  0.99564900  1
  C  C25  1  0.58649900  0.71540600  0.98980200  1
  C  C26  1  0.40358200  0.71472200  0.99403100  1
  C  C27  1  0.08649900  0.21540600  0.98980200  1
  C  C28  1  0.90358200  0.21472200  0.99403100  1
  C  C29  1  0.54050600  0.71536400  0.99032100  1
  C  C30  1  0.44893900  0.71501000  0.99223100  1
  C  C31  1  0.04050600  0.21536400  0.99032100  1
  C  C32  1  0.94893900  0.21501000  0.99223100  1
  C  C33  1  0.51970000  0.75439200  0.99513300  1
  C  C34  1  0.47320300  0.75424800  0.99481500  1
  C  C35  1  0.01970000  0.25439200  0.99513300  1
  C  C36  1  0.97320300  0.25424800  0.99481500  1
  C  C37  1  0.54553700  0.79349500  0.00055400  1
  C  C38  1  0.45110100  0.79328100  0.99735100  1
  C  C39  1  0.04553700  0.29349500  0.00055400  1
  C  C40  1  0.95110100  0.29328100  0.99735100  1
  C  C41  1  0.51558300  0.67615800  0.98652400  1
  C  C42  1  0.47018100  0.67596300  0.98814800  1
  C  C43  1  0.01558300  0.17615800  0.98652400  1
  C  C44  1  0.97018100  0.17596300  0.98814800  1
  C  C45  1  0.47631400  0.83246700  0.00151000  1
  C  C46  1  0.52378100  0.83255600  0.00382300  1
  C  C47  1  0.97631400  0.33246700  0.00151000  1
  C  C48  1  0.02378100  0.33255600  0.00382300  1
  C  C49  1  0.40065900  0.84047400  0.25421200  1
  C  C50  1  0.59735200  0.83870600  0.74091600  1
  C  C51  1  0.90065900  0.34047400  0.25421200  1
  C  C52  1  0.09735200  0.33870600  0.74091600  1
  C  C53  1  0.33722300  0.84222000  0.18274200  1
  C  C54  1  0.66069100  0.84059400  0.81284600  1
  C  C55  1  0.83722300  0.34222000  0.18274200  1
  C  C56  1  0.16069100  0.34059400  0.81284600  1
  C  C57  1  0.30576600  0.87803800  0.17728900  1
  C  C58  1  0.69235100  0.87620900  0.81821900  1
  C  C59  1  0.80576600  0.37803800  0.17728900  1
  C  C60  1  0.19235100  0.37620900  0.81821900  1
  C  C61  1  0.33818600  0.90992500  0.24286600  1
  C  C62  1  0.66022400  0.90793700  0.75247900  1
  C  C63  1  0.83818600  0.40992500  0.24286600  1
  C  C64  1  0.16022400  0.40793700  0.75247900  1
  C  C65  1  0.40278500  0.90724300  0.31291200  1
  C  C66  1  0.59566800  0.90534600  0.68229200  1
  C  C67  1  0.90278500  0.40724300  0.31291200  1
  C  C68  1  0.09566800  0.40534600  0.68229200  1
  C  C69  1  0.43178900  0.87165800  0.31468100  1
  C  C70  1  0.56643300  0.86980400  0.68021000  1
  C  C71  1  0.93178900  0.37165800  0.31468100  1
  C  C72  1  0.06643300  0.36980400  0.68021000  1
  C  C73  1  0.49391300  0.85065800  0.36668400  1
  C  C74  1  0.50414600  0.84913900  0.62852400  1
  C  C75  1  0.99391300  0.35065800  0.36668400  1
  C  C76  1  0.00414600  0.34913900  0.62852400  1
  C  C77  1  0.45732600  0.81411100  0.29520700  1
  C  C78  1  0.54048900  0.81271600  0.70029100  1
  C  C79  1  0.95732600  0.31411100  0.29520700  1
  C  C80  1  0.04048900  0.31271600  0.70029100  1
  C  C81  1  0.86941000  0.74535800  0.92681500  1
  C  C82  1  0.13138800  0.74560900  0.07829900  1
  C  C83  1  0.36941000  0.24535800  0.92681500  1
  C  C84  1  0.63138800  0.24560900  0.07829900  1
  C  C85  1  0.88576900  0.74781400  0.00530200  1
  C  C86  1  0.11480800  0.74618700  0.99954600  1
  C  C87  1  0.38576900  0.24781400  0.00530200  1
  C  C88  1  0.61480800  0.24618700  0.99954600  1
  C  C89  1  0.94826800  0.74974400  0.08284800  1
  C  C90  1  0.05225400  0.74668400  0.92203900  1
  C  C91  1  0.44826800  0.24974400  0.08284800  1
  C  C92  1  0.55225400  0.24668400  0.92203900  1
  C  C93  1  0.99409200  0.74850100  0.08177600  1
  C  C94  1  0.00656600  0.74608000  0.92330400  1
  C  C95  1  0.49409200  0.24850100  0.08177600  1
  C  C96  1  0.50656600  0.24608000  0.92330400  1
  C  C97  1  0.97750400  0.74679500  0.00318100  1
  C  C98  1  0.02324100  0.74640700  0.00199500  1
  C  C99  1  0.47750400  0.24679500  0.00318100  1
  C  C100  1  0.52324100  0.24640700  0.00199500  1
  C  C101  1  0.91514700  0.74557100  0.92571100  1
  C  C102  1  0.08564700  0.74646700  0.07947900  1
  C  C103  1  0.41514700  0.24557100  0.92571100  1
  C  C104  1  0.58564700  0.24646700  0.07947900  1
  C  C105  1  0.05657500  0.74897100  0.15929500  1
  C  C106  1  0.94411800  0.74527000  0.84579400  1
  C  C107  1  0.55657500  0.24897100  0.15929500  1
  C  C108  1  0.44411800  0.24527000  0.84579400  1
  C  C109  1  0.10227200  0.74760600  0.15815900  1
  C  C110  1  0.89848100  0.74466300  0.84701500  1
  C  C111  1  0.60227200  0.24760600  0.15815900  1
  C  C112  1  0.39848100  0.24466300  0.84701500  1
  C  C113  1  0.12576600  0.62594600  0.80775200  1
  C  C114  1  0.86524300  0.62492500  0.18738400  1
  C  C115  1  0.62576600  0.12594600  0.80775200  1
  C  C116  1  0.36524300  0.12492500  0.18738400  1
  C  C117  1  0.16215800  0.65689500  0.81407200  1
  C  C118  1  0.84020800  0.66072900  0.19309500  1
  C  C119  1  0.66215800  0.15689500  0.81407200  1
  C  C120  1  0.34020800  0.16072900  0.19309500  1
  C  C121  1  0.16752100  0.65336200  0.75410100  1
  C  C122  1  0.84900700  0.66235300  0.26701700  1
  C  C123  1  0.66752100  0.15336200  0.75410100  1
  C  C124  1  0.34900700  0.16235300  0.26701700  1
  C  C125  1  0.13520100  0.62030000  0.69065200  1
  C  C126  1  0.88102800  0.62828600  0.32842400  1
  C  C127  1  0.63520100  0.12030000  0.69065200  1
  C  C128  1  0.38102800  0.12828600  0.32842400  1
  C  C129  1  0.09718300  0.59069400  0.68539500  1
  C  C130  1  0.90616500  0.59339000  0.31967200  1
  C  C131  1  0.59718300  0.09069400  0.68539500  1
  C  C132  1  0.40616500  0.09339000  0.31967200  1
  C  C133  1  0.09444000  0.59509800  0.74656900  1
  C  C134  1  0.89737700  0.59371200  0.24768300  1
  C  C135  1  0.59444000  0.09509800  0.74656900  1
  C  C136  1  0.39737700  0.09371200  0.24768300  1
  C  C137  1  0.06500000  0.57658700  0.77507600  1
  C  C138  1  0.91046000  0.56842300  0.20253800  1
  C  C139  1  0.56500000  0.07658700  0.77507600  1
  C  C140  1  0.41046000  0.06842300  0.20253800  1
  C  C141  1  0.10165300  0.61303000  0.84676600  1
  C  C142  1  0.87302700  0.60525300  0.13180400  1
  C  C143  1  0.60165300  0.11303000  0.84676600  1
  C  C144  1  0.37302700  0.10525300  0.13180400  1
  C  C145  1  0.94014800  0.55822200  0.38461700  1
  C  C146  1  0.06195500  0.55664800  0.61782200  1
  C  C147  1  0.44014800  0.05822200  0.38461700  1
  C  C148  1  0.56195500  0.05664800  0.61782200  1
  C  C149  1  0.43833400  0.94075600  0.38117500  1
  C  C150  1  0.56059500  0.93925200  0.61487100  1
  C  C151  1  0.93833400  0.44075600  0.38117500  1
  C  C152  1  0.06059500  0.43925200  0.61487100  1
  C  C153  1  0.21017100  0.68235800  0.75856300  1
  C  C154  1  0.17560000  0.72215400  0.70367900  1
  C  C155  1  0.20495000  0.75272700  0.69892100  1
  C  C156  1  0.82494200  0.69889200  0.28397500  1
  C  C157  1  0.75509700  0.69868200  0.21815100  1
  C  C158  1  0.72532500  0.72727600  0.22559100  1
  C  C159  1  0.71017100  0.18235800  0.75856300  1
  C  C160  1  0.67560000  0.22215400  0.70367900  1
  C  C161  1  0.70495000  0.25272700  0.69892100  1
  C  C162  1  0.32494200  0.19889200  0.28397500  1
  C  C163  1  0.25509700  0.19868200  0.21815100  1
  C  C164  1  0.22532500  0.22727600  0.22559100  1
  O  O1  1  0.33004000  0.76886200  0.13666500  1
  O  O2  1  0.66897600  0.76773800  0.86212000  1
  O  O3  1  0.83004000  0.26886200  0.13666500  1
  O  O4  1  0.16897600  0.26773800  0.86212000  1
  O  O5  1  0.25092000  0.81884000  0.03566800  1
  O  O6  1  0.74569800  0.81935900  0.96137100  1
  O  O7  1  0.75092000  0.31884000  0.03566800  1
  O  O8  1  0.24569800  0.31935900  0.96137100  1
  O  O9  1  0.32908300  0.71754500  0.02990800  1
  O  O10  1  0.66919800  0.71794100  0.96963900  1
  O  O11  1  0.82908300  0.21754500  0.02990800  1
  O  O12  1  0.16919800  0.21794100  0.96963900  1
  O  O13  1  0.29444500  0.78682200  0.96581100  1
  O  O14  1  0.70122800  0.78795800  0.03031800  1
  O  O15  1  0.79444500  0.28682200  0.96581100  1
  O  O16  1  0.20122800  0.28795800  0.03031800  1
  O  O17  1  0.21858200  0.67988800  0.96030700  1
  O  O18  1  0.78184800  0.68165100  0.04497700  1
  O  O19  1  0.71858200  0.17988800  0.96030700  1
  O  O20  1  0.28184800  0.18165100  0.04497700  1
  O  O21  1  0.19283300  0.73181300  0.85942700  1
  O  O22  1  0.80477200  0.73491100  0.14177500  1
  O  O23  1  0.69283300  0.23181300  0.85942700  1
  O  O24  1  0.30477200  0.23491100  0.14177500  1
  O  O25  1  0.21939300  0.73123800  0.06709400  1
  O  O26  1  0.78161900  0.73143300  0.93724600  1
  O  O27  1  0.71939300  0.23123800  0.06709400  1
  O  O28  1  0.28161900  0.23143300  0.93724600  1
  O  O29  1  0.14917600  0.76380800  0.92920200  1
  O  O30  1  0.84923200  0.76632700  0.07277800  1
  O  O31  1  0.64917600  0.26380800  0.92920200  1
  O  O32  1  0.34923200  0.26632700  0.07277800  1
  O  O33  1  0.98022700  0.53427500  0.39094200  1
  O  O34  1  0.02110900  0.53280300  0.60997100  1
  O  O35  1  0.48022700  0.03427500  0.39094200  1
  O  O36  1  0.52110900  0.03280300  0.60997100  1
  O  O37  1  0.92947900  0.55236800  0.43468400  1
  O  O38  1  0.07238900  0.55150100  0.56731400  1
  O  O39  1  0.42947900  0.05236800  0.43468400  1
  O  O40  1  0.57238900  0.05150100  0.56731400  1
  O  O41  1  0.49821600  0.94577600  0.42526300  1
  O  O42  1  0.50082900  0.94477600  0.57101300  1
  O  O43  1  0.99821600  0.44577600  0.42526300  1
  O  O44  1  0.00082900  0.44477600  0.57101300  1
  O  O45  1  0.40907400  0.96436900  0.39570700  1
  O  O46  1  0.59043600  0.96304300  0.60153300  1
  O  O47  1  0.90907400  0.46436900  0.39570700  1
  O  O48  1  0.09043600  0.46304300  0.60153300  1
