# generated using pymatgen
data_CuH6C13NO4
_symmetry_space_group_name_H-M   'P 1'
_cell_length_a   6.59461600
_cell_length_b   9.20920400
_cell_length_c   12.35408700
_cell_angle_alpha   90.10269500
_cell_angle_beta   80.31556100
_cell_angle_gamma   90.06033800
_symmetry_Int_Tables_number   1
_chemical_formula_structural   CuH6C13NO4
_chemical_formula_sum   'Cu2 H12 C26 N2 O8'
_cell_volume   739.58461301
_cell_formula_units_Z   2
loop_
 _symmetry_equiv_pos_site_id
 _symmetry_equiv_pos_as_xyz
  1  'x, y, z'
loop_
 _atom_site_type_symbol
 _atom_site_label
 _atom_site_symmetry_multiplicity
 _atom_site_fract_x
 _atom_site_fract_y
 _atom_site_fract_z
 _atom_site_occupancy
  Cu  Cu1  1  0.98662000  0.14302400  0.00472700  1
  Cu  Cu2  1  0.00679200  0.85583900  0.00800100  1
  H  H1  1  0.69237100  0.64088600  0.06820000  1
  H  H2  1  0.39034900  0.75274400  0.97793500  1
  H  H3  1  0.69836700  0.61260100  0.90997600  1
  H  H4  1  0.68244300  0.34595400  0.91230900  1
  H  H5  1  0.35918800  0.22586100  0.98558900  1
  H  H6  1  0.67674200  0.37452300  0.06870500  1
  H  H7  1  0.96163200  0.91656000  0.66207500  1
  H  H8  1  0.09939300  0.07763000  0.72567300  1
  H  H9  1  0.97240200  0.09192700  0.55008000  1
  H  H10  1  0.02681500  0.06389200  0.35677000  1
  H  H11  1  0.84471200  0.92280700  0.48771600  1
  H  H12  1  0.75813500  0.96582800  0.35187400  1
  C  C1  1  0.76003500  0.98532000  0.85733200  1
  C  C2  1  0.31197500  0.00767100  0.84962500  1
  C  C3  1  0.22827500  0.01182800  0.15704300  1
  C  C4  1  0.67377100  0.99372100  0.15782700  1
  C  C5  1  0.37618500  0.63772000  0.96702200  1
  C  C6  1  0.55242200  0.55816500  0.93384400  1
  C  C7  1  0.54362100  0.40914100  0.93544800  1
  C  C8  1  0.35847900  0.34068800  0.97003000  1
  C  C9  1  0.17743800  0.41959400  0.98848900  1
  C  C10  1  0.18663200  0.56961800  0.98843000  1
  C  C11  1  0.83120500  0.57864500  0.04259600  1
  C  C12  1  0.82188500  0.42883200  0.04168100  1
  C  C13  1  0.67282300  0.97784000  0.75574000  1
  C  C14  1  0.80388000  0.94576400  0.65961100  1
  C  C15  1  0.73680100  0.95128000  0.55994000  1
  C  C16  1  0.46897700  0.00827300  0.75152300  1
  C  C17  1  0.40371300  0.01913400  0.65146500  1
  C  C18  1  0.53682400  0.99220700  0.55473100  1
  C  C19  1  0.46572200  0.00235100  0.45515400  1
  C  C20  1  0.59576300  0.98300000  0.35608000  1
  C  C21  1  0.52293600  0.99283400  0.25816800  1
  C  C22  1  0.20161500  0.05464800  0.64956400  1
  C  C23  1  0.13067300  0.06280200  0.55120100  1
  C  C24  1  0.26196500  0.03587500  0.45420700  1
  C  C25  1  0.18797400  0.04209400  0.35623600  1
  C  C26  1  0.31710800  0.01841300  0.25780800  1
  N  N1  1  0.01185300  0.64781800  0.01214900  1
  N  N2  1  0.99391500  0.35085700  0.00969100  1
  O  O1  1  0.80390600  0.11336600  0.89563000  1
  O  O2  1  0.83588600  0.86617300  0.89307300  1
  O  O3  1  0.21401400  0.12775100  0.88149700  1
  O  O4  1  0.24544400  0.88255600  0.89219400  1
  O  O5  1  0.16266300  0.13161500  0.11738700  1
  O  O6  1  0.17876800  0.88477300  0.12079800  1
  O  O7  1  0.74748100  0.11935400  0.11939300  1
  O  O8  1  0.76435700  0.87175000  0.12243700  1
