# Generated by REPEAT Assigner based on pymatgen
data_DB0-m3_o1530_o159_f0_fsc.sym.61
_audit_creation_date              2022-05-24
_audit_creation_method            REPEAT_Assigner
_cell_length_a                    8.530171
_cell_length_b                    13.004883
_cell_length_c                    13.408820
_cell_angle_alpha                 90.937289
_cell_angle_beta                  90.074243
_cell_angle_gamma                 95.326991
_cell_volume                      1480.863939
_symmetry_space_group_name_H-M    P1
_symmetry_Int_Tables_number       1
loop_
    _symmetry_equiv_pos_site_id
    _symmetry_equiv_pos_as_xyz
    1  x,y,z
loop_
    _atom_site_type_symbol
    _atom_site_label
    _atom_site_fract_x
    _atom_site_fract_y
    _atom_site_fract_z
    _atom_type_partial_charge
    C   C1   0.018763  0.131822  0.000851  0.228744
    C   C2   0.883258  0.184197  0.999826  0.067456
    C   C3   0.736871  0.129791  0.005718  -0.190242
    C   C4   0.723844  0.023719  0.009170  -0.278078
    C   C5   0.856296  0.970528  0.005666  0.273334
    C   C6   0.004663  0.023597  0.001543  -0.057629
    C   C7   0.838726  0.863677  0.006355  -0.362309
    C   C8   0.969215  0.808338  0.005047  0.121080
    C   C9   0.117487  0.860394  0.999050  0.309046
    C   C10  0.134765  0.966637  0.995108  -0.343715
    C   C11  0.954878  0.701736  0.012166  -0.192185
    C   C12  0.087859  0.650980  0.021522  -0.143946
    C   C13  0.234684  0.701220  0.009302  0.004678
    C   C14  0.250155  0.806390  0.996362  -0.375541
    C   C15  0.165100  0.189507  0.002853  -0.310674
    C   C16  0.175067  0.294207  0.988858  -0.047074
    C   C17  0.041083  0.342548  0.976101  -0.124520
    C   C18  0.895839  0.290804  0.990000  -0.163361
    H   H1   0.630795  0.169171  0.005861  0.108649
    H   H2   0.608265  0.982209  0.012778  0.152904
    H   H3   0.076522  0.569549  0.034437  0.132798
    H   H4   0.366110  0.846348  0.987893  0.136488
    H   H5   0.252777  0.001560  0.986279  0.169845
    H   H6   0.721991  0.823985  0.010769  0.134477
    H   H7   0.274573  0.156910  0.014852  0.143741
    H   H8   0.049949  0.423605  0.961320  0.132433
    O   O1   0.749592  0.597123  0.090590  -0.754548
    O   O2   0.746723  0.610052  0.919395  -0.742566
    C   C19  0.804707  0.637875  0.007613  0.969955
    O   O3   0.719721  0.395311  0.910912  -0.776825
    O   O4   0.711690  0.382366  0.082213  -0.735862
    C   C20  0.762208  0.354042  0.994163  0.945911
    O   O5   0.381211  0.397220  0.909581  -0.746563
    O   O6   0.384627  0.383918  0.081189  -0.688810
    C   C21  0.325405  0.357421  0.992983  0.856293
    O   O7   0.411134  0.598248  0.089374  -0.742431
    O   O8   0.419856  0.611530  0.918042  -0.707727
    C   C22  0.368383  0.638905  0.005894  0.859182
    Zn  Zn1  0.566969  0.502155  0.889211  1.053068
    Zn  Zn2  0.564426  0.491776  0.111122  1.035876
    C   C23  0.551390  0.401631  0.294892  -0.242164
    N   N1   0.563169  0.488746  0.241803  0.162437
    C   C24  0.575269  0.581398  0.288423  -0.133837
    C   C25  0.576276  0.589408  0.390776  -0.132824
    C   C26  0.564757  0.501135  0.447977  -0.060136
    C   C27  0.551460  0.406595  0.398152  0.341338
    C   C28  0.582411  0.596524  0.607476  -0.166211
    C   C29  0.566945  0.504387  0.552447  0.117714
    C   C30  0.553585  0.412695  0.604345  -0.029412
    C   C31  0.537495  0.318622  0.553507  0.307559
    C   C32  0.538939  0.316193  0.450658  -0.419655
    C   C33  0.583013  0.595450  0.710182  -0.137110
    N   N2   0.568588  0.505621  0.758557  0.110177
    C   C34  0.554121  0.415237  0.707723  -0.043769
    H   H9   0.584710  0.651101  0.245226  0.156568
    H   H10  0.541871  0.344733  0.749504  0.125607
    H   H11  0.534744  0.243394  0.410255  0.197543
    H   H12  0.586045  0.666401  0.421681  0.134927
    H   H13  0.594652  0.671415  0.574356  0.146289
    H   H14  0.541500  0.327621  0.256393  0.186581
    H   H15  0.594728  0.667559  0.751954  0.163194
    N   N3   0.528268  0.225369  0.606758  -0.494920
    C   C35  0.428731  0.146810  0.570797  0.686318
    O   O9   0.320920  0.163839  0.515458  -0.536076
    C   C36  0.445125  0.039356  0.603256  -0.390562
    H   H16  0.625472  0.207224  0.645997  0.277304
    H   H17  0.434418  0.035535  0.685559  0.100914
    H   H18  0.561861  0.016278  0.580257  0.100366
    H   H19  0.351141  0.986117  0.568077  0.120488
