# generated using pymatgen
data_Zn2H21C47N3O8
_symmetry_space_group_name_H-M   'P 1'
_cell_length_a   8.51859500
_cell_length_b   10.64241500
_cell_length_c   17.49760600
_cell_angle_alpha   97.70642800
_cell_angle_beta   90.11049100
_cell_angle_gamma   90.00843900
_symmetry_Int_Tables_number   1
_chemical_formula_structural   Zn2H21C47N3O8
_chemical_formula_sum   'Zn2 H21 C47 N3 O8'
_cell_volume   1571.97506127
_cell_formula_units_Z   1
loop_
 _symmetry_equiv_pos_site_id
 _symmetry_equiv_pos_as_xyz
  1  'x, y, z'
loop_
 _atom_site_type_symbol
 _atom_site_label
 _atom_site_symmetry_multiplicity
 _atom_site_fract_x
 _atom_site_fract_y
 _atom_site_fract_z
 _atom_site_occupancy
  Zn  Zn1  1  0.49923900  0.48873300  0.08565800  1
  Zn  Zn2  1  0.50070300  0.51131000  0.91716600  1
  H  H1  1  0.61024000  0.90073200  0.01896800  1
  H  H2  1  0.99263100  0.59376400  0.05429600  1
  H  H3  1  0.00008300  0.40691800  0.94916600  1
  H  H4  1  0.25339300  0.90027300  0.99538400  1
  H  H5  1  0.25627800  0.09402300  0.00271800  1
  H  H6  1  0.53551700  0.28073000  0.17941800  1
  H  H7  1  0.55880600  0.17427200  0.29375000  1
  H  H8  1  0.43446800  0.79492000  0.32754700  1
  H  H9  1  0.58396800  0.07183100  0.40787900  1
  H  H10  1  0.58139100  0.08277900  0.54864500  1
  H  H11  1  0.40331700  0.91505900  0.45227600  1
  H  H12  1  0.40487500  0.92625600  0.59270900  1
  H  H13  1  0.55061200  0.20391500  0.67428500  1
  H  H14  1  0.43843500  0.82823000  0.70222200  1
  H  H15  1  0.46778800  0.67564800  0.20463700  1
  H  H16  1  0.52034600  0.32524100  0.79805500  1
  H  H17  1  0.75334000  0.77323800  0.84430900  1
  H  H18  1  0.68015000  0.83020500  0.75904700  1
  H  H19  1  0.65511000  0.92457000  0.85189400  1
  H  H20  1  0.40054900  0.82196900  0.82114900  1
  H  H21  1  0.49403300  0.75861500  0.89529800  1
  C  C1  1  0.99551400  0.69215500  0.04513100  1
  C  C2  1  0.13639900  0.74714300  0.03134600  1
  C  C3  1  0.14045100  0.86736900  0.01138900  1
  C  C4  1  0.85718300  0.75413100  0.03463000  1
  C  C5  1  0.86041500  0.87858300  0.01842700  1
  C  C6  1  0.00310800  0.93739300  0.00909600  1
  C  C7  1  0.00422300  0.06250300  0.99338200  1
  C  C8  1  0.14327500  0.12935200  0.98852300  1
  C  C9  1  0.14119100  0.24990900  0.96902800  1
  C  C10  1  0.72245900  0.94465100  0.01134700  1
  C  C11  1  0.86276500  0.12499700  0.98689600  1
  C  C12  1  0.86174100  0.24923100  0.97084600  1
  C  C13  1  0.00086400  0.30839800  0.95810300  1
  C  C14  1  0.27629100  0.66816700  0.02228800  1
  C  C15  1  0.28274500  0.32686000  0.97817200  1
  C  C16  1  0.72061600  0.32832700  0.98014100  1
  C  C17  1  0.71589800  0.67548900  0.02503800  1
  C  C18  1  0.51826600  0.36954400  0.21631100  1
  C  C19  1  0.47913700  0.58913000  0.23004100  1
  C  C20  1  0.54056400  0.26399200  0.32957000  1
  C  C21  1  0.51810000  0.37296100  0.29589400  1
  C  C22  1  0.49555400  0.48670800  0.34217100  1
  C  C23  1  0.47527000  0.59513900  0.30884800  1
  C  C24  1  0.45137500  0.70979300  0.35402900  1
  C  C25  1  0.56375600  0.16168700  0.44319800  1
  C  C26  1  0.54013600  0.26987900  0.40915400  1
  C  C27  1  0.51674200  0.38431000  0.45497000  1
  C  C28  1  0.56220000  0.16790400  0.52254100  1
  C  C29  1  0.53772900  0.28242400  0.56825200  1
  C  C30  1  0.49457300  0.49265000  0.42130000  1
  C  C31  1  0.47184000  0.60728500  0.46675700  1
  C  C32  1  0.44889300  0.71575400  0.43306600  1
  C  C33  1  0.42360900  0.83008400  0.47839300  1
  C  C34  1  0.51615400  0.39073000  0.53437400  1
  C  C35  1  0.49498700  0.50572700  0.57993600  1
  C  C36  1  0.47269100  0.61367700  0.54590500  1
  C  C37  1  0.45079600  0.72820500  0.59111600  1
  C  C38  1  0.42448800  0.83628500  0.55742400  1
  C  C39  1  0.53517600  0.28909600  0.64768800  1
  C  C40  1  0.51534200  0.40469100  0.69316800  1
  C  C41  1  0.49710400  0.51289600  0.65940400  1
  C  C42  1  0.48222400  0.62811900  0.70538900  1
  C  C43  1  0.45602000  0.73584600  0.67015800  1
  C  C44  1  0.51255900  0.41184400  0.77245900  1
  C  C45  1  0.49341900  0.63397000  0.78550400  1
  C  C46  1  0.50135700  0.76226000  0.83359700  1
  C  C47  1  0.65677300  0.82662200  0.82086600  1
  N  N1  1  0.72609300  0.06558800  0.99647600  1
  N  N2  1  0.49777900  0.47742200  0.18475200  1
  N  N3  1  0.50261500  0.52457600  0.81806600  1
  O  O1  1  0.32805200  0.63498500  0.95215100  1
  O  O2  1  0.33224700  0.62208600  0.08250800  1
  O  O3  1  0.33239400  0.36046900  0.04908000  1
  O  O4  1  0.33830800  0.37367500  0.91779800  1
  O  O5  1  0.67011700  0.36318100  0.05076500  1
  O  O6  1  0.66659100  0.37677400  0.91991600  1
  O  O7  1  0.66775300  0.63919500  0.95445100  1
  O  O8  1  0.66155200  0.62636900  0.08451700  1
