# Generated by REPEAT Assigner based on pymatgen
data_DB0-m3_o10_o18_f0_pcu.sym.29_sqe
_audit_creation_date              2022-05-24
_audit_creation_method            REPEAT_Assigner
_cell_length_a                    7.836234
_cell_length_b                    8.929068
_cell_length_c                    14.593068
_cell_angle_alpha                 91.743170
_cell_angle_beta                  95.456437
_cell_angle_gamma                 91.457225
_cell_volume                      1015.572054
_symmetry_space_group_name_H-M    P1
_symmetry_Int_Tables_number       1
loop_
    _symmetry_equiv_pos_site_id
    _symmetry_equiv_pos_as_xyz
    1  x,y,z
loop_
    _atom_site_type_symbol
    _atom_site_label
    _atom_site_fract_x
    _atom_site_fract_y
    _atom_site_fract_z
    _atom_type_partial_charge
    O   O1   0.889890  0.732741  0.514832  -0.566443
    O   O2   0.113629  0.260781  0.490160  -0.564569
    O   O3   0.178719  0.705142  0.500309  -0.712518
    O   O4   0.824800  0.288381  0.504684  -0.713095
    C   C1   0.044758  0.788662  0.508578  0.787961
    C   C2   0.958761  0.204860  0.496415  0.789142
    O   O5   0.903014  0.508078  0.647000  -0.635953
    O   O6   0.100505  0.485444  0.357992  -0.632987
    O   O7   0.191432  0.478818  0.631175  -0.672057
    O   O8   0.812087  0.514705  0.373818  -0.666609
    C   C3   0.062644  0.491470  0.681870  0.674331
    C   C4   0.940875  0.502053  0.323123  0.669132
    Zn  Zn1  0.810950  0.514701  0.512515  1.008430
    Zn  Zn2  0.192569  0.478822  0.492478  1.008199
    C   C5   0.103239  0.500538  0.782175  -0.124753
    C   C6   0.900281  0.492991  0.222816  -0.121128
    C   C7   0.030616  0.586842  0.928485  -0.437078
    C   C8   0.972909  0.406698  0.076505  -0.438269
    C   C9   0.982622  0.548547  0.837772  0.076086
    C   C10  0.020902  0.444988  0.167220  0.073738
    C   C11  0.267296  0.472557  0.820389  -0.150723
    C   C12  0.736225  0.520972  0.184602  -0.150022
    C   C13  0.315689  0.503201  0.913828  -0.035231
    C   C14  0.687835  0.490336  0.091162  -0.027615
    C   C15  0.196208  0.566541  0.965813  0.395816
    C   C16  0.807318  0.426999  0.039177  0.389521
    C   C17  0.480325  0.476264  0.956053  0.041709
    C   C18  0.523200  0.517274  0.048937  0.037564
    C   C19  0.400854  0.585772  0.097522  -0.133491
    C   C20  0.602672  0.407768  0.907468  -0.132633
    C   C21  0.239395  0.608335  0.056329  -0.324330
    C   C22  0.764132  0.385206  0.948660  -0.321825
    H   H1   0.145662  0.660451  0.095736  0.155958
    H   H2   0.857864  0.333089  0.909254  0.155717
    H   H3   0.650426  0.564874  0.230897  0.107781
    H   H4   0.353092  0.428648  0.774095  0.111249
    H   H5   0.151522  0.432976  0.194928  0.081364
    H   H6   0.852000  0.560558  0.810064  0.081192
    H   H7   0.938254  0.635098  0.970346  0.182274
    H   H8   0.065272  0.358444  0.034644  0.184799
    H   H9   0.424657  0.624927  0.167852  0.135637
    H   H10  0.578871  0.368615  0.837137  0.133542
    C   C23  0.068783  0.952602  0.509290  -0.279281
    C   C24  0.934736  0.040920  0.495702  -0.280352
    H   H11  0.196212  0.002729  0.521191  0.150738
    H   H12  0.807307  0.990793  0.483801  0.151355
    N   N1   0.443750  0.456559  0.480493  -0.039048
    N   N2   0.559769  0.536963  0.524499  -0.039557
    N   N3   0.504612  0.342999  0.427492  0.136746
    C   C25  0.464665  0.193676  0.457275  -0.075680
    C   C26  0.363515  0.091101  0.384743  0.294320
    O   O9   0.413365  0.114828  0.297432  -0.478101
    C   C27  0.360992  0.258366  0.277852  0.138555
    C   C28  0.484104  0.369420  0.330031  -0.050963
    H   H13  0.397932  0.201175  0.520686  0.043504
    H   H14  0.586018  0.137776  0.474838  0.050736
    H   H15  0.223233  0.100276  0.385426  0.008813
    H   H16  0.392089  0.973925  0.401415  0.007288
    H   H17  0.229223  0.275094  0.296220  0.011757
    H   H18  0.364920  0.274365  0.203029  0.065818
    H   H19  0.438479  0.484530  0.318694  0.056712
    H   H20  0.608649  0.354372  0.301783  0.097112
    N   N4   0.498907  0.650524  0.577500  0.139964
    C   C29  0.519416  0.624104  0.674962  -0.042858
    C   C30  0.642526  0.735160  0.727139  0.126904
    O   O10  0.590152  0.878697  0.707559  -0.477720
    C   C31  0.640002  0.902424  0.620249  0.300996
    C   C32  0.538854  0.799847  0.547717  -0.084944
    H   H21  0.565042  0.508995  0.686298  0.054739
    H   H22  0.394871  0.639150  0.703210  0.097268
    H   H23  0.774295  0.718432  0.708771  0.015728
    H   H24  0.638599  0.719161  0.801963  0.068488
    H   H25  0.780285  0.893250  0.619565  0.008090
    H   H26  0.611426  0.019599  0.603575  0.005749
    H   H27  0.605587  0.792347  0.484306  0.044965
    H   H28  0.417500  0.855746  0.530152  0.052341
