# Generated by REPEAT Assigner based on pymatgen
data_DB0-m29_o90_o1500_f0_pts.sym.3
_audit_creation_date              2022-05-24
_audit_creation_method            REPEAT_Assigner
_cell_length_a                    16.356303
_cell_length_b                    16.752712
_cell_length_c                    13.239960
_cell_angle_alpha                 106.443996
_cell_angle_beta                  91.678843
_cell_angle_gamma                 115.824286
_cell_volume                      3082.712061
_symmetry_space_group_name_H-M    P1
_symmetry_Int_Tables_number       1
loop_
    _symmetry_equiv_pos_site_id
    _symmetry_equiv_pos_as_xyz
    1  x,y,z
loop_
    _atom_site_type_symbol
    _atom_site_label
    _atom_site_fract_x
    _atom_site_fract_y
    _atom_site_fract_z
    _atom_type_partial_charge
    H   H1   0.380226  0.949243  0.992519  0.135070
    C   C1   0.289027  0.978015  0.087368  -0.127584
    C   C2   0.213208  0.994703  0.092394  0.228444
    C   C3   0.162531  0.982425  0.997381  -0.132585
    C   C4   0.195975  0.966377  0.902300  -0.144088
    H   H2   0.160371  0.962935  0.829897  0.121297
    C   C5   0.274448  0.954444  0.899588  0.065235
    C   C6   0.317026  0.955082  0.991343  -0.120523
    C   C7   0.004374  0.935371  0.037569  -0.249935
    H   H3   0.010135  0.884590  0.068714  0.134355
    C   C8   0.925936  0.946929  0.042615  -0.101923
    H   H4   0.870874  0.904325  0.076592  0.126972
    C   C9   0.917170  0.010836  0.002240  0.074440
    C   C10  0.986990  0.061935  0.955414  -0.145630
    H   H5   0.981231  0.112307  0.923488  0.117414
    C   C11  0.066412  0.052075  0.952841  -0.202496
    H   H6   0.121716  0.095076  0.919454  0.142189
    C   C12  0.076347  0.990128  0.995929  0.279983
    C   C13  0.796295  0.032017  0.098952  -0.175259
    H   H7   0.828659  0.029926  0.169834  0.123292
    C   C14  0.717343  0.043386  0.100555  0.066765
    C   C15  0.677420  0.046997  0.009528  -0.136349
    H   H8   0.613468  0.051304  0.007174  0.141587
    C   C16  0.711125  0.032357  0.915766  0.031532
    C   C17  0.789171  0.020408  0.913919  -0.186018
    H   H9   0.813446  0.005702  0.839146  0.128012
    C   C18  0.833625  0.022914  0.006022  0.107059
    O   O1   0.591077  0.047129  0.183146  -0.574184
    C   C19  0.667951  0.040531  0.191562  0.563104
    O   O2   0.516917  0.837752  0.196547  -0.496046
    O   O3   0.692350  0.019018  0.271352  -0.475340
    O   O4   0.502599  0.921514  0.356173  -0.539073
    C   C20  0.511658  0.849256  0.297953  0.582406
    Fe  Fe1  0.505593  0.010759  0.283474  1.464562
    O   O5   0.377505  0.942090  0.197649  -0.627894
    O   O6   0.409786  0.093629  0.230658  -0.510714
    C   C21  0.353763  0.004088  0.183211  0.729253
    O   O7   0.546501  0.135100  0.397995  -0.607136
    O   O8   0.415835  0.044768  0.448347  -0.485480
    C   C22  0.489774  0.125616  0.467088  0.697039
    O   O9   0.457155  0.856586  0.605229  -0.639742
    O   O10  0.578068  0.954498  0.547682  -0.461555
    C   C23  0.511377  0.869945  0.533739  0.726771
    O   O11  0.605932  0.056789  0.814807  -0.607200
    O   O12  0.624546  0.926524  0.744799  -0.491271
    C   C24  0.652061  0.009422  0.816427  0.640737
    O   O13  0.305803  0.987652  0.734754  -0.468830
    O   O14  0.482871  0.063985  0.640346  -0.519047
    C   C25  0.491132  0.144595  0.702332  0.576842
    O   O15  0.390584  0.933424  0.807845  -0.572037
    C   C26  0.321047  0.952975  0.806292  0.536266
    O   O16  0.497413  0.161090  0.805973  -0.485774
    Fe  Fe2  0.482924  0.978261  0.717033  1.464304
    C   C27  0.497563  0.209298  0.549345  -0.099672
    C   C28  0.505417  0.282142  0.514548  0.110415
    H   H10  0.506490  0.273568  0.430722  0.082593
    C   C29  0.506939  0.362041  0.583206  -0.452452
    C   C30  0.503647  0.370146  0.689515  0.144160
    H   H11  0.505088  0.431981  0.745612  0.039771
    C   C31  0.498315  0.298862  0.726024  -0.193555
    H   H12  0.496388  0.308012  0.809870  0.150770
    C   C32  0.494421  0.217183  0.657083  0.081532
    N   N1   0.505921  0.511681  0.606914  -0.243226
    N   N2   0.505937  0.576564  0.568698  -0.248652
    C   C33  0.508997  0.567002  0.464616  0.790922
    N   N3   0.512385  0.490984  0.399721  -0.246848
    N   N4   0.512329  0.426104  0.437915  -0.236122
    C   C34  0.509133  0.435570  0.541933  0.780716
    C   C35  0.513860  0.631345  0.316403  0.141911
    H   H13  0.516185  0.571090  0.261599  0.039341
    C   C36  0.515410  0.700484  0.278286  -0.179082
    H   H14  0.518067  0.691201  0.194534  0.146792
    C   C37  0.513322  0.779647  0.345201  0.066152
    C   C38  0.509562  0.788119  0.453113  -0.096642
    C   C39  0.506020  0.717330  0.489525  0.118231
    H   H15  0.503873  0.725603  0.573141  0.084773
    C   C40  0.509174  0.639376  0.422483  -0.461962
    C   C41  0.191921  0.030067  0.200859  -0.354335
    H   H16  0.137030  0.051415  0.198709  0.108638
    H   H17  0.171580  0.975018  0.239400  0.110280
    H   H18  0.253501  0.093938  0.251814  0.094337
