# generated using pymatgen
data_Zn2H18C29(NO4)2
_symmetry_space_group_name_H-M   'P 1'
_cell_length_a   16.13172900
_cell_length_b   10.97723400
_cell_length_c   9.84847200
_cell_angle_alpha   90.00452400
_cell_angle_beta   90.01207400
_cell_angle_gamma   90.00624200
_symmetry_Int_Tables_number   1
_chemical_formula_structural   Zn2H18C29(NO4)2
_chemical_formula_sum   'Zn2 H18 C29 N2 O8'
_cell_volume   1743.98474052
_cell_formula_units_Z   1
loop_
 _symmetry_equiv_pos_site_id
 _symmetry_equiv_pos_as_xyz
  1  'x, y, z'
loop_
 _atom_site_type_symbol
 _atom_site_label
 _atom_site_symmetry_multiplicity
 _atom_site_fract_x
 _atom_site_fract_y
 _atom_site_fract_z
 _atom_site_occupancy
  Zn  Zn1  1  0.50168100  0.49908400  0.65417000  1
  Zn  Zn2  1  0.49881400  0.49841000  0.34475300  1
  H  H1  1  0.07408500  0.49825100  0.71804300  1
  H  H2  1  0.92162200  0.49641000  0.71329200  1
  H  H3  1  0.92647800  0.49819700  0.28073200  1
  H  H4  1  0.07894000  0.50003800  0.28548400  1
  H  H5  1  0.49497900  0.11030700  0.28099100  1
  H  H6  1  0.49643100  0.88903600  0.27957800  1
  H  H7  1  0.44934800  0.88537100  0.80726700  1
  H  H8  1  0.56622500  0.88848300  0.80034400  1
  H  H9  1  0.44711500  0.10607300  0.80872200  1
  H  H10  1  0.56397200  0.10916700  0.80178200  1
  H  H11  1  0.60748900  0.59603400  0.13525400  1
  H  H12  1  0.31410000  0.44121100  0.86519500  1
  H  H13  1  0.37085800  0.29105200  0.86350400  1
  H  H14  1  0.30905500  0.43621800  0.11175400  1
  H  H15  1  0.36632000  0.28618200  0.11178900  1
  H  H16  1  0.61631900  0.67510500  0.78632100  1
  H  H17  1  0.66748900  0.67542800  0.94719900  1
  H  H18  1  0.68199400  0.54772500  0.83692100  1
  C  C1  1  0.49880700  0.26040900  0.50068400  1
  C  C2  1  0.33833500  0.50071800  0.50403300  1
  C  C3  1  0.50142000  0.73713100  0.49783000  1
  C  C4  1  0.66222600  0.49636700  0.49459900  1
  C  C5  1  0.95620000  0.49716500  0.61928700  1
  C  C6  1  0.91481500  0.49711100  0.49672800  1
  C  C7  1  0.95889700  0.49816700  0.37680700  1
  C  C8  1  0.04436200  0.49925000  0.37948900  1
  C  C9  1  0.08574700  0.49932100  0.50204700  1
  C  C10  1  0.04166600  0.49824800  0.62196900  1
  C  C11  1  0.82587300  0.49639000  0.49425300  1
  C  C12  1  0.17468900  0.50019800  0.50451000  1
  C  C13  1  0.24938400  0.50065700  0.50529000  1
  C  C14  1  0.75117700  0.49612400  0.49343100  1
  C  C15  1  0.50183100  0.05874000  0.61531100  1
  C  C16  1  0.49901300  0.12697100  0.49870600  1
  C  C17  1  0.49718300  0.06278100  0.37699900  1
  C  C18  1  0.49811400  0.93577700  0.37610900  1
  C  C19  1  0.50105600  0.87053500  0.49690900  1
  C  C20  1  0.50295800  0.93768300  0.61444400  1
  C  C21  1  0.50645800  0.92641700  0.76441700  1
  C  C22  1  0.50508200  0.06850300  0.76539000  1
  C  C23  1  0.43943600  0.44501300  0.06209200  1
  C  C24  1  0.55940100  0.55255600  0.07629200  1
  C  C25  1  0.56381000  0.55420900  0.93428600  1
  C  C26  1  0.44263500  0.44728700  0.92856800  1
  C  C27  1  0.36286500  0.38229300  0.90967200  1
  C  C28  1  0.35947800  0.37916100  0.06920300  1
  C  C29  1  0.63636000  0.61651900  0.87132400  1
  N  N1  1  0.49645700  0.49684000  0.14166900  1
  N  N2  1  0.50387600  0.50001900  0.85761400  1
  O  O1  1  0.49982500  0.31719200  0.61841400  1
  O  O2  1  0.49818900  0.31722900  0.38339200  1
  O  O3  1  0.37771700  0.50013000  0.62089100  1
  O  O4  1  0.37574300  0.50006600  0.38559300  1
  O  O5  1  0.50203300  0.68036400  0.61504600  1
  O  O6  1  0.50022100  0.68002500  0.38093800  1
  O  O7  1  0.62457900  0.49643500  0.61222800  1
  O  O8  1  0.62271200  0.49700700  0.37849100  1
