# Generated by REPEAT Assigner based on pymatgen
data_DB0-m3_o152_o1_f0_fsc.sym.30
_audit_creation_date              2022-05-24
_audit_creation_method            REPEAT_Assigner
_cell_length_a                    8.509427
_cell_length_b                    9.208370
_cell_length_c                    13.053020
_cell_angle_alpha                 90.581885
_cell_angle_beta                  86.482684
_cell_angle_gamma                 93.270876
_cell_volume                      1019.195519
_symmetry_space_group_name_H-M    P1
_symmetry_Int_Tables_number       1
loop_
    _symmetry_equiv_pos_site_id
    _symmetry_equiv_pos_as_xyz
    1  x,y,z
loop_
    _atom_site_type_symbol
    _atom_site_label
    _atom_site_fract_x
    _atom_site_fract_y
    _atom_site_fract_z
    _atom_type_partial_charge
    C   C1   0.873347  0.996084  0.291265  -0.104779
    C   C2   0.126652  0.003915  0.708735  -0.104698
    C   C3   0.000343  0.974588  0.347057  -0.156726
    C   C4   0.999657  0.025412  0.652943  -0.156832
    C   C5   0.149810  0.983920  0.302465  -0.018367
    C   C6   0.850190  0.016080  0.697535  -0.018326
    C   C7   0.173767  0.997639  0.198195  -0.303537
    C   C8   0.826232  0.002361  0.801805  -0.303542
    C   C9   0.045575  0.998089  0.136815  0.147608
    C   C10  0.954425  0.001910  0.863185  0.147542
    C   C11  0.895105  0.004740  0.184929  0.122434
    C   C12  0.104895  0.995259  0.815071  0.122466
    C   C13  0.065190  0.994895  0.029162  -0.003446
    C   C14  0.934810  0.005104  0.970838  -0.003288
    C   C15  0.787777  0.022060  0.021463  -0.099118
    C   C16  0.212223  0.977939  0.978536  -0.099032
    C   C17  0.768255  0.018997  0.126673  -0.297434
    C   C18  0.231744  0.981003  0.873327  -0.297470
    H   H1   0.981506  0.955949  0.427677  0.132790
    H   H2   0.018494  0.044051  0.572323  0.132873
    H   H3   0.294623  0.009244  0.169337  0.186143
    H   H4   0.705376  0.990756  0.830663  0.186212
    H   H5   0.316919  0.960158  0.017322  0.088705
    H   H6   0.683081  0.039842  0.982678  0.088671
    H   H7   0.348405  0.971189  0.837263  0.222087
    H   H8   0.651594  0.028811  0.162736  0.222146
    O   O1   0.663364  0.883652  0.600766  -0.578020
    O   O2   0.336636  0.116347  0.399234  -0.578096
    O   O3   0.668766  0.134463  0.600456  -0.684808
    O   O4   0.331234  0.865536  0.399544  -0.684725
    C   C19  0.717891  0.011379  0.632056  0.764849
    C   C20  0.282109  0.988621  0.367944  0.764908
    O   O5   0.677095  0.127229  0.387305  -0.588427
    O   O6   0.322904  0.872771  0.612695  -0.588224
    O   O7   0.660326  0.876531  0.388005  -0.654690
    O   O8   0.339674  0.123468  0.611995  -0.654790
    C   C21  0.721453  0.000668  0.351145  0.701566
    C   C22  0.278547  0.999331  0.648854  0.701466
    Zn  Zn1  0.506237  0.162106  0.497521  0.968680
    Zn  Zn2  0.493762  0.837893  0.502479  0.968463
    C   C23  0.502523  0.427171  0.409162  -0.057085
    C   C24  0.497477  0.572829  0.590838  -0.056896
    C   C25  0.492993  0.576184  0.412717  0.048023
    C   C26  0.507007  0.423816  0.587283  0.047890
    H   H9   0.489505  0.635914  0.342127  0.065190
    H   H10  0.510495  0.364086  0.657872  0.065210
    N   N1   0.489794  0.647321  0.503438  0.117341
    N   N2   0.510205  0.352678  0.496562  0.117410
    I   I1   0.504921  0.317250  0.266992  -0.019135
    I   I2   0.495079  0.682749  0.733007  -0.019181
