# generated using pymatgen
data_Zn2H26C41N2O9
_symmetry_space_group_name_H-M   'P 1'
_cell_length_a   13.59841400
_cell_length_b   14.04979200
_cell_length_c   15.20012000
_cell_angle_alpha   90.00475500
_cell_angle_beta   89.98758500
_cell_angle_gamma   74.06794700
_symmetry_Int_Tables_number   1
_chemical_formula_structural   Zn2H26C41N2O9
_chemical_formula_sum   'Zn2 H26 C41 N2 O9'
_cell_volume   2792.50618889
_cell_formula_units_Z   1
loop_
 _symmetry_equiv_pos_site_id
 _symmetry_equiv_pos_as_xyz
  1  'x, y, z'
loop_
 _atom_site_type_symbol
 _atom_site_label
 _atom_site_symmetry_multiplicity
 _atom_site_fract_x
 _atom_site_fract_y
 _atom_site_fract_z
 _atom_site_occupancy
  Zn  Zn1  1  0.49900600  0.39385000  0.50304100  1
  Zn  Zn2  1  0.49579900  0.61119100  0.50579600  1
  H  H1  1  0.17350900  0.72627500  0.43781600  1
  H  H2  1  0.84697500  0.70198700  0.38416700  1
  H  H3  1  0.99361000  0.75753600  0.40111000  1
  H  H4  1  0.17872300  0.44379300  0.53709800  1
  H  H5  1  0.81460100  0.28184300  0.57206000  1
  H  H6  1  0.09680900  0.34599200  0.56910900  1
  H  H7  1  0.99650700  0.23695200  0.60106800  1
  H  H8  1  0.75412700  0.58355600  0.40711500  1
  H  H9  1  0.45138700  0.36702000  0.94558600  1
  H  H10  1  0.45196700  0.36422800  0.78637800  1
  H  H11  1  0.53574800  0.63603200  0.78263400  1
  H  H12  1  0.54197300  0.63599800  0.94088600  1
  H  H13  1  0.44396400  0.66125000  0.06475700  1
  H  H14  1  0.45097100  0.66255500  0.22357600  1
  H  H15  1  0.55530000  0.34655600  0.22527100  1
  H  H16  1  0.55500600  0.34480800  0.06654300  1
  H  H17  1  0.53550900  0.92531200  0.64642200  1
  H  H18  1  0.53235300  0.75278800  0.64410300  1
  H  H19  1  0.46610400  0.77187100  0.37323500  1
  H  H20  1  0.47457500  0.94106000  0.36991900  1
  H  H21  1  0.37956100  0.09293600  0.41481000  1
  H  H22  1  0.61354800  0.21783700  0.59511600  1
  H  H23  1  0.62208400  0.04239800  0.60180600  1
  H  H24  1  0.36410000  0.35397600  0.38163000  1
  H  H25  1  0.27974000  0.28004800  0.40613900  1
  H  H26  1  0.37978700  0.29196800  0.26297600  1
  C  C1  1  0.49266600  0.49994500  0.67655400  1
  C  C2  1  0.69806800  0.44886100  0.50740000  1
  C  C3  1  0.50290300  0.50491400  0.33225200  1
  C  C4  1  0.29725500  0.55628200  0.50018900  1
  C  C5  1  0.03281000  0.68853600  0.43251900  1
  C  C6  1  0.18599200  0.58159000  0.48951200  1
  C  C7  1  0.85810500  0.33183600  0.55169200  1
  C  C8  1  0.96074400  0.30665900  0.56923800  1
  C  C9  1  0.01782300  0.37090500  0.55027300  1
  C  C10  1  0.97389100  0.46124200  0.50902600  1
  C  C11  1  0.87021200  0.48429200  0.48692900  1
  C  C12  1  0.03043300  0.52920300  0.48943000  1
  C  C13  1  0.98189200  0.61780500  0.44873000  1
  C  C14  1  0.88275000  0.63549700  0.42069500  1
  C  C15  1  0.82858600  0.56840100  0.43691700  1
  C  C16  1  0.13437300  0.51166100  0.50830700  1
  C  C17  1  0.13426000  0.67125800  0.45379200  1
  C  C18  1  0.81091100  0.42131500  0.51274700  1
  C  C19  1  0.47223100  0.42562700  0.91078500  1
  C  C20  1  0.47157000  0.42430800  0.81997400  1
  C  C21  1  0.49330500  0.50012600  0.77298700  1
  C  C22  1  0.51674700  0.57661500  0.81775000  1
  C  C23  1  0.51942400  0.57698100  0.90832400  1
  C  C24  1  0.49668100  0.50180000  0.95591900  1
  C  C25  1  0.47111200  0.59149300  0.09880700  1
  C  C26  1  0.47432400  0.59243600  0.18950400  1
  C  C27  1  0.50354300  0.50472600  0.23585200  1
  C  C28  1  0.53098400  0.41616800  0.19051000  1
  C  C29  1  0.52975200  0.41522000  0.09984800  1
  C  C30  1  0.49905400  0.50284400  0.05297500  1
  C  C31  1  0.52167400  0.89263700  0.58493100  1
  C  C32  1  0.51840700  0.79513700  0.58390300  1
  C  C33  1  0.48162500  0.80548500  0.43358400  1
  C  C34  1  0.48533800  0.90235800  0.43209400  1
  C  C35  1  0.50424100  0.94778400  0.50842800  1
  C  C36  1  0.43433200  0.11786000  0.45348400  1
  C  C37  1  0.43303800  0.21597100  0.44867500  1
  C  C38  1  0.56270800  0.18978200  0.55431000  1
  C  C39  1  0.56677600  0.09036000  0.55889100  1
  C  C40  1  0.50218700  0.05324300  0.50749700  1
  C  C41  1  0.35850000  0.27798000  0.38537700  1
  N  N1  1  0.49763100  0.75313500  0.50889700  1
  N  N2  1  0.49698800  0.25178900  0.49954800  1
  O  O1  1  0.49648500  0.41707300  0.63474600  1
  O  O2  1  0.49107900  0.58283800  0.63612900  1
  O  O3  1  0.65170800  0.37793900  0.50716500  1
  O  O4  1  0.64764200  0.54294200  0.50896900  1
  O  O5  1  0.50409700  0.42237600  0.37273700  1
  O  O6  1  0.49956300  0.58732100  0.37418700  1
  O  O7  1  0.34711400  0.46227100  0.50151700  1
  O  O8  1  0.34312600  0.62723400  0.50144900  1
  O  O9  1  0.37651700  0.23624000  0.30165600  1
