# Generated by REPEAT Assigner based on pymatgen
data_DB0-m29_o80_o150_f0_pts.sym.108
_audit_creation_date              2022-05-24
_audit_creation_method            REPEAT_Assigner
_cell_length_a                    14.013986
_cell_length_b                    9.312301
_cell_length_c                    21.625574
_cell_angle_alpha                 93.879486
_cell_angle_beta                  90.209435
_cell_angle_gamma                 69.051863
_cell_volume                      2628.978194
_symmetry_space_group_name_H-M    P1
_symmetry_Int_Tables_number       1
loop_
    _symmetry_equiv_pos_site_id
    _symmetry_equiv_pos_as_xyz
    1  x,y,z
loop_
    _atom_site_type_symbol
    _atom_site_label
    _atom_site_fract_x
    _atom_site_fract_y
    _atom_site_fract_z
    _atom_type_partial_charge
    H   H1   0.071990  0.261312  0.824360  0.198645
    C   C1   0.296961  0.862590  0.077843  -0.171278
    C   C2   0.260010  0.758655  0.101038  -0.279842
    C   C3   0.163823  0.790448  0.077827  0.510081
    N   N1   0.140736  0.906216  0.039716  -0.529999
    C   C4   0.222830  0.949927  0.039504  0.463329
    C   C5   0.100530  0.723078  0.095702  -0.374741
    C   C6   0.991777  0.776996  0.081392  0.372400
    C   C7   0.918443  0.774391  0.122759  -0.287467
    C   C8   0.826071  0.837115  0.094717  -0.102621
    C   C9   0.846564  0.873605  0.036487  0.284344
    N   N2   0.948446  0.837186  0.028748  -0.361848
    C   C10  0.769443  0.943935  0.990483  -0.273359
    C   C11  0.780270  0.045760  0.953582  0.461682
    C   C12  0.706355  0.132509  0.914958  -0.165168
    C   C13  0.743367  0.236275  0.891678  -0.285365
    C   C14  0.839377  0.204954  0.915102  0.511016
    N   N3   0.862305  0.089625  0.953416  -0.528685
    C   C15  0.902580  0.272606  0.897345  -0.373499
    C   C16  0.011217  0.219519  0.911947  0.372777
    C   C17  0.084580  0.222921  0.870784  -0.291754
    C   C18  0.176883  0.160458  0.898926  -0.098786
    C   C19  0.156320  0.123299  0.957006  0.280064
    N   N4   0.054461  0.159093  0.964577  -0.356724
    C   C20  0.233486  0.052368  0.002877  -0.274343
    H   H2   0.296861  0.674549  0.133914  0.166315
    H   H3   0.126784  0.639582  0.130395  0.171795
    H   H4   0.931118  0.736142  0.169203  0.192378
    H   H5   0.697774  0.924524  0.990637  0.188976
    H   H6   0.706585  0.320158  0.858708  0.176567
    H   H7   0.876386  0.355856  0.862556  0.172545
    H   H8   0.305171  0.071712  0.002734  0.190830
    H   H9   0.987345  0.846184  0.989087  0.302419
    H   H10  0.015523  0.149362  0.004095  0.299321
    O   O1   0.498607  0.889762  0.758952  -0.508551
    O   O2   0.443080  0.776580  0.833144  -0.484874
    C   C21  0.474047  0.774228  0.775774  0.489880
    O   O3   0.362687  0.073206  0.893744  -0.595821
    O   O4   0.272844  0.149062  0.807084  -0.544160
    C   C22  0.274355  0.127536  0.866422  0.658043
    O   O5   0.572285  0.112478  0.730527  -0.527853
    O   O6   0.595171  0.995098  0.880867  -0.642040
    C   C23  0.606752  0.126254  0.897943  0.697219
    O   O7   0.424795  0.242287  0.785182  -0.538263
    C   C24  0.493001  0.238929  0.743360  0.643404
    O   O8   0.536086  0.255010  0.883371  -0.577473
    Fe  Fe1  0.471355  0.051311  0.829771  1.455812
    O   O9   0.577137  0.756660  0.208190  -0.539132
    C   C25  0.505567  0.759422  0.247505  0.633458
    O   O10  0.466723  0.741084  0.110431  -0.577764
    O   O11  0.424456  0.884768  0.257598  -0.548095
    O   O12  0.408055  0.000800  0.111175  -0.649789
    C   C26  0.396405  0.869230  0.094991  0.707599
    Fe  Fe2  0.530826  0.946806  0.163158  1.454196
    O   O13  0.640366  0.925327  0.099909  -0.604115
    O   O14  0.730045  0.847822  0.186510  -0.548644
    C   C27  0.728604  0.870182  0.127253  0.670015
    O   O15  0.501358  0.109328  0.233685  -0.520966
    O   O16  0.573924  0.213509  0.164936  -0.477360
    C   C28  0.533518  0.220053  0.220167  0.504988
    H   H11  0.531720  0.489938  0.188788  0.198958
    C   C29  0.519835  0.356386  0.263519  0.026551
    C   C30  0.508861  0.358086  0.327963  -0.041672
    C   C31  0.502741  0.489851  0.365038  0.172195
    C   C32  0.499956  0.620567  0.338027  -0.363260
    H   H12  0.490201  0.725127  0.366179  0.202315
    C   C33  0.511046  0.619000  0.275250  0.133700
    C   C34  0.523644  0.487067  0.238308  -0.223366
    C   C35  0.433439  0.446829  0.464748  -0.016014
    H   H13  0.380215  0.405171  0.440251  0.023988
    C   C36  0.430986  0.457119  0.528639  -0.157864
    H   H14  0.378471  0.417644  0.552653  0.114064
    C   C37  0.492658  0.520647  0.561763  0.069782
    C   C38  0.556104  0.575990  0.530357  -0.225216
    H   H15  0.605609  0.624253  0.555606  0.135953
    C   C39  0.560293  0.562495  0.466328  -0.002092
    H   H16  0.612866  0.601858  0.442320  0.071090
    C   C40  0.500070  0.495952  0.433111  -0.022581
    C   C41  0.496454  0.385310  0.654499  -0.206402
    H   H17  0.504054  0.283353  0.624909  0.128408
    C   C42  0.487702  0.381229  0.717281  0.071268
    C   C43  0.477388  0.509753  0.755945  -0.212220
    H   H18  0.471049  0.503228  0.805369  0.198354
    C   C44  0.481866  0.641436  0.732213  0.080384
    C   C45  0.490782  0.645623  0.668349  -0.180003
    H   H19  0.490283  0.749690  0.648817  0.138994
    C   C46  0.494014  0.518555  0.629444  0.135276
    C   C47  0.512978  0.220764  0.358455  0.048660
    C   C48  0.590895  0.157109  0.398761  -0.054800
    C   C49  0.589955  0.038680  0.433386  0.025568
    Cl  Cl1  0.689079  0.958263  0.484437  -0.074702
    C   C50  0.509889  0.985834  0.428801  -0.075248
    C   C51  0.431199  0.050502  0.389168  -0.176304
    C   C52  0.432482  0.168245  0.354201  0.128527
    H   H20  0.652512  0.200937  0.403600  0.077634
    H   H21  0.508171  0.895148  0.456920  0.089771
    H   H22  0.367517  0.010860  0.386334  0.110327
    H   H23  0.368603  0.222930  0.325134  0.060255
