# Generated by REPEAT Assigner based on pymatgen
data_DB0-m3_o9_o16_f0_pcu.sym.43_sqe
_audit_creation_date              2022-05-24
_audit_creation_method            REPEAT_Assigner
_cell_length_a                    9.081597
_cell_length_b                    13.660970
_cell_length_c                    13.818782
_cell_angle_alpha                 93.441921
_cell_angle_beta                  104.097804
_cell_angle_gamma                 75.737551
_cell_volume                      1611.518884
_symmetry_space_group_name_H-M    P1
_symmetry_Int_Tables_number       1
loop_
    _symmetry_equiv_pos_site_id
    _symmetry_equiv_pos_as_xyz
    1  x,y,z
loop_
    _atom_site_type_symbol
    _atom_site_label
    _atom_site_fract_x
    _atom_site_fract_y
    _atom_site_fract_z
    _atom_type_partial_charge
    O   O1   0.681796  0.351364  0.513536  -0.739405
    O   O2   0.420260  0.355551  0.491506  -0.569600
    C   C1   0.565112  0.305257  0.497383  0.770915
    O   O3   0.665459  0.501113  0.657455  -0.730188
    O   O4   0.408245  0.505325  0.646571  -0.626409
    C   C2   0.550688  0.504204  0.699798  0.726763
    Zn  Zn1  0.653199  0.503285  0.509517  1.149075
    Zn  Zn2  0.317153  0.504471  0.497013  1.108507
    O   O5   0.549914  0.652515  0.511800  -0.604562
    O   O6   0.288779  0.656383  0.495721  -0.688286
    O   O7   0.563514  0.499895  0.359850  -0.616395
    O   O8   0.303119  0.509968  0.349212  -0.722390
    C   C3   0.405495  0.701922  0.509176  0.709610
    C   C4   0.418594  0.506327  0.307654  0.662256
    C   C5   0.172995  0.572404  0.052835  -0.189569
    H   H1   0.128854  0.566391  0.194311  0.118097
    H   H2   0.108043  0.614743  0.865787  0.128327
    H   H3   0.050176  0.600621  0.018759  0.090224
    C   C6   0.375243  0.519802  0.198780  0.001127
    C   C7   0.752349  0.465497  0.853432  -0.001338
    C   C8   0.806621  0.451057  0.953965  -0.050281
    C   C9   0.705169  0.467233  0.014994  -0.220897
    C   C10  0.545176  0.502661  0.976592  0.076226
    C   C11  0.489769  0.521143  0.873611  0.121863
    C   C12  0.439526  0.520651  0.038864  0.076748
    C   C13  0.281896  0.557269  0.996365  0.190909
    C   C14  0.230419  0.581650  0.897100  -0.211316
    C   C15  0.332829  0.565837  0.836675  -0.217912
    C   C16  0.485366  0.503610  0.142272  -0.259975
    C   C17  0.218607  0.552580  0.152909  -0.058799
    C   C18  0.593947  0.497998  0.810590  -0.180072
    H   H4   0.604700  0.477236  0.182375  0.159413
    H   H5   0.838501  0.449015  0.809448  0.079540
    H   H6   0.758815  0.452055  0.092510  0.134449
    H   H7   0.930731  0.425018  0.985367  0.093961
    H   H8   0.285066  0.592785  0.761512  0.176063
    C   C19  0.273038  0.954995  0.616946  -0.227161
    H   H9   0.229369  0.810651  0.626016  0.076512
    H   H10  0.261956  0.141601  0.657589  0.129525
    H   H11  0.199768  0.988595  0.667048  0.120276
    C   C20  0.380766  0.811130  0.529355  -0.075069
    C   C21  0.685113  0.155386  0.412493  -0.000998
    C   C22  0.704748  0.056046  0.384171  -0.122142
    C   C23  0.629099  0.994437  0.418057  -0.165454
    C   C24  0.530878  0.031255  0.482108  0.072528
    C   C25  0.512638  0.132637  0.511743  0.154062
    C   C26  0.450582  0.969674  0.517370  0.018180
    C   C27  0.353133  0.011633  0.579688  0.219750
    C   C28  0.337183  0.110414  0.608395  -0.238869
    C   C29  0.418015  0.169708  0.577306  -0.151591
    C   C30  0.464141  0.867299  0.493374  -0.196563
    C   C31  0.288096  0.854924  0.593016  -0.060469
    C   C32  0.591434  0.194933  0.477119  -0.255349
    H   H12  0.538023  0.827681  0.446527  0.142665
    H   H13  0.741143  0.203123  0.381638  0.082328
    H   H14  0.649974  0.918122  0.391015  0.111384
    H   H15  0.778565  0.026236  0.333364  0.106548
    H   H16  0.405774  0.244589  0.608252  0.111846
    H   H17  0.074420  0.831038  0.207383  0.100522
    C   C33  0.178699  0.747597  0.342949  -0.446214
    H   H18  0.292648  0.751960  0.335636  0.114236
    C   C34  0.151716  0.707461  0.426380  1.105321
    H   H19  0.097024  0.774001  0.462121  -0.155083
    C   C35  0.028073  0.659288  0.398311  -0.516497
    C   C36  0.901925  0.699403  0.320928  -0.044237
    H   H20  0.794837  0.674255  0.308057  0.052794
    C   C37  0.912705  0.769463  0.257595  -0.120719
    H   H21  0.815474  0.799410  0.196036  0.065804
    C   C38  0.055705  0.789183  0.265429  -0.088950
    C   C39  0.954756  0.498639  0.407069  0.069244
    H   H22  0.932637  0.492968  0.326692  0.073189
    N   N1   0.930234  0.426426  0.459007  -0.529590
    C   C40  0.957979  0.432415  0.558938  0.377529
    C   C41  0.011405  0.513280  0.607669  0.163626
    H   H23  0.029841  0.520942  0.687713  0.077133
    N   N2   0.037316  0.584841  0.555807  -0.628616
    C   C42  0.010625  0.578424  0.456073  0.539910
    C   C43  0.054845  0.321092  0.702795  -0.000939
    H   H24  0.156140  0.352554  0.719666  0.035694
    C   C44  0.040228  0.255252  0.769597  0.003812
    C   C45  0.900851  0.227176  0.751500  -0.140337
    H   H25  0.874833  0.183082  0.804564  0.115857
    C   C46  0.785925  0.260609  0.667157  -0.444621
    H   H26  0.673782  0.248653  0.668530  0.109188
    C   C47  0.817087  0.301792  0.585789  1.066155
    H   H27  0.875032  0.235866  0.550660  -0.143706
    C   C48  0.937835  0.352469  0.617246  -0.458624
    C   C49  0.161191  0.227241  0.863509  0.038177
    C   C50  0.120041  0.212244  0.950918  -0.088122
    C   C51  0.233012  0.186456  0.038214  0.028849
    Cl  Cl1  0.178496  0.168522  0.147759  -0.113489
    C   C52  0.388232  0.175602  0.039771  -0.053079
    C   C53  0.430488  0.191351  0.953981  -0.167531
    C   C54  0.318027  0.217378  0.866525  -0.149156
    H   H28  0.999401  0.223069  0.953737  0.085957
    H   H29  0.476566  0.155425  0.108299  0.082353
    H   H30  0.552350  0.183244  0.955110  0.121012
    H   H31  0.355978  0.228428  0.800752  0.124530
