# generated using pymatgen
data_Zn2H20C33(NO4)2
_symmetry_space_group_name_H-M   'P 1'
_cell_length_a   8.52704400
_cell_length_b   12.03744300
_cell_length_c   13.14062600
_cell_angle_alpha   107.51418300
_cell_angle_beta   84.72631500
_cell_angle_gamma   90.00392400
_symmetry_Int_Tables_number   1
_chemical_formula_structural   Zn2H20C33(NO4)2
_chemical_formula_sum   'Zn2 H20 C33 N2 O8'
_cell_volume   1280.29108631
_cell_formula_units_Z   1
loop_
 _symmetry_equiv_pos_site_id
 _symmetry_equiv_pos_as_xyz
  1  'x, y, z'
loop_
 _atom_site_type_symbol
 _atom_site_label
 _atom_site_symmetry_multiplicity
 _atom_site_fract_x
 _atom_site_fract_y
 _atom_site_fract_z
 _atom_site_occupancy
  Zn  Zn1  1  0.49145000  0.12565000  0.53063300  1
  Zn  Zn2  1  0.50201600  0.86540300  0.46295200  1
  H  H1  1  0.78948400  0.96373700  0.14882000  1
  H  H2  1  0.16356600  0.93522800  0.96851200  1
  H  H3  1  0.82960500  0.04559300  0.02307900  1
  H  H4  1  0.20415100  0.01819100  0.84368100  1
  H  H5  1  0.29411600  0.96566200  0.13566800  1
  H  H6  1  0.01663700  0.03012000  0.43191000  1
  H  H7  1  0.69925700  0.01669000  0.85644700  1
  H  H8  1  0.97690200  0.96899400  0.56248400  1
  H  H9  1  0.53578100  0.71140200  0.26591800  1
  H  H10  1  0.54353000  0.30661500  0.23475100  1
  H  H11  1  0.48188800  0.70496000  0.57991000  1
  H  H12  1  0.45750600  0.27888800  0.72858800  1
  H  H13  1  0.46273800  0.61027700  0.68545900  1
  H  H14  1  0.44406200  0.49061800  0.80075400  1
  H  H15  1  0.52467300  0.20032400  0.35177700  1
  H  H16  1  0.44681500  0.41642800  0.14258800  1
  H  H17  1  0.65879000  0.42409500  0.14153900  1
  H  H18  1  0.43754800  0.60788500  0.09963000  1
  H  H19  1  0.77579000  0.51403900  0.02420600  1
  H  H20  1  0.66333700  0.62337400  0.98180800  1
  C  C1  1  0.16906200  0.99040100  0.28999400  1
  C  C2  1  0.17980500  0.97379700  0.18066700  1
  C  C3  1  0.04297000  0.97369100  0.13032300  1
  C  C4  1  0.89726700  0.97534800  0.18737600  1
  C  C5  1  0.88899300  0.99185500  0.29592400  1
  C  C6  1  0.02392400  0.00789900  0.34662800  1
  C  C7  1  0.05486100  0.96989100  0.01681600  1
  C  C8  1  0.93813300  0.01073000  0.97464400  1
  C  C9  1  0.81354800  0.01099000  0.81186100  1
  C  C10  1  0.82414600  0.00012200  0.70356400  1
  C  C11  1  0.96956100  0.98665400  0.64734400  1
  C  C12  1  0.10474900  0.99863000  0.69777600  1
  C  C13  1  0.09633800  0.00921800  0.80530500  1
  C  C14  1  0.95044800  0.00923400  0.86173000  1
  C  C15  1  0.30431300  0.99034100  0.35122800  1
  C  C16  1  0.25407200  0.99898700  0.63412100  1
  C  C17  1  0.68829000  0.00033000  0.64267700  1
  C  C18  1  0.74028800  0.99168300  0.35998700  1
  C  C19  1  0.52953400  0.53818800  0.28111100  1
  C  C20  1  0.46686600  0.33075400  0.67411900  1
  C  C21  1  0.45917800  0.44992800  0.71495600  1
  C  C22  1  0.47021700  0.51784900  0.64746000  1
  C  C23  1  0.48947900  0.46598900  0.53702700  1
  C  C24  1  0.49701800  0.34433100  0.49867500  1
  C  C25  1  0.50117900  0.53203500  0.46412500  1
  C  C26  1  0.51930000  0.47525700  0.35452100  1
  C  C27  1  0.52752800  0.35547300  0.31857300  1
  C  C28  1  0.51661700  0.29182000  0.38887200  1
  C  C29  1  0.49545800  0.65368800  0.49714600  1
  C  C30  1  0.52496900  0.65822900  0.31897700  1
  C  C31  1  0.54647400  0.47582700  0.16252700  1
  C  C32  1  0.54361600  0.55648900  0.09571000  1
  C  C33  1  0.66852900  0.56482400  0.03007000  1
  N  N1  1  0.50807100  0.71279300  0.42466800  1
  N  N2  1  0.48552200  0.27865300  0.56760800  1
  O  O1  1  0.35118400  0.89095600  0.36201200  1
  O  O2  1  0.34746400  0.09092300  0.41218300  1
  O  O3  1  0.30558600  0.09943200  0.62631100  1
  O  O4  1  0.31785700  0.89791800  0.57634900  1
  O  O5  1  0.64124900  0.10044400  0.63239600  1
  O  O6  1  0.64445600  0.89904500  0.58223400  1
  O  O7  1  0.68866400  0.89190600  0.36814000  1
  O  O8  1  0.67701400  0.09210400  0.41825500  1
