# generated using pymatgen
data_Zn2H26C53(NO4)2
_symmetry_space_group_name_H-M   'P 1'
_cell_length_a   8.53138500
_cell_length_b   12.99616400
_cell_length_c   17.53522400
_cell_angle_alpha   90.94497400
_cell_angle_beta   90.08132300
_cell_angle_gamma   95.33133600
_symmetry_Int_Tables_number   1
_chemical_formula_structural   Zn2H26C53(NO4)2
_chemical_formula_sum   'Zn2 H26 C53 N2 O8'
_cell_volume   1935.54040963
_cell_formula_units_Z   1
loop_
 _symmetry_equiv_pos_site_id
 _symmetry_equiv_pos_as_xyz
  1  'x, y, z'
loop_
 _atom_site_type_symbol
 _atom_site_label
 _atom_site_symmetry_multiplicity
 _atom_site_fract_x
 _atom_site_fract_y
 _atom_site_fract_z
 _atom_site_occupancy
  Zn  Zn1  1  0.55323000  0.50923600  0.91276100  1
  Zn  Zn2  1  0.55064300  0.49570900  0.08229100  1
  H  H1  1  0.61715000  0.17483000  0.00013500  1
  H  H2  1  0.59455900  0.98784900  0.00651400  1
  H  H3  1  0.06238000  0.57468900  0.02552100  1
  H  H4  1  0.35222000  0.85159700  0.98935400  1
  H  H5  1  0.23905600  0.00690700  0.98705200  1
  H  H6  1  0.70822100  0.82953700  0.00617700  1
  H  H7  1  0.26071000  0.16259200  0.00782400  1
  H  H8  1  0.03656700  0.42956700  0.96628200  1
  H  H9  1  0.56027300  0.76467100  0.68684200  1
  H  H10  1  0.62505700  0.75905900  0.44070300  1
  H  H11  1  0.55574300  0.76389200  0.55173100  1
  H  H12  1  0.54499200  0.25515500  0.69048400  1
  H  H13  1  0.48855000  0.24128900  0.44301000  1
  H  H14  1  0.49132000  0.24100000  0.30815300  1
  H  H15  1  0.54592900  0.24549100  0.55569300  1
  H  H16  1  0.54511600  0.35202200  0.80647100  1
  H  H17  1  0.57850500  0.65173800  0.18624900  1
  H  H18  1  0.56266200  0.67580700  0.80539100  1
  H  H19  1  0.51598700  0.32920900  0.18998700  1
  H  H20  1  0.35930300  0.77699700  0.36459900  1
  H  H21  1  0.31835500  0.89731800  0.32478700  1
  H  H22  1  0.43386700  0.89754800  0.41100500  1
  H  H23  1  0.53934400  0.02203000  0.28342600  1
  H  H24  1  0.77406100  0.03604100  0.20230200  1
  H  H25  1  0.92396800  0.88537200  0.18171800  1
  H  H26  1  0.84050200  0.72129400  0.24349600  1
  C  C1  1  0.00503200  0.13739600  0.99688900  1
  C  C2  1  0.86961100  0.18982000  0.99568300  1
  C  C3  1  0.72321300  0.13543900  0.00037100  1
  C  C4  1  0.71014200  0.02933800  0.00362700  1
  C  C5  1  0.84256400  0.97608000  0.00147500  1
  C  C6  1  0.99092200  0.02912700  0.99815500  1
  C  C7  1  0.82497500  0.86918700  0.00271600  1
  C  C8  1  0.95544200  0.81380200  0.00234000  1
  C  C9  1  0.10369400  0.86581800  0.99767100  1
  C  C10  1  0.12101700  0.97207000  0.99388500  1
  C  C11  1  0.94101400  0.70720100  0.00837500  1
  C  C12  1  0.07388500  0.65632200  0.01588900  1
  C  C13  1  0.22077500  0.70659900  0.00656600  1
  C  C14  1  0.23627200  0.81173100  0.99610400  1
  C  C15  1  0.15131000  0.19511100  0.99828700  1
  C  C16  1  0.16138600  0.29978800  0.98718600  1
  C  C17  1  0.02753300  0.34826500  0.97720900  1
  C  C18  1  0.88223600  0.29644000  0.98771700  1
  C  C19  1  0.79083300  0.64342900  0.00433100  1
  C  C20  1  0.74868200  0.35970100  0.99145100  1
  C  C21  1  0.31169700  0.36292200  0.99091000  1
  C  C22  1  0.35442200  0.64426400  0.00339600  1
  C  C23  1  0.55919200  0.60305300  0.77437700  1
  C  C24  1  0.54966600  0.42298800  0.77496900  1
  C  C25  1  0.55360100  0.50878800  0.65581700  1
  C  C26  1  0.55850900  0.60126900  0.69548200  1
  C  C27  1  0.56028600  0.69171800  0.65632500  1
  C  C28  1  0.54919300  0.41924700  0.69642800  1
  C  C29  1  0.56927700  0.59440100  0.45713200  1
  C  C30  1  0.53640500  0.40811000  0.45826800  1
  C  C31  1  0.55308400  0.49994600  0.41840600  1
  C  C32  1  0.59661900  0.68407300  0.41509000  1
  C  C33  1  0.59957600  0.68087000  0.33676600  1
  C  C34  1  0.57517000  0.58721600  0.29832100  1
  C  C35  1  0.55372700  0.49731300  0.33909000  1
  C  C36  1  0.53268800  0.40454500  0.29957800  1
  C  C37  1  0.53204300  0.40217800  0.22078700  1
  C  C38  1  0.56993200  0.58238900  0.21942800  1
  C  C39  1  0.56158300  0.59740900  0.53677000  1
  C  C40  1  0.55294300  0.50573300  0.57659800  1
  C  C41  1  0.54370000  0.41105100  0.53801300  1
  C  C42  1  0.56085400  0.69018500  0.57791600  1
  C  C43  1  0.54555300  0.32583900  0.65880100  1
  C  C44  1  0.51191000  0.31530800  0.41705900  1
  C  C45  1  0.51063100  0.31400900  0.33871500  1
  C  C46  1  0.54341100  0.32133100  0.58051900  1
  C  C47  1  0.63969600  0.77782300  0.29678800  1
  C  C48  1  0.55533600  0.86304500  0.30858900  1
  C  C49  1  0.40872200  0.85759900  0.35535300  1
  C  C50  1  0.60476100  0.95549200  0.27460300  1
  C  C51  1  0.73639600  0.96347000  0.22888000  1
  C  C52  1  0.82006600  0.87901800  0.21716300  1
  C  C53  1  0.77239700  0.78675100  0.25142900  1
  N  N1  1  0.55456700  0.51410900  0.81283800  1
  N  N2  1  0.54967500  0.49085900  0.18210500  1
  O  O1  1  0.73574400  0.60143000  0.06739500  1
  O  O2  1  0.73282700  0.61699300  0.93660400  1
  O  O3  1  0.70625300  0.40220600  0.92828300  1
  O  O4  1  0.69785400  0.38662800  0.05899900  1
  O  O5  1  0.36767500  0.40384900  0.92756000  1
  O  O6  1  0.37086700  0.38812600  0.05856400  1
  O  O7  1  0.39724800  0.60250300  0.06685000  1
  O  O8  1  0.40598400  0.61821100  0.93590600  1
