# generated using pymatgen
data_Zn2H23C33N3O8
_symmetry_space_group_name_H-M   'P 1'
_cell_length_a   8.53627100
_cell_length_b   11.34548300
_cell_length_c   13.38585300
_cell_angle_alpha   90.84346700
_cell_angle_beta   90.06085500
_cell_angle_gamma   107.84569900
_symmetry_Int_Tables_number   1
_chemical_formula_structural   Zn2H23C33N3O8
_chemical_formula_sum   'Zn2 H23 C33 N3 O8'
_cell_volume   1233.86411432
_cell_formula_units_Z   1
loop_
 _symmetry_equiv_pos_site_id
 _symmetry_equiv_pos_as_xyz
  1  'x, y, z'
loop_
 _atom_site_type_symbol
 _atom_site_label
 _atom_site_symmetry_multiplicity
 _atom_site_fract_x
 _atom_site_fract_y
 _atom_site_fract_z
 _atom_site_occupancy
  Zn  Zn1  1  0.99936200  0.50597000  0.88824900  1
  Zn  Zn2  1  0.00152400  0.48487400  0.11037300  1
  H  H1  1  0.71467700  0.01283200  0.93849800  1
  H  H2  1  0.06014800  0.88385000  0.98087900  1
  H  H3  1  0.94114500  0.10800500  0.02280800  1
  H  H4  1  0.28620000  0.98035800  0.06702600  1
  H  H5  1  0.54205500  0.58424300  0.05367400  1
  H  H6  1  0.42300800  0.89476200  0.94384300  1
  H  H7  1  0.45869200  0.40466800  0.94216400  1
  H  H8  1  0.57805100  0.09811800  0.06038200  1
  H  H9  1  0.08876100  0.67048100  0.24072900  1
  H  H10  1  0.94026100  0.32310300  0.75009400  1
  H  H11  1  0.90610100  0.20292300  0.59913700  1
  H  H12  1  0.09894000  0.69453700  0.41625100  1
  H  H13  1  0.01781500  0.69678500  0.55993600  1
  H  H14  1  0.93060800  0.28241900  0.26087300  1
  H  H15  1  0.10955700  0.75625600  0.82368200  1
  H  H16  1  0.91169800  0.75217100  0.77277100  1
  H  H17  1  0.03807700  0.87231700  0.63494200  1
  H  H18  1  0.23288600  0.84135200  0.65578700  1
  H  H19  1  0.27406600  0.96418700  0.81174700  1
  H  H20  1  0.07326000  0.98525600  0.79823200  1
  H  H21  1  0.36052900  0.07230800  0.65111300  1
  H  H22  1  0.29853800  0.16858800  0.74203800  1
  H  H23  1  0.16119600  0.09678400  0.64039500  1
  C  C1  1  0.58058200  0.68082100  0.03388500  1
  C  C2  1  0.74539300  0.74212200  0.02147800  1
  C  C3  1  0.79630800  0.86539200  0.99506100  1
  C  C4  1  0.67875700  0.92055400  0.96828000  1
  C  C5  1  0.51344100  0.85406900  0.97088200  1
  C  C6  1  0.46398100  0.73581000  0.00789500  1
  C  C7  1  0.97317400  0.93454600  0.99347700  1
  C  C8  1  0.02782700  0.05708700  0.01013900  1
  C  C9  1  0.25520000  0.24825200  0.97785400  1
  C  C10  1  0.42014400  0.30877400  0.96392200  1
  C  C11  1  0.53707700  0.25447400  0.99138500  1
  C  C12  1  0.48760800  0.13778400  0.03153200  1
  C  C13  1  0.32224600  0.07162300  0.03527200  1
  C  C14  1  0.20461700  0.12606300  0.00720000  1
  C  C15  1  0.29156500  0.65982600  0.00529400  1
  C  C16  1  0.14454900  0.32384900  0.98313600  1
  C  C17  1  0.70980900  0.33043800  0.99357300  1
  C  C18  1  0.85599400  0.66678900  0.01588300  1
  C  C19  1  0.96518600  0.37275500  0.29679800  1
  C  C20  1  0.05235000  0.58809900  0.28534600  1
  C  C21  1  0.05410500  0.60133600  0.38720100  1
  C  C22  1  0.00565600  0.49782600  0.44659900  1
  C  C23  1  0.96706000  0.38263500  0.40037900  1
  C  C24  1  0.01646100  0.61648600  0.60085500  1
  C  C25  1  0.99893800  0.50611000  0.55037700  1
  C  C26  1  0.96714200  0.40032500  0.60508300  1
  C  C27  1  0.93356500  0.28692100  0.55648000  1
  C  C28  1  0.01933500  0.62293100  0.70436300  1
  C  C29  1  0.96625200  0.40754000  0.70831000  1
  C  C30  1  0.03585000  0.74600900  0.75512700  1
  C  C31  1  0.12392700  0.85706200  0.69191200  1
  C  C32  1  0.18019500  0.97274300  0.75747800  1
  C  C33  1  0.25495500  0.08485200  0.69337900  1
  N  N1  1  0.00550100  0.47560600  0.24098000  1
  N  N2  1  0.93160800  0.27980700  0.45585900  1
  N  N3  1  0.99588900  0.51734600  0.75742400  1
  O  O1  1  0.22393300  0.60979300  0.08857100  1
  O  O2  1  0.21939700  0.63173900  0.91797200  1
  O  O3  1  0.11364400  0.37546300  0.90114100  1
  O  O4  1  0.10608100  0.35360200  0.07311100  1
  O  O5  1  0.77722600  0.38038300  0.90970500  1
  O  O6  1  0.78190700  0.35824700  0.08134800  1
  O  O7  1  0.88698000  0.61506700  0.09714500  1
  O  O8  1  0.89392700  0.63636900  0.92651600  1
