data_DB0-m29_o96_o420_f0_pts.sym.44_repeat
_audit_creation_date              2024-02-24
_audit_creation_method            'Materials Studio'
_symmetry_space_group_name_H-M    'P1'
_symmetry_Int_Tables_number       1
_symmetry_cell_setting            triclinic
loop_
_symmetry_equiv_pos_as_xyz
  x,y,z
_cell_length_a                    17.0679
_cell_length_b                    11.9332
_cell_length_c                    19.5041
_cell_angle_alpha                 91.0967
_cell_angle_beta                  90.7011
_cell_angle_gamma                 68.6561
loop_
_atom_site_label
_atom_site_type_symbol
_atom_site_fract_x
_atom_site_fract_y
_atom_site_fract_z
_atom_site_U_iso_or_equiv
_atom_site_adp_type
_atom_site_occupancy
C1     C     0.79218   0.98170   0.89300   0.00000  Uiso   1.00
C2     C     0.85241   0.93029   0.84525   0.00000  Uiso   1.00
C3     C     0.92784   0.92714   0.87281   0.00000  Uiso   1.00
N1     N     0.91610   0.97174   0.93760   0.00000  Uiso   1.00
C4     C     0.83291   0.00404   0.95034   0.00000  Uiso   1.00
C5     C     0.00004   0.89384   0.83828   0.00000  Uiso   1.00
C6     C     0.07570   0.91434   0.86249   0.00000  Uiso   1.00
C7     C     0.13237   0.93544   0.81981   0.00000  Uiso   1.00
C8     C     0.19320   0.95156   0.85980   0.00000  Uiso   1.00
C9     C     0.17236   0.94061   0.92713   0.00000  Uiso   1.00
N2     N     0.10071   0.91646   0.92823   0.00000  Uiso   1.00
C10    C     0.22025   0.95460   0.98787   0.00000  Uiso   1.00
C11    C     0.18457   0.99485   0.04858   0.00000  Uiso   1.00
C12    C     0.22484   0.02064   0.10519   0.00000  Uiso   1.00
C13    C     0.16506   0.06932   0.15365   0.00000  Uiso   1.00
C14    C     0.09031   0.06729   0.12719   0.00000  Uiso   1.00
N3     N     0.10204   0.02264   0.06239   0.00000  Uiso   1.00
C15    C     0.01908   0.09467   0.16262   0.00000  Uiso   1.00
C16    C     0.94473   0.07111   0.13773   0.00000  Uiso   1.00
C17    C     0.89023   0.04236   0.17927   0.00000  Uiso   1.00
C18    C     0.82864   0.02999   0.13864   0.00000  Uiso   1.00
C19    C     0.84684   0.05056   0.07217   0.00000  Uiso   1.00
N4     N     0.91767   0.07677   0.07211   0.00000  Uiso   1.00
C20    C     0.79738   0.04359   0.01108   0.00000  Uiso   1.00
H1     H     0.00052   0.86362   0.78570   0.00000  Uiso   1.00
H2     H     0.28569   0.94221   0.98084   0.00000  Uiso   1.00
H3     H     0.01862   0.12276   0.21567   0.00000  Uiso   1.00
H4     H     0.73145   0.05863   0.01781   0.00000  Uiso   1.00
H5     H     0.07238   0.89653   0.97089   0.00000  Uiso   1.00
H6     H     0.94385   0.10312   0.03028   0.00000  Uiso   1.00
C21    C     0.89275   0.02355   0.24853   0.00000  Uiso   1.00
C22    C     0.82945   0.99290   0.27654   0.00000  Uiso   1.00
C23    C     0.76476   0.98201   0.23574   0.00000  Uiso   1.00
C24    C     0.76430   0.00013   0.16536   0.00000  Uiso   1.00
C25    C     0.70812   0.00638   0.87891   0.00000  Uiso   1.00
C26    C     0.68746   0.97354   0.81450   0.00000  Uiso   1.00
C27    C     0.75039   0.91548   0.76722   0.00000  Uiso   1.00
C28    C     0.83351   0.89491   0.78187   0.00000  Uiso   1.00
C29    C     0.13210   0.94478   0.74986   0.00000  Uiso   1.00
C30    C     0.19685   0.96977   0.72038   0.00000  Uiso   1.00
C31    C     0.26057   0.98509   0.76045   0.00000  Uiso   1.00
C32    C     0.25889   0.97649   0.83156   0.00000  Uiso   1.00
C33    C     0.30857   0.99946   0.11832   0.00000  Uiso   1.00
C34    C     0.32951   0.03368   0.18223   0.00000  Uiso   1.00
C35    C     0.26698   0.09050   0.23001   0.00000  Uiso   1.00
C36    C     0.18404   0.10697   0.21649   0.00000  Uiso   1.00
H7     H     0.94241   0.03168   0.28072   0.00000  Uiso   1.00
H8     H     0.71508   0.99160   0.13275   0.00000  Uiso   1.00
H9     H     0.65970   0.05155   0.91581   0.00000  Uiso   1.00
H10    H     0.73508   0.89041   0.71673   0.00000  Uiso   1.00
H11    H     0.88090   0.85316   0.74366   0.00000  Uiso   1.00
H12    H     0.08305   0.93377   0.71808   0.00000  Uiso   1.00
H13    H     0.30728   0.98901   0.86354   0.00000  Uiso   1.00
H14    H     0.35688   0.95463   0.08127   0.00000  Uiso   1.00
H15    H     0.28299   0.11612   0.28015   0.00000  Uiso   1.00
H16    H     0.13682   0.14689   0.25512   0.00000  Uiso   1.00
H17    H     0.83070   0.97931   0.33120   0.00000  Uiso   1.00
H18    H     0.19709   0.97634   0.66523   0.00000  Uiso   1.00
O1     O     0.49155   0.92427   0.60032   0.00000  Uiso   1.00
O2     O     0.52982   0.76160   0.66985   0.00000  Uiso   1.00
C37    C     0.51856   0.80712   0.60818   0.00000  Uiso   1.00
O3     O     0.39584   0.01045   0.75888   0.00000  Uiso   1.00
O4     O     0.32719   0.01546   0.65854   0.00000  Uiso   1.00
C38    C     0.32941   0.00689   0.72554   0.00000  Uiso   1.00
O5     O     0.58059   0.13934   0.65412   0.00000  Uiso   1.00
O6     O     0.58669   0.94357   0.73961   0.00000  Uiso   1.00
C39    C     0.60017   0.00401   0.79230   0.00000  Uiso   1.00
O7     O     0.44054   0.18393   0.65509   0.00000  Uiso   1.00
C40    C     0.50511   0.21046   0.63536   0.00000  Uiso   1.00
O8     O     0.54055   0.10164   0.81529   0.00000  Uiso   1.00
Fe1    Fe    0.47942   0.01700   0.68899   0.00000  Uiso   1.00
O9     O     0.56521   0.80195   0.33433   0.00000  Uiso   1.00
C41    C     0.49806   0.79464   0.36363   0.00000  Uiso   1.00
O10    O     0.47357   0.89753   0.18304   0.00000  Uiso   1.00
O11    O     0.42647   0.88560   0.35767   0.00000  Uiso   1.00
O12    O     0.43430   0.06058   0.25492   0.00000  Uiso   1.00
C42    C     0.41727   0.00027   0.20370   0.00000  Uiso   1.00
Fe2    Fe    0.53932   0.96931   0.30462   0.00000  Uiso   1.00
O13    O     0.62666   0.96607   0.23583   0.00000  Uiso   1.00
O14    O     0.69945   0.94105   0.33563   0.00000  Uiso   1.00
C43    C     0.69590   0.95783   0.26922   0.00000  Uiso   1.00
O15    O     0.53433   0.05330   0.39543   0.00000  Uiso   1.00
O16    O     0.54338   0.20122   0.32796   0.00000  Uiso   1.00
C44    C     0.53733   0.16086   0.38902   0.00000  Uiso   1.00
C45    C     0.51065   0.72356   0.42593   0.00000  Uiso   1.00
C46    C     0.49486   0.61744   0.43058   0.00000  Uiso   1.00
C47    C     0.50859   0.55670   0.49381   0.00000  Uiso   1.00
C48    C     0.52418   0.61606   0.55170   0.00000  Uiso   1.00
H19    H     0.53378   0.57603   0.60154   0.00000  Uiso   1.00
C49    C     0.52440   0.73104   0.54730   0.00000  Uiso   1.00
C50    C     0.52355   0.77993   0.48430   0.00000  Uiso   1.00
C51    C     0.49325   0.38844   0.56385   0.00000  Uiso   1.00
H20    H     0.47846   0.44354   0.60977   0.00000  Uiso   1.00
C52    C     0.49912   0.27004   0.56945   0.00000  Uiso   1.00
C53    C     0.51206   0.19770   0.51207   0.00000  Uiso   1.00
C54    C     0.52617   0.23851   0.44986   0.00000  Uiso   1.00
C55    C     0.53032   0.35130   0.44561   0.00000  Uiso   1.00
H21    H     0.55257   0.37428   0.39859   0.00000  Uiso   1.00
C56    C     0.50831   0.43179   0.50091   0.00000  Uiso   1.00
H22    H     0.52734   0.86790   0.47997   0.00000  Uiso   1.00
H23    H     0.51482   0.10644   0.51750   0.00000  Uiso   1.00
C57    C     0.45257   0.58346   0.37193   0.00000  Uiso   1.00
C58    C     0.37405   0.57707   0.38050   0.00000  Uiso   1.00
C59    C     0.33327   0.54655   0.32592   0.00000  Uiso   1.00
C60    C     0.37081   0.52210   0.26228   0.00000  Uiso   1.00
C61    C     0.32752   0.48890   0.20294   0.00000  Uiso   1.00
C62    C     0.44914   0.52832   0.25350   0.00000  Uiso   1.00
C63    C     0.48990   0.55904   0.30801   0.00000  Uiso   1.00
H24    H     0.34386   0.59701   0.43000   0.00000  Uiso   1.00
H25    H     0.27181   0.54221   0.33349   0.00000  Uiso   1.00
H26    H     0.26556   0.48799   0.21866   0.00000  Uiso   1.00
H27    H     0.36691   0.39821   0.18334   0.00000  Uiso   1.00
H28    H     0.31808   0.55535   0.16170   0.00000  Uiso   1.00
H29    H     0.47886   0.50878   0.20380   0.00000  Uiso   1.00
H30    H     0.55184   0.56185   0.30068   0.00000  Uiso   1.00
