# Generated by REPEAT Assigner based on pymatgen
data_DB0-m2_o11_o14_f0_nbo.sym.65
_audit_creation_date              2022-05-24
_audit_creation_method            REPEAT_Assigner
_cell_length_a                    19.038268
_cell_length_b                    18.843156
_cell_length_c                    18.844409
_cell_angle_alpha                 70.827795
_cell_angle_beta                  69.883865
_cell_angle_gamma                 109.340082
_cell_volume                      5189.912968
_symmetry_space_group_name_H-M    P1
_symmetry_Int_Tables_number       1
loop_
    _symmetry_equiv_pos_site_id
    _symmetry_equiv_pos_as_xyz
    1  x,y,z
loop_
    _atom_site_type_symbol
    _atom_site_label
    _atom_site_fract_x
    _atom_site_fract_y
    _atom_site_fract_z
    _atom_type_partial_charge
    O   O1   0.904296  0.840692  0.548250  -0.604053
    O   O2   0.875035  0.944710  0.478965  -0.598184
    C   C1   0.860857  0.864372  0.513496  0.699748
    O   O3   0.870738  0.911298  0.653631  -0.626594
    O   O4   0.908026  0.047648  0.551392  -0.614209
    C   C2   0.859666  0.979277  0.630711  0.863491
    Cu  Cu1  0.974340  0.916955  0.575851  0.951176
    Cu  Cu2  0.979193  0.039619  0.454380  0.941040
    O   O5   0.045093  0.012171  0.584724  -0.612970
    O   O6   0.082673  0.115372  0.448682  -0.593838
    O   O7   0.078503  0.941557  0.479094  -0.579751
    O   O8   0.049345  0.012419  0.376188  -0.619238
    C   C3   0.092922  0.091522  0.517065  0.716575
    C   C4   0.091822  0.975370  0.398927  0.890531
    H   H1   0.852870  0.977940  0.773101  0.117320
    C   C5   0.712962  0.981737  0.620114  -0.320314
    H   H2   0.755916  0.974095  0.572159  0.161719
    C   C6   0.645720  0.987359  0.611766  -0.031905
    H   H3   0.638394  0.985242  0.557987  0.077034
    C   C7   0.588155  0.996077  0.671389  -0.074571
    H   H4   0.535807  0.001240  0.664273  0.099050
    C   C8   0.596797  0.997926  0.740382  -0.312559
    H   H5   0.550359  0.005499  0.785076  0.178494
    C   C9   0.663647  0.991136  0.750410  0.225874
    C   C10  0.723410  0.984872  0.688638  0.250751
    C   C11  0.791906  0.980273  0.696950  -0.270460
    C   C12  0.799388  0.980886  0.766910  -0.080788
    H   H6   0.747859  0.989372  0.881646  0.121387
    C   C13  0.740871  0.988240  0.827415  -0.091250
    C   C14  0.672723  0.992770  0.820129  -0.231748
    C   C15  0.664684  0.740182  0.502198  0.393144
    C   C16  0.673731  0.677805  0.487486  -0.571108
    H   H7   0.736387  0.682228  0.462856  0.205938
    C   C17  0.737782  0.810897  0.492575  -0.182048
    C   C18  0.792343  0.796348  0.516280  -0.235725
    H   H8   0.743779  0.874530  0.470923  0.168294
    H   H9   0.783732  0.731708  0.543585  0.152175
    C   C19  0.256306  0.937711  0.252640  -0.533815
    C   C20  0.333577  0.010195  0.199305  0.228704
    H   H10  0.244956  0.883238  0.241307  0.196793
    C   C21  0.190259  0.923378  0.333653  0.768052
    C   C22  0.161533  0.980236  0.328062  -0.706103
    H   H11  0.188895  0.033366  0.263426  0.221544
    C   C23  0.297928  0.289416  0.448608  -0.041263
    C   C24  0.285436  0.301291  0.517120  -0.269492
    H   H12  0.360830  0.329687  0.389608  0.127290
    H   H13  0.221142  0.268376  0.572979  0.167877
    C   C25  0.226694  0.228441  0.447167  -0.017766
    C   C26  0.160704  0.154965  0.519372  -0.276766
    H   H14  0.232134  0.241066  0.384566  0.120563
    H   H15  0.159227  0.137384  0.580870  0.166138
    O   O9   0.543965  0.146139  0.932000  -0.621316
    O   O10  0.466503  0.043472  0.905620  -0.607732
    C   C27  0.506063  0.123876  0.889744  0.737213
    O   O11  0.639279  0.067140  0.896478  -0.622938
    O   O12  0.530456  0.932967  0.937821  -0.625805
    C   C28  0.611031  0.998125  0.887696  0.829921
    Cu  Cu3  0.568828  0.065814  0.001175  0.945528
    Cu  Cu4  0.440465  0.947252  0.010474  0.947729
    O   O13  0.573655  0.967036  0.071882  -0.633738
    O   O14  0.434383  0.869595  0.113909  -0.613801
    O   O15  0.478501  0.045976  0.107342  -0.569052
    O   O16  0.370321  0.979799  0.081848  -0.622026
    C   C29  0.503060  0.889845  0.122763  0.825972
    C   C30  0.397739  0.014114  0.124611  0.680687
    O   O17  0.433312  0.576985  0.465285  -0.631836
    O   O18  0.536588  0.570208  0.363058  -0.612722
    C   C31  0.483092  0.598881  0.384556  0.776756
    O   O19  0.522715  0.578939  0.552870  -0.655645
    O   O20  0.622840  0.570539  0.449005  -0.639374
    C   C32  0.602726  0.605829  0.496844  0.916126
    Cu  Cu5  0.421763  0.489787  0.566719  0.986203
    Cu  Cu6  0.537227  0.478077  0.448878  0.976311
    O   O21  0.430620  0.405612  0.651914  -0.594418
    O   O22  0.526900  0.392106  0.550353  -0.601277
    O   O23  0.336601  0.394605  0.569205  -0.630984
    O   O24  0.436400  0.392662  0.458893  -0.617307
    C   C33  0.474954  0.368050  0.631276  0.728450
    C   C34  0.356467  0.365797  0.514946  0.721003
    C   C35  0.500370  0.249016  0.689108  0.025119
    C   C36  0.472888  0.302738  0.701888  -0.298225
    H   H16  0.520914  0.250904  0.626957  0.100715
    H   H17  0.443971  0.295718  0.766115  0.169105
    C   C37  0.495430  0.180543  0.760115  -0.081489
    C   C38  0.508576  0.192285  0.821571  -0.262089
    H   H18  0.486831  0.121577  0.758097  0.137340
    H   H19  0.526289  0.254309  0.819077  0.165169
    C   C39  0.430291  0.693794  0.333217  -0.142885
    C   C40  0.485907  0.665271  0.314442  -0.307582
    H   H20  0.381037  0.664967  0.400443  0.151419
    H   H21  0.532130  0.688444  0.247619  0.159214
    C   C41  0.429561  0.760213  0.265516  0.403335
    C   C42  0.502631  0.822876  0.190426  -0.507948
    H   H22  0.564274  0.828506  0.179978  0.203901
    N   N1   0.355477  0.077043  0.220378  -0.109933
    C   C43  0.395214  0.066777  0.272887  -0.247874
    C   C44  0.403759  0.163068  0.145894  -0.232960
    H   H23  0.355582  0.000059  0.329637  0.099007
    H   H24  0.400028  0.113745  0.296734  0.110692
    H   H25  0.460839  0.078562  0.233991  0.074161
    H   H26  0.372505  0.166372  0.105845  0.080810
    H   H27  0.471425  0.180300  0.105888  0.092051
    H   H28  0.404221  0.210594  0.168431  0.105114
    N   N2   0.149262  0.841685  0.409592  -0.303431
    C   C45  0.061325  0.782952  0.438500  -0.245957
    C   C46  0.166491  0.843631  0.477802  0.073325
    H   H29  0.054955  0.787526  0.381058  0.079802
    H   H30  0.016037  0.798171  0.476851  0.104918
    H   H31  0.044438  0.715617  0.479989  0.106398
    H   H32  0.205667  0.911706  0.460195  -0.011214
    H   H33  0.203432  0.809951  0.485949  -0.017779
    H   H34  0.105021  0.809981  0.540332  0.037587
    N   N3   0.352974  0.764828  0.285575  -0.072879
    C   C47  0.279990  0.684801  0.313240  -0.179407
    C   C48  0.335009  0.795951  0.346272  -0.201986
    H   H35  0.297564  0.663597  0.264602  0.076315
    H   H36  0.225073  0.695425  0.317543  0.088238
    H   H37  0.260065  0.633306  0.377820  0.038351
    H   H38  0.384014  0.806858  0.366540  0.052750
    H   H39  0.269884  0.748388  0.404581  0.109770
    H   H40  0.338081  0.858564  0.314316  0.057321
    N   N4   0.587128  0.742622  0.519737  0.023356
    C   C49  0.560913  0.769069  0.583230  -0.369193
    C   C50  0.589645  0.792277  0.441361  -0.249142
    H   H41  0.565941  0.733720  0.639649  0.118331
    H   H42  0.492717  0.752930  0.606553  0.126907
    H   H43  0.601480  0.840024  0.554110  0.121655
    H   H44  0.604639  0.766337  0.396602  0.097900
    H   H45  0.640082  0.861254  0.408283  0.043434
    H   H46  0.525893  0.787630  0.457879  0.122351
