# generated using pymatgen
data_Cu2H23(C21O4)2
_symmetry_space_group_name_H-M   'P 1'
_cell_length_a   35.55215300
_cell_length_b   28.06602300
_cell_length_c   24.37984400
_cell_angle_alpha   64.29664100
_cell_angle_beta   43.51386500
_cell_angle_gamma   88.27591800
_symmetry_Int_Tables_number   1
_chemical_formula_structural   Cu2H23(C21O4)2
_chemical_formula_sum   'Cu4 H46 C84 O16'
_cell_volume   13412.39730186
_cell_formula_units_Z   2
loop_
 _symmetry_equiv_pos_site_id
 _symmetry_equiv_pos_as_xyz
  1  'x, y, z'
loop_
 _atom_site_type_symbol
 _atom_site_label
 _atom_site_symmetry_multiplicity
 _atom_site_fract_x
 _atom_site_fract_y
 _atom_site_fract_z
 _atom_site_occupancy
  Cu  Cu1  1  0.54250200  0.55128700  0.40934000  1
  Cu  Cu2  1  0.45823600  0.45035800  0.58878300  1
  Cu  Cu3  1  0.99722900  0.45003100  0.51071000  1
  Cu  Cu4  1  0.00365400  0.55101500  0.48807800  1
  H  H1  1  0.32969900  0.77030300  0.85563300  1
  H  H2  1  0.44769700  0.77182900  0.60135600  1
  H  H3  1  0.29476500  0.60951100  0.89065400  1
  H  H4  1  0.13792600  0.67020700  0.16906400  1
  H  H5  1  0.17306700  0.51972300  0.20530900  1
  H  H6  1  0.22542500  0.72364200  0.99064000  1
  H  H7  1  0.26365400  0.57429100  0.02692000  1
  H  H8  1  0.40075900  0.52220900  0.75223800  1
  H  H9  1  0.47119300  0.66798200  0.49280800  1
  H  H10  1  0.36639700  0.57677500  0.82147600  1
  H  H11  1  0.43202900  0.72107600  0.56492200  1
  H  H12  1  0.39741000  0.96223400  0.65004900  1
  H  H13  1  0.56432100  0.95992500  0.42929400  1
  H  H14  1  0.34339800  0.85474700  0.75628600  1
  H  H15  1  0.51280200  0.85214100  0.53813800  1
  H  H16  1  0.70559200  0.39181800  0.10873400  1
  H  H17  1  0.68006500  0.22950700  0.14365800  1
  H  H18  1  0.54511500  0.23098600  0.39465300  1
  H  H19  1  0.60243800  0.48144600  0.24299500  1
  H  H20  1  0.52296300  0.33111300  0.50884000  1
  H  H21  1  0.63585300  0.42688600  0.17365100  1
  H  H22  1  0.56054200  0.27769700  0.43729200  1
  H  H23  1  0.49066000  0.03914600  0.57391900  1
  H  H24  1  0.54786200  0.04131200  0.34701200  1
  H  H25  1  0.54592400  0.14663000  0.46514700  1
  H  H26  1  0.59838200  0.14910100  0.24013100  1
  H  H27  1  0.82620800  0.47926200  0.79462300  1
  H  H28  1  0.86858600  0.33340300  0.82821100  1
  H  H29  1  0.73667700  0.42466300  0.97295200  1
  H  H30  1  0.78244100  0.28027400  0.00659300  1
  H  H31  1  0.17870200  0.42189300  0.52568600  1
  H  H32  1  0.11236500  0.42105200  0.52121200  1
  H  H33  1  0.12356500  0.58536800  0.48575400  1
  H  H34  1  0.18995000  0.58527200  0.49043500  1
  H  H35  1  0.37389300  0.57845500  0.36842800  1
  H  H36  1  0.44567700  0.57951900  0.36193500  1
  H  H37  1  0.30646800  0.41533400  0.65532000  1
  H  H38  1  0.23536400  0.41520500  0.66014500  1
  H  H39  1  0.62683800  0.42254300  0.62975500  1
  H  H40  1  0.55517400  0.42170900  0.63599900  1
  H  H41  1  0.69426100  0.58638800  0.34328100  1
  H  H42  1  0.76527400  0.58629800  0.33867500  1
  H  H43  1  0.82276000  0.57979200  0.47189100  1
  H  H44  1  0.88899900  0.58040500  0.47657000  1
  H  H45  1  0.87676200  0.41559300  0.51369300  1
  H  H46  1  0.81046500  0.41590600  0.50880000  1
  C  C1  1  0.53874200  0.44277900  0.42343800  1
  C  C2  1  0.57645000  0.50325300  0.49334500  1
  C  C3  1  0.46126200  0.55888100  0.57464200  1
  C  C4  1  0.42432800  0.49833500  0.50481600  1
  C  C5  1  0.30612900  0.68628300  0.88525300  1
  C  C6  1  0.39047500  0.77877300  0.72115400  1
  C  C7  1  0.37535500  0.68661600  0.74166100  1
  C  C8  1  0.34065500  0.74727400  0.82354100  1
  C  C9  1  0.40809200  0.74793600  0.68082600  1
  C  C10  1  0.32325900  0.65649900  0.84352200  1
  C  C11  1  0.21568300  0.67946300  0.03632400  1
  C  C12  1  0.16538400  0.64889700  0.13811900  1
  C  C13  1  0.14926300  0.59118400  0.19961000  1
  C  C14  1  0.18441300  0.56457500  0.15840300  1
  C  C15  1  0.23575100  0.59565200  0.05658000  1
  C  C16  1  0.25173100  0.65333000  0.99432000  1
  C  C17  1  0.38754500  0.59696200  0.75055600  1
  C  C18  1  0.40773000  0.56593500  0.71079100  1
  C  C19  1  0.43867800  0.59144500  0.61753000  1
  C  C20  1  0.44795600  0.64773100  0.56529400  1
  C  C21  1  0.42601500  0.67810200  0.60631500  1
  C  C22  1  0.39614100  0.65332500  0.69906100  1
  C  C23  1  0.39234300  0.87666200  0.68622000  1
  C  C24  1  0.42271400  0.93792800  0.62555400  1
  C  C25  1  0.48427500  0.96813500  0.53252900  1
  C  C26  1  0.51574600  0.93663700  0.50146100  1
  C  C27  1  0.48603600  0.87525800  0.56340600  1
  C  C28  1  0.42369000  0.84447600  0.65618800  1
  C  C29  1  0.90618800  0.44252900  0.69110200  1
  C  C30  1  0.07274000  0.50251800  0.50119000  1
  C  C31  1  0.09545600  0.55849800  0.30768500  1
  C  C32  1  0.92811500  0.49858100  0.49753700  1
  C  C33  1  0.62295700  0.31501600  0.25653700  1
  C  C34  1  0.69716400  0.31472900  0.11364500  1
  C  C35  1  0.61043800  0.22254100  0.27727500  1
  C  C36  1  0.67736700  0.34482500  0.15536100  1
  C  C37  1  0.66401700  0.25339900  0.17534700  1
  C  C38  1  0.58926300  0.25402400  0.31665500  1
  C  C39  1  0.61257200  0.40556100  0.24634400  1
  C  C40  1  0.59306100  0.43662500  0.28606000  1
  C  C41  1  0.56026600  0.41005800  0.38079600  1
  C  C42  1  0.54785500  0.35239000  0.43502700  1
  C  C43  1  0.56884800  0.32183400  0.39435900  1
  C  C44  1  0.60110900  0.34793800  0.29974700  1
  C  C45  1  0.54537900  0.12468400  0.43854100  1
  C  C46  1  0.51440000  0.06342000  0.50044100  1
  C  C47  1  0.51592600  0.03317400  0.46745000  1
  C  C48  1  0.54733200  0.06463300  0.37292400  1
  C  C49  1  0.57650200  0.12601300  0.31203600  1
  C  C50  1  0.57654400  0.15683400  0.34368100  1
  C  C51  1  0.76608500  0.40446100  0.94279700  1
  C  C52  1  0.81675600  0.43551600  0.84097700  1
  C  C53  1  0.85335000  0.40998900  0.79913000  1
  C  C54  1  0.83976200  0.35366800  0.85988100  1
  C  C55  1  0.79025000  0.32327600  0.96168200  1
  C  C56  1  0.75234500  0.34805600  0.00446900  1
  C  C57  1  0.16655200  0.45778700  0.51683900  1
  C  C58  1  0.12904400  0.45751500  0.51424500  1
  C  C59  1  0.11310900  0.50320800  0.50311900  1
  C  C60  1  0.13531500  0.54917300  0.49446200  1
  C  C61  1  0.17284000  0.54927500  0.49709800  1
  C  C62  1  0.18847500  0.50358300  0.50837900  1
  C  C63  1  0.22740200  0.50357800  0.51147500  1
  C  C64  1  0.25803300  0.49672000  0.51796100  1
  C  C65  1  0.35921600  0.54263200  0.43133200  1
  C  C66  1  0.39966700  0.54302800  0.42800000  1
  C  C67  1  0.38130800  0.49744300  0.50822900  1
  C  C68  1  0.32199600  0.45144300  0.59165000  1
  C  C69  1  0.28165600  0.45121700  0.59468300  1
  C  C70  1  0.30015100  0.49681800  0.51463000  1
  C  C71  1  0.64153600  0.45853600  0.56692500  1
  C  C72  1  0.60113600  0.45827000  0.57011800  1
  C  C73  1  0.61946400  0.50405200  0.49002000  1
  C  C74  1  0.67873400  0.55012100  0.40685900  1
  C  C75  1  0.71903000  0.55021800  0.40395900  1
  C  C76  1  0.70056300  0.50441600  0.48388800  1
  C  C77  1  0.74264000  0.50436100  0.48072200  1
  C  C78  1  0.77353600  0.49802100  0.48677400  1
  C  C79  1  0.83464700  0.54372800  0.48115200  1
  C  C80  1  0.87211200  0.54387000  0.48386700  1
  C  C81  1  0.88775400  0.49798200  0.49551700  1
  C  C82  1  0.86526000  0.45194600  0.50457700  1
  C  C83  1  0.82777400  0.45197200  0.50181900  1
  C  C84  1  0.81243400  0.49786600  0.49001000  1
  O  O1  1  0.56503600  0.50113900  0.36449100  1
  O  O2  1  0.49324500  0.41349700  0.52027200  1
  O  O3  1  0.59397100  0.54654500  0.41703400  1
  O  O4  1  0.52064900  0.45878000  0.57267100  1
  O  O5  1  0.50685500  0.58818600  0.47779400  1
  O  O6  1  0.43554500  0.50056600  0.63351700  1
  O  O7  1  0.48020100  0.54269500  0.42527900  1
  O  O8  1  0.40671200  0.45520300  0.58130400  1
  O  O9  1  0.92778900  0.41317500  0.65297100  1
  O  O10  1  0.93157400  0.50086000  0.63323600  1
  O  O11  1  0.05185500  0.45825000  0.51023700  1
  O  O12  1  0.05740100  0.54579200  0.49109200  1
  O  O13  1  0.06952000  0.50012500  0.36555900  1
  O  O14  1  0.07375400  0.58783000  0.34584600  1
  O  O15  1  0.94321600  0.45514900  0.50812600  1
  O  O16  1  0.94925300  0.54296300  0.48804700  1
