# generated using pymatgen
data_Zn4H36C60O13
_symmetry_space_group_name_H-M   'P 1'
_cell_length_a   20.69911500
_cell_length_b   20.66376700
_cell_length_c   20.67648300
_cell_angle_alpha   89.98190900
_cell_angle_beta   89.98177000
_cell_angle_gamma   90.00290200
_symmetry_Int_Tables_number   1
_chemical_formula_structural   Zn4H36C60O13
_chemical_formula_sum   'Zn16 H144 C240 O52'
_cell_volume   8843.77934110
_cell_formula_units_Z   4
loop_
 _symmetry_equiv_pos_site_id
 _symmetry_equiv_pos_as_xyz
  1  'x, y, z'
loop_
 _atom_site_type_symbol
 _atom_site_label
 _atom_site_symmetry_multiplicity
 _atom_site_fract_x
 _atom_site_fract_y
 _atom_site_fract_z
 _atom_site_occupancy
  Zn  Zn1  1  0.58464700  0.52895200  0.50848000  1
  Zn  Zn2  1  0.16048500  0.03245200  0.74732700  1
  Zn  Zn3  1  0.27743500  0.98965300  0.66390800  1
  Zn  Zn4  1  0.24009800  0.91145500  0.78616900  1
  Zn  Zn5  1  0.74298400  0.84011000  0.97927000  1
  Zn  Zn6  1  0.79271700  0.70507000  0.95369000  1
  Zn  Zn7  1  0.78455700  0.74986700  0.09011300  1
  Zn  Zn8  1  0.66081400  0.71887500  0.01216000  1
  Zn  Zn9  1  0.46532000  0.48923800  0.59176100  1
  Zn  Zn10  1  0.44911900  0.54594100  0.45932200  1
  Zn  Zn11  1  0.50221900  0.41052400  0.46882700  1
  Zn  Zn12  1  0.01980200  0.29362700  0.32482100  1
  Zn  Zn13  1  0.04754800  0.17838500  0.23290200  1
  Zn  Zn14  1  0.92605100  0.26384800  0.21240200  1
  Zn  Zn15  1  0.06110900  0.31374100  0.18746700  1
  Zn  Zn16  1  0.29691800  0.04499800  0.79766600  1
  H  H1  1  0.51413200  0.20283100  0.28492400  1
  H  H2  1  0.07257100  0.65672500  0.30039400  1
  H  H3  1  0.91553000  0.62576300  0.23418000  1
  H  H4  1  0.96738300  0.72738400  0.26825900  1
  H  H5  1  0.99225200  0.50369600  0.17494000  1
  H  H6  1  0.81671300  0.51422200  0.01626200  1
  H  H7  1  0.94158400  0.35877000  0.00712900  1
  H  H8  1  0.89583200  0.26161000  0.95691200  1
  H  H9  1  0.77867100  0.24210000  0.96077900  1
  H  H10  1  0.70725900  0.32037700  0.01475700  1
  H  H11  1  0.75273400  0.41718900  0.06612000  1
  H  H12  1  0.53857100  0.01062300  0.13572400  1
  H  H13  1  0.11704700  0.63227500  0.40742500  1
  H  H14  1  0.60050100  0.09751400  0.08356300  1
  H  H15  1  0.71858500  0.09373800  0.08168500  1
  H  H16  1  0.71335700  0.91893200  0.19216300  1
  H  H17  1  0.59547200  0.92117900  0.18970700  1
  H  H18  1  0.80011100  0.10483800  0.16483100  1
  H  H19  1  0.92396500  0.90580000  0.12742200  1
  H  H20  1  0.01016800  0.06264300  0.07032200  1
  H  H21  1  0.12815300  0.04908900  0.06580200  1
  H  H22  1  0.18336900  0.98104300  0.14574400  1
  H  H23  1  0.12043500  0.92402700  0.22911100  1
  H  H24  1  0.17797900  0.53249300  0.42515400  1
  H  H25  1  0.00244600  0.93576000  0.23270400  1
  H  H26  1  0.71821700  0.90629200  0.66459500  1
  H  H27  1  0.75071800  0.79742600  0.69956200  1
  H  H28  1  0.84578100  0.78292700  0.76854200  1
  H  H29  1  0.87374300  0.98733600  0.77199900  1
  H  H30  1  0.78044200  0.00112800  0.70004300  1
  H  H31  1  0.98374900  0.92625300  0.74988700  1
  H  H32  1  0.97199200  0.81062500  0.95640300  1
  H  H33  1  0.08160100  0.75627800  0.95091400  1
  H  H34  1  0.16924300  0.75319400  0.03017500  1
  H  H35  1  0.53757600  0.13566100  0.46192500  1
  H  H36  1  0.22696000  0.85293200  0.05968300  1
  H  H37  1  0.19521900  0.95655800  0.01077100  1
  H  H38  1  0.10526900  0.96093800  0.93440300  1
  H  H39  1  0.24435700  0.66988500  0.94833400  1
  H  H40  1  0.29011300  0.72602200  0.04267400  1
  H  H41  1  0.37132700  0.81112400  0.02751600  1
  H  H42  1  0.36657400  0.77952300  0.82395600  1
  H  H43  1  0.28196600  0.69700200  0.83926200  1
  H  H44  1  0.48761300  0.77922600  0.95865800  1
  H  H45  1  0.47118100  0.99789600  0.87059200  1
  H  H46  1  0.57110500  0.21227200  0.54643600  1
  H  H47  1  0.55296300  0.03418800  0.98060000  1
  H  H48  1  0.64090800  0.11345400  0.96856600  1
  H  H49  1  0.72453700  0.09721600  0.88586300  1
  H  H50  1  0.71881500  0.00335200  0.81346300  1
  H  H51  1  0.63038200  0.92468500  0.82417000  1
  H  H52  1  0.65203500  0.29512300  0.52267500  1
  H  H53  1  0.66269700  0.22800500  0.32743400  1
  H  H54  1  0.58557900  0.14209600  0.35364100  1
  H  H55  1  0.77273900  0.24801200  0.36237200  1
  H  H56  1  0.75728900  0.47073000  0.44137600  1
  H  H57  1  0.51450600  0.31307500  0.24096500  1
  H  H58  1  0.87908500  0.45415100  0.49707700  1
  H  H59  1  0.95932100  0.54131500  0.49191900  1
  H  H60  1  0.99462700  0.58283000  0.38684300  1
  H  H61  1  0.95522500  0.53292800  0.28642000  1
  H  H62  1  0.87198100  0.44855200  0.29100900  1
  H  H63  1  0.48961600  0.44762500  0.85920600  1
  H  H64  1  0.56787100  0.41810900  0.77469700  1
  H  H65  1  0.53934400  0.33722400  0.69294000  1
  H  H66  1  0.35266900  0.31720100  0.77867900  1
  H  H67  1  0.38314700  0.39558000  0.86219000  1
  H  H68  1  0.42233500  0.38489800  0.26040500  1
  H  H69  1  0.39916100  0.20745800  0.75427600  1
  H  H70  1  0.43248000  0.23864000  0.52217800  1
  H  H71  1  0.47810100  0.06519400  0.59144600  1
  H  H72  1  0.48393700  0.98644600  0.50266100  1
  H  H73  1  0.41521400  0.00044900  0.40664200  1
  H  H74  1  0.33596600  0.08809200  0.40252800  1
  H  H75  1  0.32976300  0.16717000  0.49083100  1
  H  H76  1  0.29054300  0.94344100  0.38493200  1
  H  H77  1  0.20144600  0.92241600  0.46130900  1
  H  H78  1  0.21632200  0.84488000  0.54961800  1
  H  H79  1  0.33221100  0.23839300  0.37433600  1
  H  H80  1  0.41109100  0.81410500  0.48871400  1
  H  H81  1  0.39410000  0.88754200  0.39790100  1
  H  H82  1  0.35537600  0.71046100  0.50283500  1
  H  H83  1  0.29684400  0.73418300  0.73034600  1
  H  H84  1  0.25471100  0.56612600  0.64581900  1
  H  H85  1  0.24286000  0.47604000  0.72236700  1
  H  H86  1  0.30564000  0.47505700  0.82306100  1
  H  H87  1  0.38239600  0.56257200  0.84615700  1
  H  H88  1  0.39473800  0.65299300  0.76965500  1
  H  H89  1  0.88814800  0.81492300  0.32106400  1
  H  H90  1  0.42363400  0.16564400  0.35209400  1
  H  H91  1  0.87912800  0.69810300  0.34291800  1
  H  H92  1  0.77795800  0.64096200  0.32012300  1
  H  H93  1  0.69194900  0.81830900  0.25931500  1
  H  H94  1  0.79452500  0.87496900  0.27924800  1
  H  H95  1  0.66518100  0.67273600  0.37835100  1
  H  H96  1  0.54919900  0.65313100  0.17234600  1
  H  H97  1  0.51015500  0.52695400  0.21679600  1
  H  H98  1  0.39951000  0.48666900  0.20120300  1
  H  H99  1  0.30715600  0.54905900  0.24229500  1
  H  H100  1  0.32527000  0.65252800  0.29810600  1
  H  H101  1  0.24807800  0.29486500  0.28968100  1
  H  H102  1  0.43577400  0.69374100  0.31257800  1
  H  H103  1  0.83392200  0.57907800  0.51946200  1
  H  H104  1  0.78885000  0.47814700  0.56458400  1
  H  H105  1  0.71583900  0.48233800  0.65767700  1
  H  H106  1  0.73286900  0.68783900  0.66173400  1
  H  H107  1  0.80695100  0.68355200  0.56900900  1
  H  H108  1  0.74568000  0.62780900  0.77960600  1
  H  H109  1  0.52181100  0.55289000  0.76563700  1
  H  H110  1  0.59975000  0.50840200  0.92700800  1
  H  H111  1  0.52772500  0.50578500  0.02157400  1
  H  H112  1  0.28216300  0.51323100  0.37375700  1
  H  H113  1  0.43865500  0.58408900  0.03049800  1
  H  H114  1  0.42139700  0.66433400  0.94461200  1
  H  H115  1  0.49297400  0.66701600  0.84988700  1
  H  H116  1  0.39749300  0.23054700  0.18438800  1
  H  H117  1  0.31411900  0.31334900  0.16665200  1
  H  H118  1  0.22232500  0.29011700  0.09571800  1
  H  H119  1  0.29443100  0.09874700  0.06584600  1
  H  H120  1  0.38737900  0.12353900  0.13479900  1
  H  H121  1  0.26600900  0.15165000  0.95868700  1
  H  H122  1  0.03815700  0.17899100  0.01518500  1
  H  H123  1  0.15137500  0.48190300  0.22662700  1
  H  H124  1  0.05698400  0.21930100  0.84334200  1
  H  H125  1  0.95690300  0.19780900  0.78329300  1
  H  H126  1  0.89271800  0.10057500  0.80764500  1
  H  H127  1  0.93008500  0.02334600  0.88984400  1
  H  H128  1  0.02897700  0.04601400  0.95128600  1
  H  H129  1  0.87346900  0.08357500  0.69496900  1
  H  H130  1  0.93206700  0.98646800  0.65838900  1
  H  H131  1  0.02759000  0.99728800  0.59013300  1
  H  H132  1  0.00945200  0.20286800  0.59749400  1
  H  H133  1  0.91333000  0.19154700  0.66579800  1
  H  H134  1  0.08760200  0.58010300  0.21053900  1
  H  H135  1  0.01175900  0.16215200  0.48216200  1
  H  H136  1  0.21723900  0.04508600  0.48822500  1
  H  H137  1  0.17222200  0.99066600  0.36471100  1
  H  H138  1  0.23614100  0.97770400  0.26555700  1
  H  H139  1  0.28982000  0.07164700  0.21675600  1
  H  H140  1  0.28044700  0.17875300  0.26768900  1
  H  H141  1  0.21832200  0.19163100  0.36822700  1
  H  H142  1  0.04047900  0.78459300  0.19454800  1
  H  H143  1  0.06365300  0.73929400  0.08732500  1
  H  H144  1  0.01400300  0.63684900  0.05357700  1
  C  C1  1  0.38563900  0.44114200  0.39100000  1
  C  C2  1  0.07369000  0.17046800  0.37263500  1
  C  C3  1  0.73353200  0.79165700  0.27633900  1
  C  C4  1  0.79089000  0.82350300  0.28789800  1
  C  C5  1  0.84335100  0.78985000  0.31140600  1
  C  C6  1  0.63943100  0.66819600  0.33313300  1
  C  C7  1  0.57910400  0.64035100  0.33240600  1
  C  C8  1  0.54569000  0.63764900  0.27361000  1
  C  C9  1  0.57530600  0.65799800  0.21731600  1
  C  C10  1  0.63636800  0.68469500  0.21777400  1
  C  C11  1  0.66740500  0.69234000  0.27754400  1
  C  C12  1  0.46964600  0.55446200  0.23503500  1
  C  C13  1  0.87859100  0.31516900  0.33745300  1
  C  C14  1  0.40759700  0.53178800  0.22632300  1
  C  C15  1  0.35577800  0.56684500  0.24922900  1
  C  C16  1  0.36593900  0.62485500  0.28048700  1
  C  C17  1  0.42792200  0.64785400  0.28875000  1
  C  C18  1  0.48001200  0.61212000  0.26706600  1
  C  C19  1  0.77692600  0.52427200  0.58597700  1
  C  C20  1  0.73582700  0.52661300  0.63828500  1
  C  C21  1  0.71914600  0.58550900  0.66497800  1
  C  C22  1  0.74565800  0.64174200  0.64076700  1
  C  C23  1  0.78695900  0.63935900  0.58856500  1
  C  C24  1  0.92609300  0.12281600  0.18321700  1
  C  C25  1  0.80217800  0.58068000  0.56084400  1
  C  C26  1  0.69617600  0.61146400  0.77758500  1
  C  C27  1  0.65716700  0.61323500  0.83217600  1
  C  C28  1  0.59438900  0.59018300  0.82714700  1
  C  C29  1  0.57146100  0.56883100  0.76810900  1
  C  C30  1  0.61025800  0.56819900  0.71333000  1
  C  C31  1  0.67381800  0.58848700  0.71905900  1
  C  C32  1  0.56043000  0.54261500  0.93079900  1
  C  C33  1  0.52008600  0.54115600  0.98382300  1
  C  C34  1  0.47018000  0.58501600  0.98881700  1
  C  C35  1  0.29007000  0.84655500  0.66866600  1
  C  C36  1  0.46047200  0.63007600  0.94064400  1
  C  C37  1  0.50049900  0.63134800  0.88738400  1
  C  C38  1  0.55082600  0.58789600  0.88265700  1
  C  C39  1  0.30935300  0.26608000  0.14478300  1
  C  C40  1  0.25727500  0.25257600  0.10558100  1
  C  C41  1  0.25145600  0.19228300  0.07719000  1
  C  C42  1  0.29835500  0.14599700  0.08793100  1
  C  C43  1  0.35060600  0.15977300  0.12667300  1
  C  C44  1  0.35614600  0.21979900  0.15484500  1
  C  C45  1  0.21540700  0.15676400  0.97027700  1
  C  C46  1  0.09830300  0.91894500  0.80613100  1
  C  C47  1  0.16853700  0.14187800  0.92466000  1
  C  C48  1  0.10401600  0.15003900  0.94161500  1
  C  C49  1  0.08840800  0.17286200  0.00230800  1
  C  C50  1  0.13523300  0.18621400  0.04761000  1
  C  C51  1  0.19939700  0.17852500  0.03136600  1
  C  C52  1  0.02994100  0.17549300  0.85246100  1
  C  C53  1  0.97363600  0.16356600  0.81903000  1
  C  C54  1  0.93774000  0.10900000  0.83254900  1
  C  C55  1  0.95845900  0.06590700  0.87894500  1
  C  C56  1  0.01424500  0.07832000  0.91299500  1
  C  C57  1  0.35923200  0.93591700  0.86242800  1
  C  C58  1  0.05026500  0.13284400  0.89950300  1
  C  C59  1  0.94993600  0.03406400  0.64655200  1
  C  C60  1  0.00418300  0.04022600  0.60861700  1
  C  C61  1  0.02601300  0.10083500  0.59095700  1
  C  C62  1  0.99354300  0.15522900  0.61211300  1
  C  C63  1  0.93932900  0.14896000  0.65021300  1
  C  C64  1  0.91712400  0.08838000  0.66681900  1
  C  C65  1  0.05801600  0.13806500  0.48463400  1
  C  C66  1  0.09562800  0.13479600  0.42981000  1
  C  C67  1  0.15189600  0.09885000  0.43096800  1
  C  C68  1  0.19030300  0.11027400  0.86433100  1
  C  C69  1  0.17135700  0.06996600  0.48799200  1
  C  C70  1  0.13437200  0.07461100  0.54393500  1
  C  C71  1  0.07540200  0.10650900  0.54077600  1
  C  C72  1  0.19697700  0.03186000  0.34417400  1
  C  C73  1  0.23231900  0.02468500  0.28818000  1
  C  C74  1  0.26240800  0.07742000  0.26080500  1
  C  C75  1  0.25727000  0.13737100  0.28950000  1
  C  C76  1  0.22246000  0.14451500  0.34591800  1
  C  C77  1  0.19203200  0.09166000  0.37324000  1
  C  C78  1  0.03184600  0.71391000  0.11982200  1
  C  C79  1  0.36106800  0.10482300  0.68689900  1
  C  C80  1  0.00404300  0.65635600  0.10104300  1
  C  C81  1  0.96287200  0.62406600  0.14240600  1
  C  C82  1  0.94934800  0.64975700  0.20246200  1
  C  C83  1  0.97738000  0.70733000  0.22114100  1
  C  C84  1  0.01866200  0.73938100  0.17989300  1
  C  C85  1  0.95322500  0.50549500  0.14032300  1
  C  C86  1  0.92623500  0.44870800  0.11693300  1
  C  C87  1  0.87719900  0.45196400  0.07146500  1
  C  C88  1  0.85503700  0.51182700  0.05165700  1
  C  C89  1  0.88116400  0.56836100  0.07621300  1
  C  C90  1  0.16143000  0.04887100  0.60488900  1
  C  C91  1  0.93070600  0.56510000  0.12054900  1
  C  C92  1  0.89013300  0.35020300  0.00973300  1
  C  C93  1  0.86445900  0.29571600  0.98112700  1
  C  C94  1  0.79880700  0.28484100  0.98318400  1
  C  C95  1  0.75878900  0.32874200  0.01342200  1
  C  C96  1  0.78440100  0.38324500  0.04209400  1
  C  C97  1  0.85027800  0.39371800  0.04123100  1
  C  C98  1  0.62554200  0.05775800  0.10645400  1
  C  C99  1  0.69211900  0.05570400  0.10590900  1
  C  C100  1  0.72444100  0.00523800  0.13559300  1
  C  C101  1  0.66666667  0.70213600  0.15511000  1
  C  C102  1  0.68917800  0.95738200  0.16641600  1
  C  C103  1  0.62263400  0.95893400  0.16581200  1
  C  C104  1  0.59076800  0.00910100  0.13577800  1
  C  C105  1  0.82750500  0.06150200  0.15478200  1
  C  C106  1  0.89392800  0.06267300  0.16165900  1
  C  C107  1  0.92843900  0.00518400  0.15279100  1
  C  C108  1  0.89628300  0.94893800  0.13773400  1
  C  C109  1  0.83066100  0.94836800  0.12853000  1
  C  C110  1  0.79545300  0.00488500  0.13821100  1
  C  C111  1  0.03441300  0.03286100  0.10574700  1
  C  C112  1  0.45173400  0.34662700  0.58657200  1
  C  C113  1  0.68334700  0.64469500  0.89094400  1
  C  C114  1  0.10052900  0.02530700  0.10317700  1
  C  C115  1  0.13151100  0.98680300  0.14785200  1
  C  C116  1  0.09625000  0.95485000  0.19450600  1
  C  C117  1  0.03003600  0.96157000  0.19655700  1
  C  C118  1  0.99906100  0.00141800  0.15285000  1
  C  C119  1  0.77787200  0.83911000  0.71541600  1
  C  C120  1  0.83099800  0.83117200  0.75478800  1
  C  C121  1  0.86551000  0.88451500  0.77566300  1
  C  C122  1  0.84711400  0.94547100  0.75581000  1
  C  C123  1  0.79465700  0.95324300  0.71551300  1
  C  C124  1  0.60127700  0.83805600  0.95888900  1
  C  C125  1  0.75970800  0.90012400  0.69571500  1
  C  C126  1  0.98143700  0.90152500  0.79583800  1
  C  C127  1  0.03739000  0.89247500  0.83156300  1
  C  C128  1  0.03376000  0.86069900  0.89064600  1
  C  C129  1  0.97548400  0.83457300  0.91004500  1
  C  C130  1  0.92012400  0.84272800  0.87378200  1
  C  C131  1  0.92284400  0.87678800  0.81644600  1
  C  C132  1  0.10611200  0.80058300  0.96395100  1
  C  C133  1  0.15570500  0.79871200  0.00834300  1
  C  C134  1  0.18791700  0.85459000  0.02502600  1
  C  C135  1  0.85997700  0.81618400  0.89971600  1
  C  C136  1  0.17007300  0.91262900  0.99771600  1
  C  C137  1  0.11965300  0.91485800  0.95432100  1
  C  C138  1  0.08823800  0.85858500  0.93610500  1
  C  C139  1  0.30585300  0.73873300  0.99447500  1
  C  C140  1  0.35120800  0.78673000  0.98590500  1
  C  C141  1  0.37191000  0.80284200  0.92456100  1
  C  C142  1  0.34834100  0.76923000  0.87186200  1
  C  C143  1  0.30150700  0.72250400  0.88038300  1
  C  C144  1  0.28039100  0.70714800  0.94165700  1
  C  C145  1  0.48496400  0.82775000  0.93949500  1
  C  C146  1  0.80273200  0.89092800  0.09779000  1
  C  C147  1  0.53981200  0.86608900  0.93546400  1
  C  C148  1  0.53345300  0.92808500  0.91041300  1
  C  C149  1  0.47360900  0.94953500  0.89021100  1
  C  C150  1  0.41915900  0.91025700  0.89192600  1
  C  C151  1  0.42554300  0.84832900  0.91740300  1
  C  C152  1  0.58980700  0.02698400  0.94426200  1
  C  C153  1  0.63902800  0.07144200  0.93752700  1
  C  C154  1  0.68581500  0.06249000  0.89101600  1
  C  C155  1  0.68265200  0.00975400  0.85041400  1
  C  C156  1  0.63312000  0.96560300  0.85662500  1
  C  C157  1  0.85420000  0.63032800  0.05491000  1
  C  C158  1  0.58750100  0.97327900  0.90475100  1
  C  C159  1  0.47450600  0.29674700  0.27034800  1
  C  C160  1  0.42262900  0.33697100  0.28122100  1
  C  C161  1  0.37136800  0.31634300  0.31879200  1
  C  C162  1  0.37179400  0.25471100  0.34444500  1
  C  C163  1  0.42330100  0.21407000  0.33255800  1
  C  C164  1  0.64470900  0.41115200  0.45213400  1
  C  C165  1  0.47448700  0.23504700  0.29542900  1
  C  C166  1  0.25572300  0.34234100  0.31015900  1
  C  C167  1  0.20423400  0.38505400  0.31382800  1
  C  C168  1  0.21500100  0.44746000  0.33485100  1
  C  C169  1  0.27516100  0.46409500  0.35766600  1
  C  C170  1  0.32612500  0.42071400  0.35764300  1
  C  C171  1  0.31697700  0.36005100  0.33058900  1
  C  C172  1  0.14147800  0.51296600  0.26745600  1
  C  C173  1  0.10663400  0.56897600  0.25790300  1
  C  C174  1  0.09850800  0.61211000  0.30799100  1
  C  C175  1  0.58157300  0.54618400  0.65162300  1
  C  C176  1  0.12358700  0.59845100  0.36810400  1
  C  C177  1  0.15738500  0.54199600  0.37805900  1
  C  C178  1  0.16724200  0.49924800  0.32764000  1
  C  C179  1  0.59111900  0.21601500  0.49828500  1
  C  C180  1  0.63621700  0.26312400  0.48450100  1
  C  C181  1  0.66139100  0.26893600  0.42269200  1
  C  C182  1  0.64304100  0.22498400  0.37577300  1
  C  C183  1  0.59921700  0.17682900  0.39022500  1
  C  C184  1  0.57247000  0.17296100  0.45107400  1
  C  C185  1  0.76827500  0.29736900  0.37900600  1
  C  C186  1  0.55530400  0.60918600  0.39226000  1
  C  C187  1  0.82123000  0.33794300  0.37335200  1
  C  C188  1  0.81721600  0.39966000  0.39892300  1
  C  C189  1  0.75996000  0.42090400  0.42584200  1
  C  C190  1  0.70589800  0.38155800  0.42927000  1
  C  C191  1  0.71148200  0.31754100  0.40883600  1
  C  C192  1  0.89547100  0.47161400  0.45068100  1
  C  C193  1  0.94069000  0.52029400  0.44784900  1
  C  C194  1  0.96106500  0.54312400  0.38880600  1
  C  C195  1  0.93803900  0.51584100  0.33258500  1
  C  C196  1  0.89196000  0.46784200  0.33529600  1
  C  C197  1  0.38304500  0.60475200  0.56893000  1
  C  C198  1  0.87036900  0.44586800  0.39456900  1
  C  C199  1  0.52051800  0.39606100  0.77531700  1
  C  C200  1  0.50416200  0.35091400  0.72907300  1
  C  C201  1  0.44332600  0.32315000  0.72912900  1
  C  C202  1  0.40006900  0.33912100  0.77744400  1
  C  C203  1  0.41693400  0.38350500  0.82423300  1
  C  C204  1  0.47679600  0.41253100  0.82275100  1
  C  C205  1  0.40535200  0.21399000  0.70284100  1
  C  C206  1  0.39365300  0.16295600  0.66070900  1
  C  C207  1  0.40595400  0.17222500  0.59532300  1
  C  C208  1  0.95107600  0.38724100  0.14228500  1
  C  C209  1  0.42461800  0.23243800  0.57346300  1
  C  C210  1  0.43347600  0.28396500  0.61514300  1
  C  C211  1  0.42628400  0.27376000  0.68104400  1
  C  C212  1  0.44559200  0.06938800  0.55076200  1
  C  C213  1  0.44930800  0.02554000  0.50072500  1
  C  C214  1  0.41050800  0.03299600  0.44714200  1
  C  C215  1  0.36629200  0.08263200  0.44458500  1
  C  C216  1  0.36282700  0.12681800  0.49426600  1
  C  C217  1  0.40267500  0.12042100  0.54739700  1
  C  C218  1  0.24763300  0.89893500  0.46771200  1
  C  C219  1  0.11413000  0.21001000  0.11068200  1
  C  C220  1  0.25630800  0.85587400  0.51783100  1
  C  C221  1  0.31541000  0.82593600  0.52638800  1
  C  C222  1  0.36494800  0.83799400  0.48330600  1
  C  C223  1  0.35558500  0.87952300  0.43225300  1
  C  C224  1  0.29725200  0.91055800  0.42482200  1
  C  C225  1  0.34416900  0.71544700  0.55355400  1
  C  C226  1  0.34985300  0.66275600  0.59448800  1
  C  C227  1  0.33031800  0.66980200  0.65823000  1
  C  C228  1  0.31078400  0.72990000  0.68031300  1
  C  C229  1  0.30857700  0.78359300  0.64002700  1
  C  C230  1  0.14067500  0.36331400  0.29167500  1
  C  C231  1  0.32341000  0.77517100  0.57510000  1
  C  C232  1  0.28337800  0.56515200  0.68949600  1
  C  C233  1  0.27650900  0.51471900  0.73251200  1
  C  C234  1  0.31190500  0.51406300  0.78888000  1
  C  C235  1  0.35474700  0.56339800  0.80191900  1
  C  C236  1  0.36160800  0.61400700  0.75897500  1
  C  C237  1  0.32601200  0.61484700  0.70256000  1
  C  C238  1  0.83841100  0.72438900  0.32340600  1
  C  C239  1  0.78152300  0.69229400  0.31062900  1
  C  C240  1  0.72921000  0.72564900  0.28614200  1
  O  O1  1  0.50150600  0.49251000  0.50821600  1
  O  O2  1  0.43311200  0.40062900  0.40503600  1
  O  O3  1  0.64865600  0.46537100  0.48548800  1
  O  O4  1  0.43694700  0.40221800  0.61482600  1
  O  O5  1  0.48098000  0.34501800  0.53015000  1
  O  O6  1  0.01212300  0.26124100  0.24052500  1
  O  O7  1  0.04335700  0.22550700  0.38260800  1
  O  O8  1  0.98281800  0.11735000  0.21104700  1
  O  O9  1  0.86855100  0.28349500  0.28306000  1
  O  O10  1  0.08354600  0.14797400  0.31359900  1
  O  O11  1  0.93803200  0.32840900  0.35746700  1
  O  O12  1  0.60716000  0.56121300  0.59468100  1
  O  O13  1  0.89813100  0.18023100  0.17631900  1
  O  O14  1  0.91191800  0.33794700  0.15480000  1
  O  O15  1  0.13513100  0.34578500  0.23100800  1
  O  O16  1  0.01256400  0.38510500  0.15752700  1
  O  O17  1  0.09360300  0.35245400  0.33369700  1
  O  O18  1  0.10663400  0.16961300  0.15967600  1
  O  O19  1  0.09181400  0.26927700  0.11354500  1
  O  O20  1  0.24280800  0.99372500  0.74777000  1
  O  O21  1  0.25051800  0.09046000  0.86245400  1
  O  O22  1  0.13745200  0.06557700  0.66196000  1
  O  O23  1  0.39915900  0.55528200  0.60618600  1
  O  O24  1  0.34326800  0.05609700  0.64940600  1
  O  O25  1  0.15017300  0.09594100  0.81670400  1
  O  O26  1  0.34213600  0.10707500  0.74743700  1
  O  O27  1  0.21432400  0.01379200  0.60065100  1
  O  O28  1  0.30600400  0.90231700  0.64119200  1
  O  O29  1  0.30887300  0.89870400  0.84983900  1
  O  O30  1  0.25955000  0.84518400  0.72448700  1
  O  O31  1  0.36077500  0.99562300  0.84099300  1
  O  O32  1  0.09487800  0.97178700  0.77085700  1
  O  O33  1  0.15455900  0.89168200  0.82003500  1
  O  O34  1  0.49502100  0.59082700  0.39502300  1
  O  O35  1  0.74381100  0.75457300  0.00970200  1
  O  O36  1  0.81186700  0.85505300  0.91615300  1
  O  O37  1  0.83188000  0.63390000  0.99578700  1
  O  O38  1  0.82125500  0.83241100  0.11598500  1
  O  O39  1  0.85967800  0.75466800  0.91550700  1
  O  O40  1  0.76574800  0.89952200  0.04672300  1
  O  O41  1  0.84489800  0.67802600  0.09642500  1
  O  O42  1  0.72423100  0.72865500  0.15571700  1
  O  O43  1  0.59772800  0.78180700  0.98838400  1
  O  O44  1  0.63693600  0.69001300  0.09953700  1
  O  O45  1  0.52747200  0.51312400  0.65534000  1
  O  O46  1  0.65791900  0.86569200  0.94811400  1
  O  O47  1  0.74213800  0.66811100  0.88721600  1
  O  O48  1  0.64795100  0.65463800  0.94349800  1
  O  O49  1  0.59582800  0.59324200  0.43921100  1
  O  O50  1  0.40416500  0.60788000  0.50924300  1
  O  O51  1  0.38593700  0.50008400  0.41392200  1
  O  O52  1  0.58769200  0.38692100  0.43587900  1
