# generated using pymatgen
data_ZnH14C31N(ClO2)2
_symmetry_space_group_name_H-M   'P 1'
_cell_length_a   16.06610100
_cell_length_b   14.98563200
_cell_length_c   15.04831300
_cell_angle_alpha   90.00000000
_cell_angle_beta   89.99981300
_cell_angle_gamma   90.00000000
_symmetry_Int_Tables_number   1
_chemical_formula_structural   ZnH14C31N(ClO2)2
_chemical_formula_sum   'Zn2 H28 C62 N2 Cl4 O8'
_cell_volume   3623.04202949
_cell_formula_units_Z   2
loop_
 _symmetry_equiv_pos_site_id
 _symmetry_equiv_pos_as_xyz
  1  'x, y, z'
loop_
 _atom_site_type_symbol
 _atom_site_label
 _atom_site_symmetry_multiplicity
 _atom_site_fract_x
 _atom_site_fract_y
 _atom_site_fract_z
 _atom_site_occupancy
  Zn  Zn1  1  0.50000000  0.60700200  0.50000000  1
  Zn  Zn2  1  0.50000000  0.40382600  0.50000000  1
  H  H1  1  0.61470100  0.52158300  0.77015100  1
  H  H2  1  0.38529900  0.52158100  0.22984900  1
  H  H3  1  0.30266800  0.52622200  0.10198600  1
  H  H4  1  0.69733200  0.52622500  0.89801500  1
  H  H5  1  0.07596900  0.64855200  0.48959700  1
  H  H6  1  0.92426800  0.36436200  0.51173100  1
  H  H7  1  0.92403000  0.64855200  0.51040100  1
  H  H8  1  0.07573200  0.36436200  0.48827200  1
  H  H9  1  0.40679700  0.08749600  0.39932400  1
  H  H10  1  0.59320200  0.92333200  0.60067700  1
  H  H11  1  0.59320200  0.08749600  0.60067700  1
  H  H12  1  0.40679700  0.92333200  0.39932400  1
  H  H13  1  0.30405600  0.57829700  0.70838200  1
  H  H14  1  0.16763800  0.51923000  0.66438500  1
  H  H15  1  0.22090200  0.27487700  0.79683900  1
  H  H16  1  0.35443000  0.33610400  0.84700500  1
  H  H17  1  0.69594300  0.57830000  0.29161800  1
  H  H18  1  0.83236100  0.51923400  0.33561600  1
  H  H19  1  0.77910000  0.27488100  0.20316200  1
  H  H20  1  0.64557100  0.33610600  0.15299600  1
  H  H21  1  0.29964400  0.66682800  0.88534800  1
  H  H22  1  0.15750400  0.70833300  0.84142200  1
  H  H23  1  0.06646300  0.46331000  0.94685600  1
  H  H24  1  0.20839400  0.42163100  0.99091700  1
  H  H25  1  0.70035400  0.66683000  0.11465200  1
  H  H26  1  0.84249500  0.70833600  0.15857800  1
  H  H27  1  0.93353700  0.46331400  0.05314500  1
  H  H28  1  0.79160600  0.42163400  0.00908300  1
  C  C1  1  0.33820700  0.50546300  0.48188700  1
  C  C2  1  0.66179200  0.50546300  0.51811400  1
  C  C3  1  0.51774700  0.50550800  0.32698400  1
  C  C4  1  0.48225200  0.50550800  0.67301600  1
  C  C5  1  0.55939000  0.51683100  0.81077900  1
  C  C6  1  0.44061000  0.51683000  0.18922200  1
  C  C7  1  0.48353500  0.50708000  0.77034700  1
  C  C8  1  0.51646500  0.50708000  0.22965400  1
  C  C9  1  0.41222500  0.49940600  0.82179600  1
  C  C10  1  0.58777500  0.49940700  0.17820500  1
  C  C11  1  0.41739700  0.51043300  0.91446500  1
  C  C12  1  0.58260300  0.51043400  0.08553600  1
  C  C13  1  0.49565000  0.51284500  0.95408100  1
  C  C14  1  0.50435000  0.51284500  0.04591900  1
  C  C15  1  0.56574300  0.51482100  0.90173100  1
  C  C16  1  0.43425600  0.51482000  0.09826900  1
  C  C17  1  0.34720800  0.51800700  0.96941800  1
  C  C18  1  0.65279200  0.51800900  0.03058300  1
  C  C19  1  0.35690400  0.51882400  0.06014200  1
  C  C20  1  0.64309500  0.51882600  0.93985800  1
  C  C21  1  0.95748000  0.58610400  0.50633500  1
  C  C22  1  0.04239000  0.42683000  0.49297100  1
  C  C23  1  0.04251900  0.58610400  0.49366400  1
  C  C24  1  0.95761000  0.42683000  0.50703200  1
  C  C25  1  0.91507300  0.50641300  0.51344700  1
  C  C26  1  0.08492600  0.50641300  0.48655400  1
  C  C27  1  0.82601200  0.50609600  0.52068700  1
  C  C28  1  0.17398700  0.50609600  0.47931400  1
  C  C29  1  0.24897900  0.50568300  0.47806400  1
  C  C30  1  0.75102100  0.50568300  0.52193700  1
  C  C31  1  0.44775100  0.95940900  0.44356100  1
  C  C32  1  0.55224900  0.05141900  0.55643900  1
  C  C33  1  0.55224900  0.95940900  0.55643900  1
  C  C34  1  0.44775100  0.05141900  0.44356100  1
  C  C35  1  0.50000000  0.91340900  0.50000000  1
  C  C36  1  0.50000000  0.09741900  0.50000000  1
  C  C37  1  0.50000000  0.81766500  0.50000000  1
  C  C38  1  0.50000000  0.19316300  0.50000000  1
  C  C39  1  0.33764000  0.46104300  0.78098300  1
  C  C40  1  0.28683200  0.51089900  0.72617200  1
  C  C41  1  0.21021100  0.47767900  0.70132500  1
  C  C42  1  0.18649500  0.39298000  0.72674300  1
  C  C43  1  0.23955800  0.34111500  0.77656800  1
  C  C44  1  0.31463700  0.37540800  0.80431600  1
  C  C45  1  0.66236000  0.46104500  0.21901800  1
  C  C46  1  0.71316700  0.51090200  0.27382900  1
  C  C47  1  0.78978800  0.47768300  0.29867600  1
  C  C48  1  0.81350500  0.39298400  0.27325800  1
  C  C49  1  0.76044400  0.34111900  0.22343300  1
  C  C50  1  0.68536400  0.37541100  0.19568500  1
  C  C51  1  0.26346500  0.54006100  0.93783100  1
  C  C52  1  0.24866500  0.62144400  0.89776800  1
  C  C53  1  0.16884500  0.64497500  0.87353400  1
  C  C54  1  0.10347700  0.58788400  0.89057300  1
  C  C55  1  0.11779900  0.50769100  0.93270900  1
  C  C56  1  0.19751600  0.48427900  0.95726100  1
  C  C57  1  0.73653400  0.54006300  0.06217000  1
  C  C58  1  0.75133400  0.62144700  0.10223200  1
  C  C59  1  0.83115300  0.64497800  0.12646700  1
  C  C60  1  0.89652200  0.58788700  0.10942800  1
  C  C61  1  0.88220000  0.50769500  0.06729100  1
  C  C62  1  0.80248400  0.48428100  0.04273900  1
  N  N1  1  0.50000000  0.27036600  0.50000000  1
  N  N2  1  0.50000000  0.74046200  0.50000000  1
  Cl  Cl1  1  0.08776200  0.35222200  0.69925900  1
  Cl  Cl2  1  0.91223900  0.35222700  0.30074200  1
  Cl  Cl3  1  0.00210600  0.61775700  0.85995900  1
  Cl  Cl4  1  0.99789300  0.61776100  0.14004100  1
  O  O1  1  0.37665100  0.58250200  0.48643400  1
  O  O2  1  0.62335500  0.42834900  0.51373000  1
  O  O3  1  0.62334900  0.58250200  0.51356700  1
  O  O4  1  0.37664400  0.42834900  0.48627000  1
  O  O5  1  0.51273800  0.58243500  0.36831600  1
  O  O6  1  0.48706400  0.42833600  0.63180600  1
  O  O7  1  0.48726100  0.58243500  0.63168400  1
  O  O8  1  0.51293600  0.42833600  0.36819400  1
