# Generated by REPEAT Assigner based on pymatgen
data_DB0-m2_o11_o28_f0_pcu.sym.74_sqe
_audit_creation_date              2022-05-24
_audit_creation_method            REPEAT_Assigner
_cell_length_a                    23.364071
_cell_length_b                    11.144986
_cell_length_c                    9.572323
_cell_angle_alpha                 90.020673
_cell_angle_beta                  90.003844
_cell_angle_gamma                 90.011327
_cell_volume                      2492.558417
_symmetry_space_group_name_H-M    P1
_symmetry_Int_Tables_number       1
loop_
    _symmetry_equiv_pos_site_id
    _symmetry_equiv_pos_as_xyz
    1  x,y,z
loop_
    _atom_site_type_symbol
    _atom_site_label
    _atom_site_fract_x
    _atom_site_fract_y
    _atom_site_fract_z
    _atom_type_partial_charge
    O   O1   0.484228  0.318429  0.604569  -0.570697
    O   O2   0.489649  0.320063  0.365000  -0.527677
    C   C1   0.487799  0.262206  0.484364  0.697030
    O   O3   0.402764  0.488502  0.603672  -0.576351
    O   O4   0.404037  0.498097  0.363849  -0.576414
    C   C2   0.376495  0.493455  0.483005  0.615158
    Cu  Cu1  0.485826  0.492786  0.625756  0.994668
    Cu  Cu2  0.487321  0.494554  0.346350  0.799186
    O   O5   0.483903  0.667414  0.606965  -0.577572
    O   O6   0.489105  0.668787  0.367297  -0.486642
    O   O7   0.569103  0.489162  0.608361  -0.628098
    O   O8   0.570385  0.499325  0.368356  -0.545244
    C   C3   0.487515  0.725014  0.487529  0.671228
    C   C4   0.596634  0.494335  0.489173  0.659274
    C   C5   0.867798  0.580190  0.551345  0.414193
    N   N1   0.839274  0.487841  0.493588  -0.085956
    C   C6   0.867508  0.395508  0.434094  0.332154
    C   C7   0.927370  0.392894  0.433551  -0.039257
    C   C8   0.956921  0.490083  0.488671  0.009786
    C   C9   0.926855  0.583130  0.548337  -0.053307
    C   C10  0.958620  0.297658  0.376964  0.014062
    C   C11  0.017403  0.303938  0.371840  -0.117660
    C   C12  0.046309  0.401484  0.425340  -0.047410
    C   C13  0.016237  0.494650  0.484759  0.052864
    C   C14  0.045784  0.591888  0.539755  -0.055636
    C   C15  0.014531  0.687395  0.595794  0.020078
    C   C16  0.955763  0.680687  0.601839  -0.104806
    C   C17  0.105358  0.404472  0.422198  0.434965
    N   N2   0.133867  0.496769  0.480036  -0.135476
    C   C18  0.105640  0.588956  0.539843  0.354671
    O   O9   0.838370  0.671982  0.607284  -0.475271
    O   O10  0.836672  0.307492  0.374763  -0.408859
    H   H1   0.040455  0.228535  0.328667  0.108072
    O   O11  0.134807  0.312809  0.366041  -0.472675
    O   O12  0.136475  0.676278  0.600553  -0.409555
    H   H2   0.932681  0.755949  0.645240  0.107233
    C   C19  0.224939  0.495590  0.356258  -0.189552
    H   H3   0.202210  0.497539  0.257899  0.143193
    C   C20  0.284004  0.495034  0.356678  -0.078428
    H   H4   0.306457  0.495692  0.257992  0.120178
    C   C21  0.313666  0.493690  0.481747  -0.022429
    C   C22  0.283519  0.492683  0.606141  -0.071924
    H   H5   0.305512  0.491153  0.705424  0.111605
    C   C23  0.224514  0.493881  0.605393  -0.202253
    H   H6   0.201492  0.492226  0.703347  0.144124
    C   C24  0.194967  0.495674  0.480560  0.236821
    C   C25  0.748054  0.490626  0.616758  -0.214719
    H   H7   0.770657  0.489158  0.715301  0.136843
    C   C26  0.688998  0.492175  0.615941  -0.006774
    H   H8   0.666460  0.492687  0.714504  0.108844
    C   C27  0.659459  0.493138  0.490674  -0.121433
    C   C28  0.689730  0.492248  0.366469  0.034321
    H   H9   0.667824  0.492951  0.267067  0.089524
    C   C29  0.748735  0.490116  0.367608  -0.235734
    H   H10  0.771842  0.490514  0.269761  0.141931
    C   C30  0.778162  0.489137  0.492662  0.208742
    C   C31  0.507688  0.925636  0.385283  -0.039302
    C   C32  0.486064  0.857911  0.489581  -0.330622
    H   H11  0.465321  0.898678  0.578569  0.172838
    C   C33  0.503831  0.059039  0.378616  0.069546
    C   C34  0.488617  0.129080  0.487531  -0.380130
    H   H12  0.478881  0.089170  0.587513  0.183210
    C   C35  0.455797  0.565702  0.909546  0.174147
    N   N3   0.484029  0.490018  0.834833  -0.425252
    H   H13  0.432733  0.637751  0.858508  0.092353
    H   H14  0.498688  0.414478  0.884282  0.288812
    C   C36  0.451508  0.554879  0.064338  0.031673
    N   N4   0.487891  0.494647  0.137182  -0.236778
    H   H15  0.417202  0.602178  0.116959  0.108704
    H   H16  0.524805  0.469004  0.087239  0.216098
    C   C37  0.932756  0.185484  0.328548  0.220087
    C   C38  0.934855  0.155007  0.188839  -0.021734
    Cl  Cl1  0.965426  0.253568  0.067453  -0.100579
    C   C39  0.912094  0.047462  0.144131  -0.018599
    C   C40  0.887790  0.969640  0.239063  -0.193480
    C   C41  0.886480  0.999060  0.378927  -0.055549
    C   C42  0.909173  0.106603  0.423761  -0.209793
    H   H17  0.913371  0.024094  0.034564  0.082836
    H   H18  0.869990  0.885339  0.203918  0.126404
    H   H19  0.867812  0.937659  0.453507  0.126613
    H   H20  0.908512  0.129113  0.533609  0.116912
    C   C43  0.540180  0.868156  0.272505  0.259830
    C   C44  0.594684  0.826085  0.298535  0.031802
    Cl  Cl2  0.624704  0.841965  0.465153  -0.085154
    C   C45  0.625805  0.772598  0.193167  -0.103818
    C   C46  0.602360  0.760339  0.061777  -0.182879
    C   C47  0.547664  0.801025  0.035936  -0.063615
    C   C48  0.516472  0.854360  0.141294  -0.142049
    H   H21  0.668640  0.740443  0.213551  0.100578
    H   H22  0.626771  0.718394  0.979201  0.145817
    H   H23  0.529162  0.790855  0.933118  0.088986
    H   H24  0.473236  0.883897  0.121154  0.066309
    C   C49  0.523911  0.112991  0.248124  0.345370
    C   C50  0.485686  0.137047  0.141887  -0.024612
    Cl  Cl3  0.412389  0.111986  0.166918  -0.079860
    C   C51  0.505211  0.180641  0.015865  -0.084483
    C   C52  0.562852  0.201596  0.996481  -0.151096
    C   C53  0.600986  0.178855  0.103138  -0.092235
    C   C54  0.581544  0.134115  0.228728  -0.236485
    H   H25  0.475299  0.198108  0.932153  0.081717
    H   H26  0.578162  0.235800  0.897643  0.107681
    H   H27  0.646180  0.195062  0.087869  0.121069
    H   H28  0.611541  0.114585  0.311631  0.095505
    C   C55  0.040293  0.800224  0.642773  0.174385
    C   C56  0.065827  0.876409  0.547486  -0.025491
    Cl  Cl4  0.069704  0.835891  0.370947  -0.095641
    C   C57  0.088163  0.984659  0.591120  -0.008085
    C   C58  0.084439  0.017668  0.729636  -0.197086
    C   C59  0.058028  0.942774  0.824396  -0.059510
    C   C60  0.035618  0.834566  0.780854  -0.177267
    H   H29  0.108390  0.043897  0.516570  0.111780
    H   H30  0.101892  0.102606  0.763767  0.128302
    H   H31  0.054750  0.969050  0.932820  0.107498
    H   H32  0.014718  0.776315  0.855350  0.121386
