# Generated by REPEAT Assigner based on pymatgen
data_DB0-m29_o92_o510_f0_pts.sym.44
_audit_creation_date              2022-05-24
_audit_creation_method            REPEAT_Assigner
_cell_length_a                    14.464239
_cell_length_b                    21.802720
_cell_length_c                    13.134897
_cell_angle_alpha                 113.211896
_cell_angle_beta                  86.972539
_cell_angle_gamma                 83.073595
_cell_volume                      3756.209063
_symmetry_space_group_name_H-M    P1
_symmetry_Int_Tables_number       1
loop_
    _symmetry_equiv_pos_site_id
    _symmetry_equiv_pos_as_xyz
    1  x,y,z
loop_
    _atom_site_type_symbol
    _atom_site_label
    _atom_site_fract_x
    _atom_site_fract_y
    _atom_site_fract_z
    _atom_type_partial_charge
    C   C1   0.300528  0.992094  0.106638  -0.082797
    C   C2   0.203655  0.005222  0.117685  0.234157
    C   C3   0.157536  0.001924  0.026198  0.092072
    C   C4   0.209146  0.988086  0.924949  -0.203047
    H   H1   0.174729  0.991380  0.855957  0.167922
    C   C5   0.306076  0.975139  0.914611  0.005628
    C   C6   0.350422  0.974174  0.004533  -0.083427
    C   C7   0.054300  0.018319  0.042510  -0.069144
    C   C8   0.000677  0.994975  0.959913  -0.249478
    C   C9   0.850669  0.010399  0.888653  -0.256595
    H   H2   0.889099  0.995766  0.807715  0.139966
    C   C10  0.754707  0.027384  0.901875  0.006708
    C   C11  0.705066  0.043943  0.003751  -0.083570
    C   C12  0.749979  0.038692  0.090778  0.049576
    C   C13  0.846796  0.023899  0.078735  -0.235003
    H   H3   0.881472  0.018438  0.146154  0.152676
    C   C14  0.897766  0.012024  0.978185  0.297291
    H   H4   0.425913  0.967293  0.999864  0.141326
    H   H5   0.629483  0.052311  0.009824  0.115435
    H   H6   0.021130  0.050381  0.125467  0.107104
    H   H7   0.032357  0.963882  0.875830  0.153410
    O   O1   0.601772  0.057839  0.196666  -0.574453
    C   C15  0.692741  0.038874  0.186777  0.553122
    O   O2   0.587063  0.885182  0.175054  -0.461590
    O   O3   0.728577  0.009085  0.248323  -0.493988
    O   O4   0.579823  0.962884  0.352708  -0.476761
    C   C16  0.598823  0.899757  0.279928  0.566082
    Fe  Fe1  0.525161  0.026946  0.291154  1.401969
    O   O5   0.434630  0.974084  0.195121  -0.520182
    O   O6   0.334365  0.072774  0.280029  -0.460123
    C   C17  0.353627  0.011012  0.203172  0.613703
    O   O7   0.477756  0.114609  0.421163  -0.636321
    O   O8   0.407068  0.042567  0.472666  -0.480024
    C   C18  0.425233  0.103871  0.495266  0.777606
    O   O9   0.569868  0.913792  0.595306  -0.570114
    O   O10  0.656974  0.975823  0.534881  -0.434213
    C   C19  0.626007  0.918741  0.517663  0.687647
    O   O11  0.624206  0.053467  0.814616  -0.641165
    O   O12  0.717386  0.951809  0.727734  -0.532819
    C   C20  0.702701  0.013419  0.805213  0.708990
    O   O13  0.325695  0.984073  0.736721  -0.511999
    O   O14  0.473043  0.066826  0.664809  -0.596209
    C   C21  0.402694  0.111347  0.729839  0.650689
    O   O15  0.454409  0.974328  0.825790  -0.590712
    C   C22  0.364155  0.973907  0.818122  0.612314
    O   O16  0.382160  0.114705  0.830558  -0.508822
    Fe  Fe2  0.528664  0.002571  0.725421  1.476044
    C   C23  0.175713  0.373331  0.681825  0.498094
    O   O17  0.208716  0.393808  0.781791  -0.514805
    N   N1   0.199726  0.308514  0.607048  -0.207859
    C   C24  0.171231  0.289811  0.503850  0.409285
    C   C25  0.326329  0.213560  0.565959  -0.216287
    C   C26  0.369732  0.161011  0.588713  -0.053939
    C   C27  0.278746  0.207598  0.766633  -0.102172
    C   C28  0.228283  0.254857  0.737511  -0.167575
    C   C29  0.252930  0.259565  0.637956  0.271497
    C   C30  0.093052  0.401685  0.549739  0.129939
    C   C31  0.117974  0.419377  0.655880  -0.174956
    C   C32  0.086099  0.483491  0.735256  0.054227
    C   C33  0.122682  0.337031  0.472408  -0.088723
    C   C34  0.349848  0.159988  0.693145  -0.019836
    H   H8   0.259305  0.207249  0.846919  0.133571
    H   H9   0.169036  0.287962  0.794018  0.143490
    H   H10  0.106094  0.499603  0.818854  0.096835
    C   C35  0.639358  0.845515  0.312670  -0.025684
    C   C36  0.934139  0.552460  0.576093  0.051520
    C   C37  0.977308  0.482208  0.382272  0.040168
    C   C38  0.928700  0.540528  0.465141  0.007506
    C   C39  0.874406  0.606393  0.656808  -0.159237
    C   C40  0.813664  0.648465  0.627084  -0.077239
    C   C41  0.816537  0.640737  0.517596  -0.056348
    C   C42  0.875306  0.587626  0.437191  0.109959
    C   C43  0.879612  0.582031  0.328941  -0.265704
    C   C44  0.834705  0.634914  0.306582  0.521734
    N   N2   0.772731  0.685066  0.385265  -0.213262
    C   C45  0.759284  0.685239  0.488309  0.407110
    C   C46  0.710536  0.805135  0.440013  -0.258089
    C   C47  0.662693  0.857058  0.419602  0.025396
    C   C48  0.653159  0.779529  0.233771  -0.099588
    C   C49  0.690835  0.726772  0.259330  -0.172910
    C   C50  0.724839  0.739098  0.361105  0.275141
    O   O18  0.689430  0.728185  0.563276  -0.449249
    C   C51  0.998366  0.509810  0.603431  0.074641
    C   C52  0.038447  0.448080  0.521363  -0.027903
    C   C53  0.023514  0.432318  0.411265  0.119619
    C   C54  0.024422  0.527539  0.710507  -0.218178
    H   H11  0.735172  0.817808  0.520904  0.213954
    H   H12  0.767205  0.689240  0.692038  0.139117
    H   H13  0.869367  0.615313  0.743777  0.142910
    H   H14  0.001943  0.576879  0.776120  0.140148
    O   O19  0.187121  0.224624  0.431782  -0.454761
    C   C55  0.101021  0.319236  0.364552  -0.049545
    H   H15  0.346199  0.215606  0.487084  0.204415
    H   H16  0.122129  0.268517  0.301972  0.126327
    C   C56  0.978518  0.475206  0.272424  -0.291308
    C   C57  0.930211  0.524408  0.245254  0.416957
    O   O20  0.856822  0.638072  0.208279  -0.480078
    C   C58  0.054310  0.366752  0.333377  -0.198828
    H   H17  0.022755  0.433931  0.206430  0.157865
    H   H18  0.631544  0.767748  0.151537  0.143577
    H   H19  0.694160  0.675891  0.197355  0.149321
    H   H20  0.038756  0.349297  0.248151  0.170064
    O   O21  0.153187  0.022770  0.217016  -0.345166
    C   C59  0.162911  0.985428  0.278053  0.779221
    O   O22  0.208268  0.928808  0.238050  -0.531256
    C   C60  0.113563  0.012109  0.392874  -0.468680
    H   H21  0.037062  0.022683  0.389756  0.124364
    H   H22  0.138836  0.059381  0.445521  0.145154
    H   H23  0.128037  0.974133  0.428859  0.160940
    O   O23  0.931976  0.516118  0.137705  -0.367529
    C   C61  0.924394  0.457180  0.052585  0.858013
    O   O24  0.898827  0.410655  0.070327  -0.554388
    C   C62  0.938999  0.451281  0.935925  -0.612502
    H   H24  0.956572  0.499537  0.936643  0.167325
    H   H25  0.873877  0.440417  0.895729  0.181587
    H   H26  0.997110  0.409711  0.888894  0.173720
