# Generated by REPEAT Assigner based on pymatgen
data_DB0-m29_o80_o49_f0_pts.sym.25
_audit_creation_date              2022-05-24
_audit_creation_method            REPEAT_Assigner
_cell_length_a                    13.681351
_cell_length_b                    9.252272
_cell_length_c                    17.710520
_cell_angle_alpha                 86.787086
_cell_angle_beta                  90.633446
_cell_angle_gamma                 110.067509
_cell_volume                      2102.365628
_symmetry_space_group_name_H-M    P1
_symmetry_Int_Tables_number       1
loop_
    _symmetry_equiv_pos_site_id
    _symmetry_equiv_pos_as_xyz
    1  x,y,z
loop_
    _atom_site_type_symbol
    _atom_site_label
    _atom_site_fract_x
    _atom_site_fract_y
    _atom_site_fract_z
    _atom_type_partial_charge
    H   H1   0.960830  0.275338  0.209318  0.196502
    C   C1   0.698753  0.891043  0.903864  -0.292142
    C   C2   0.727847  0.773908  0.878937  -0.199656
    C   C3   0.826188  0.796530  0.906569  0.566663
    N   N1   0.857002  0.918421  0.950438  -0.605383
    C   C4   0.778652  0.976191  0.949257  0.598397
    C   C5   0.886240  0.718616  0.885622  -0.344204
    C   C6   0.998722  0.773274  0.898239  0.476713
    C   C7   0.069065  0.775281  0.843013  -0.302063
    C   C8   0.166232  0.836200  0.873827  -0.187787
    C   C9   0.151410  0.865931  0.947948  0.392833
    N   N2   0.048559  0.829028  0.962090  -0.478928
    C   C10  0.233673  0.926515  0.003795  -0.291357
    C   C11  0.232951  0.041527  0.045661  0.605214
    C   C12  0.311772  0.125853  0.092249  -0.305255
    C   C13  0.281820  0.242277  0.117043  -0.255379
    C   C14  0.184695  0.220326  0.088052  0.560803
    N   N3   0.154687  0.099426  0.043652  -0.593216
    C   C15  0.125215  0.298132  0.109216  -0.439034
    C   C16  0.013082  0.245870  0.096356  0.447037
    C   C17  0.942825  0.242885  0.151742  -0.290788
    C   C18  0.845735  0.181316  0.120959  -0.179214
    C   C19  0.860615  0.152493  0.046697  0.377723
    N   N4   0.963402  0.190131  0.032475  -0.455683
    C   C20  0.778447  0.091871  0.990864  -0.283288
    H   H2   0.683629  0.689072  0.840640  0.097229
    H   H3   0.051349  0.742328  0.785487  0.178393
    H   H4   0.323251  0.327332  0.156242  0.168667
    H   H5   0.156270  0.383834  0.150657  0.174292
    H   H6   0.013854  0.835780  0.013276  0.348251
    H   H7   0.998113  0.183242  0.981313  0.336068
    O   O1   0.658250  0.074350  0.135704  -0.564969
    C   C21  0.749852  0.139832  0.165813  0.707189
    O   O2   0.635904  0.811052  0.227620  -0.508872
    O   O3   0.757046  0.160240  0.238604  -0.535950
    O   O4   0.511280  0.869288  0.289795  -0.541955
    C   C22  0.571154  0.785167  0.284961  0.549901
    Fe  Fe1  0.544752  0.038812  0.210402  1.391799
    O   O5   0.411077  0.982013  0.152705  -0.631823
    O   O6   0.490880  0.234791  0.121914  -0.557093
    C   C23  0.410146  0.108671  0.115726  0.809333
    O   O7   0.593907  0.237017  0.263284  -0.570646
    O   O8   0.432982  0.122085  0.314716  -0.573355
    C   C24  0.520722  0.239332  0.309872  0.675075
    C   C25  0.454339  0.500519  0.688414  -0.119920
    C   C26  0.479862  0.637655  0.645524  0.068868
    C   C27  0.499736  0.641053  0.568614  0.006173
    C   C28  0.523201  0.776915  0.524398  -0.166136
    C   C29  0.542554  0.780039  0.448300  -0.063603
    C   C30  0.452533  0.367243  0.656288  0.092880
    C   C31  0.471775  0.370015  0.579176  0.047806
    C   C32  0.494782  0.506889  0.535257  0.043754
    C   C33  0.513376  0.509775  0.457976  0.022470
    C   C34  0.536118  0.646550  0.413856  0.087125
    C   C35  0.555378  0.648548  0.336580  -0.036746
    C   C36  0.466328  0.236711  0.545072  -0.072319
    C   C37  0.486620  0.240038  0.469236  -0.212987
    C   C38  0.509432  0.375678  0.424952  0.103912
    C   C39  0.531114  0.379372  0.348452  -0.042795
    C   C40  0.556630  0.515962  0.305557  -0.119800
    H   H8   0.526307  0.883937  0.547278  0.156190
    H   H9   0.565078  0.890733  0.417890  0.114582
    H   H10  0.445265  0.126309  0.575754  0.133467
    H   H11  0.485313  0.133502  0.446805  0.175640
    H   H12  0.570105  0.515925  0.245546  0.153914
    O   O9   0.601213  0.034931  0.841611  -0.571962
    O   O10  0.517854  0.785831  0.878107  -0.456571
    C   C41  0.600600  0.910083  0.881038  0.696273
    O   O11  0.418282  0.785635  0.728595  -0.566387
    O   O12  0.581869  0.892872  0.680403  -0.555161
    C   C42  0.492497  0.778679  0.684224  0.626182
    O   O13  0.358539  0.184573  0.755157  -0.425945
    O   O14  0.353931  0.943518  0.858314  -0.595898
    C   C43  0.262022  0.875858  0.828872  0.695213
    O   O15  0.502398  0.154207  0.705864  -0.483939
    C   C44  0.435595  0.228015  0.706065  0.387840
    O   O16  0.254090  0.853429  0.756289  -0.492766
    Fe  Fe2  0.467800  0.981454  0.783552  1.355780
    Br  Br1  0.437110  0.500468  0.795248  0.070808
    Br  Br2  0.832977  0.559145  0.816322  0.088802
    Br  Br3  0.343006  0.841897  0.012760  0.103903
    Br  Br4  0.669631  0.177592  0.981583  0.081312
