# Generated by REPEAT Assigner based on pymatgen
data_DB0-m2_o15_o25_f0_nbo.sym.106_sqe
_audit_creation_date              2022-05-24
_audit_creation_method            REPEAT_Assigner
_cell_length_a                    37.747366
_cell_length_b                    21.578765
_cell_length_c                    21.541854
_cell_angle_alpha                 90.000000
_cell_angle_beta                  122.918235
_cell_angle_gamma                 90.000000
_cell_volume                      14729.553912
_symmetry_space_group_name_H-M    P1
_symmetry_Int_Tables_number       1
loop_
    _symmetry_equiv_pos_site_id
    _symmetry_equiv_pos_as_xyz
    1  x,y,z
loop_
    _atom_site_type_symbol
    _atom_site_label
    _atom_site_fract_x
    _atom_site_fract_y
    _atom_site_fract_z
    _atom_type_partial_charge
    O   O1    0.987174  0.049760  0.575968  -0.620654
    O   O2    0.012826  0.049760  0.424032  -0.620631
    O   O3    0.487174  0.549760  0.575968  -0.620627
    O   O4    0.512826  0.549760  0.424032  -0.620631
    O   O5    0.011270  0.947848  0.599275  -0.531212
    O   O6    0.988730  0.947848  0.400725  -0.531193
    O   O7    0.511270  0.447848  0.599275  -0.531172
    O   O8    0.488730  0.447848  0.400725  -0.531151
    C   C1    0.999093  0.998834  0.616632  0.829585
    C   C2    0.000907  0.998834  0.383368  0.829549
    C   C3    0.499093  0.498834  0.616632  0.829549
    C   C4    0.500907  0.498834  0.383368  0.829565
    O   O9    0.940036  0.049800  0.424089  -0.588491
    O   O10   0.059964  0.049800  0.575911  -0.588494
    O   O11   0.440036  0.549800  0.424089  -0.588472
    O   O12   0.559964  0.549800  0.575911  -0.588493
    O   O13   0.939689  0.947780  0.458926  -0.588095
    O   O14   0.060311  0.947780  0.541074  -0.588096
    O   O15   0.439689  0.447780  0.458926  -0.588063
    O   O16   0.560311  0.447780  0.541074  -0.588087
    C   C5    0.920133  0.998729  0.422055  0.708903
    C   C6    0.079867  0.998729  0.577945  0.708937
    C   C7    0.420133  0.498729  0.422055  0.708895
    C   C8    0.579867  0.498729  0.577945  0.708941
    Cu  Cu1   -0.000000  0.059253  0.500000  0.970387
    Cu  Cu2   0.500000  0.559253  0.500000  0.970335
    Cu  Cu3   0.000000  0.938355  0.500000  0.880928
    Cu  Cu4   0.500000  0.438355  0.500000  0.880880
    C   C9    0.734995  0.027145  0.282802  -0.128549
    C   C10   0.265005  0.027145  0.717198  -0.128409
    C   C11   0.234995  0.527145  0.282802  -0.128692
    C   C12   0.765005  0.527145  0.717198  -0.128454
    C   C13   0.762001  0.969412  0.310679  -0.166734
    C   C14   0.237999  0.969412  0.689321  -0.166979
    C   C15   0.262001  0.469412  0.310679  -0.166683
    C   C16   0.737999  0.469412  0.689321  -0.166940
    H   H1    0.772547  0.945124  0.363343  0.058807
    H   H2    0.227453  0.945124  0.636657  0.058868
    H   H3    0.272547  0.445124  0.363343  0.058819
    H   H4    0.727453  0.445124  0.636657  0.058862
    H   H5    0.723433  0.893945  0.219045  0.065672
    H   H6    0.276567  0.893945  0.780955  0.065661
    H   H7    0.223433  0.393945  0.219045  0.065683
    H   H8    0.776567  0.393945  0.780955  0.065670
    C   C17   0.874814  0.998452  0.376510  -0.069017
    C   C18   0.125186  0.998452  0.623490  -0.069011
    C   C19   0.374814  0.498452  0.376510  -0.069008
    C   C20   0.625186  0.498452  0.623490  -0.068988
    C   C21   0.625189  0.000543  0.121198  -0.077363
    C   C22   0.374811  0.000543  0.878802  -0.077338
    C   C23   0.125189  0.500543  0.121198  -0.077324
    C   C24   0.874811  0.500543  0.878802  -0.077262
    C   C25   0.764230  0.057331  0.264123  -0.173066
    C   C26   0.235770  0.057331  0.735877  -0.173407
    C   C27   0.264230  0.557331  0.264123  -0.172967
    C   C28   0.735770  0.557331  0.735877  -0.173448
    C   C29   0.790615  0.999090  0.290450  0.727924
    C   C30   0.209385  0.999090  0.709551  0.728283
    C   C31   0.290615  0.499090  0.290450  0.727880
    C   C32   0.709385  0.499090  0.709551  0.728321
    C   C33   0.738217  0.029595  0.186652  -0.147496
    C   C34   0.261783  0.029595  0.813348  -0.147369
    C   C35   0.238217  0.529595  0.186652  -0.147613
    C   C36   0.761783  0.529595  0.813348  -0.147384
    C   C37   0.709423  0.999972  0.206591  0.740928
    C   C38   0.290577  0.999972  0.793409  0.740831
    C   C39   0.209423  0.499972  0.206591  0.741065
    C   C40   0.790577  0.499972  0.793409  0.740908
    C   C41   0.765470  0.971453  0.213845  -0.177381
    C   C42   0.234530  0.971453  0.786155  -0.177530
    C   C43   0.265470  0.471453  0.213845  -0.177296
    C   C44   0.734530  0.471453  0.786155  -0.177525
    C   C45   0.735999  0.941854  0.233123  -0.145186
    C   C46   0.264001  0.941854  0.766877  -0.145067
    C   C47   0.235999  0.441854  0.233123  -0.145261
    C   C48   0.764001  0.441854  0.766877  -0.145111
    C   C49   0.836788  0.998584  0.337783  -0.427997
    C   C50   0.163212  0.998584  0.662217  -0.428095
    C   C51   0.336788  0.498584  0.337783  -0.428012
    C   C52   0.663212  0.498584  0.662217  -0.428135
    C   C53   0.663232  0.000339  0.159298  -0.449225
    C   C54   0.336768  0.000339  0.840702  -0.449227
    C   C55   0.163232  0.500339  0.159298  -0.449292
    C   C56   0.836768  0.500339  0.840702  -0.449315
    H   H9    0.779338  0.948036  0.186025  0.063644
    H   H10   0.220663  0.948036  0.813975  0.063664
    H   H11   0.279338  0.448036  0.186025  0.063630
    H   H12   0.720663  0.448036  0.813975  0.063666
    H   H13   0.727504  0.054312  0.134166  0.063076
    H   H14   0.272496  0.054312  0.865834  0.063066
    H   H15   0.227504  0.554312  0.134166  0.063100
    H   H16   0.772496  0.554312  0.865834  0.063065
    H   H17   0.776623  0.105310  0.278576  0.063862
    H   H18   0.223377  0.105310  0.721424  0.063951
    H   H19   0.276623  0.605310  0.278576  0.063846
    H   H20   0.723377  0.605310  0.721424  0.063979
    H   H21   0.092019  0.160106  0.780572  0.112311
    H   H22   0.907981  0.160106  0.219428  0.112360
    H   H23   0.592019  0.660106  0.780572  0.112308
    H   H24   0.407981  0.660106  0.219428  0.112363
    C   C57   0.949945  0.913019  0.639819  -0.250139
    C   C58   0.050055  0.913019  0.360181  -0.250157
    C   C59   0.449945  0.413019  0.639819  -0.250134
    C   C60   0.550055  0.413019  0.360181  -0.250206
    C   C61   0.928142  0.868495  0.651488  -0.067709
    C   C62   0.071858  0.868495  0.348512  -0.067697
    C   C63   0.428142  0.368495  0.651488  -0.067708
    C   C64   0.571858  0.368495  0.348512  -0.067686
    C   C65   0.930829  0.866241  0.717470  -0.146671
    C   C66   0.069171  0.866241  0.282530  -0.146666
    C   C67   0.430829  0.366241  0.717470  -0.146652
    C   C68   0.569171  0.366241  0.282530  -0.146658
    C   C69   0.954335  0.909635  0.771145  -0.241162
    C   C70   0.045665  0.909635  0.228855  -0.241137
    C   C71   0.454335  0.409635  0.771145  -0.241173
    C   C72   0.545665  0.409635  0.228855  -0.241233
    C   C73   0.976255  0.955375  0.759956  0.206570
    C   C74   0.023745  0.955375  0.240044  0.206575
    C   C75   0.476255  0.455375  0.759956  0.206596
    C   C76   0.523745  0.455375  0.240044  0.206772
    C   C77   0.975320  0.955779  0.694779  0.293470
    C   C78   0.024680  0.955779  0.305221  0.293480
    C   C79   0.475320  0.455779  0.694779  0.293435
    C   C80   0.524680  0.455779  0.305221  0.293487
    C   C81   0.999207  0.000136  0.813571  -0.349657
    C   C82   0.000793  0.000136  0.186429  -0.349694
    C   C83   0.499207  0.500136  0.813571  -0.349667
    C   C84   0.500793  0.500136  0.186429  -0.349892
    C   C85   0.022416  0.044062  0.803232  0.184437
    C   C86   0.977584  0.044062  0.196768  0.184525
    C   C87   0.522416  0.544062  0.803232  0.184483
    C   C88   0.477584  0.544062  0.196768  0.184644
    C   C89   0.023377  0.042567  0.739895  0.285109
    C   C90   0.976623  0.042567  0.260105  0.284973
    C   C91   0.523377  0.542567  0.739895  0.285066
    C   C92   0.476623  0.542567  0.260105  0.284912
    C   C93   0.999165  0.999140  0.684822  -0.478815
    C   C94   0.000835  0.999140  0.315178  -0.478784
    C   C95   0.499165  0.499140  0.684822  -0.478759
    C   C96   0.500835  0.499140  0.315178  -0.478808
    C   C97   0.044758  0.089868  0.855875  -0.226316
    C   C98   0.955242  0.089868  0.144125  -0.226336
    C   C99   0.544758  0.589868  0.855875  -0.226332
    C   C100  0.455242  0.589868  0.144125  -0.226377
    C   C101  0.069215  0.131658  0.847253  -0.087425
    C   C102  0.930785  0.131658  0.152747  -0.087367
    C   C103  0.569215  0.631658  0.847253  -0.087433
    C   C104  0.430785  0.631658  0.152747  -0.087356
    C   C105  0.072103  0.128043  0.786660  -0.097754
    C   C106  0.927897  0.128043  0.213340  -0.097955
    C   C107  0.572103  0.628043  0.786660  -0.097745
    C   C108  0.427897  0.628043  0.213340  -0.097980
    C   C109  0.049484  0.083915  0.733358  -0.262034
    C   C110  0.950516  0.083915  0.266642  -0.261822
    C   C111  0.549484  0.583915  0.733358  -0.262023
    C   C112  0.450516  0.583915  0.266642  -0.261772
    H   H25   0.945939  0.912991  0.586384  0.141083
    H   H26   0.054061  0.912991  0.413616  0.141090
    H   H27   0.445939  0.412991  0.586384  0.141084
    H   H28   0.554061  0.412992  0.413616  0.141100
    H   H29   0.908922  0.835173  0.608614  0.106277
    H   H30   0.091078  0.835173  0.391386  0.106271
    H   H31   0.408922  0.335173  0.608614  0.106274
    H   H32   0.591078  0.335173  0.391386  0.106272
    H   H33   0.913956  0.830921  0.726889  0.120390
    H   H34   0.086044  0.830921  0.273111  0.120381
    H   H35   0.413956  0.330921  0.726889  0.120383
    H   H36   0.586044  0.330921  0.273111  0.120383
    H   H37   0.954966  0.905902  0.821546  0.162110
    H   H38   0.045034  0.905902  0.178454  0.162086
    H   H39   0.454966  0.405902  0.821546  0.162109
    H   H40   0.545034  0.405902  0.178454  0.162113
    H   H41   0.043822  0.094806  0.904690  0.136657
    H   H42   0.956178  0.094806  0.095310  0.136649
    H   H43   0.543822  0.594806  0.904690  0.136662
    H   H44   0.456178  0.594806  0.095310  0.136655
    H   H45   0.086608  0.166828  0.888749  0.107593
    H   H46   0.913392  0.166828  0.111252  0.107597
    H   H47   0.586608  0.666828  0.888749  0.107593
    H   H48   0.413392  0.666828  0.111252  0.107596
    H   H49   0.053605  0.082904  0.687722  0.163952
    H   H50   0.946395  0.082904  0.312279  0.163904
    H   H51   0.553605  0.582904  0.687722  0.163951
    H   H52   0.446395  0.582904  0.312279  0.163892
    O   O17   0.511932  0.088915  0.062374  -0.599670
    O   O18   0.488068  0.088915  0.937626  -0.599713
    O   O19   0.011932  0.588915  0.062374  -0.599712
    O   O20   0.988068  0.588915  0.937626  -0.599721
    C   C113  0.500000  0.118246  0.000000  0.836342
    C   C114  0.000000  0.618246  0.000000  0.836320
    O   O21   0.559806  0.982896  0.108722  -0.559075
    O   O22   0.440194  0.982896  0.891278  -0.559108
    O   O23   0.059806  0.482896  0.108722  -0.559121
    O   O24   0.940194  0.482896  0.891278  -0.559109
    O   O25   0.560423  0.018431  0.007234  -0.549111
    O   O26   0.439577  0.018431  0.992766  -0.549063
    O   O27   0.060423  0.518431  0.007234  -0.549122
    O   O28   0.939577  0.518431  0.992766  -0.549086
    C   C115  0.579850  0.000551  0.077024  0.703831
    C   C116  0.420150  0.000551  0.922976  0.703801
    C   C117  0.079850  0.500551  0.077024  0.703827
    C   C118  0.920150  0.500551  0.922976  0.703755
    Cu  Cu5   0.499654  0.000691  0.060132  0.916507
    Cu  Cu6   0.500346  0.000691  0.939868  0.916330
    Cu  Cu7   0.999654  0.500691  0.060132  0.916453
    Cu  Cu8   0.000346  0.500691  0.939868  0.916385
    O   O29   0.487522  0.912442  0.038956  -0.615350
    O   O30   0.512478  0.912442  0.961044  -0.615399
    O   O31   0.987522  0.412442  0.038956  -0.615418
    O   O32   0.012478  0.412442  0.961044  -0.615414
    C   C119  0.500000  0.883284  0.000000  0.883325
    C   C120  0.000000  0.383284  0.000000  0.883441
    O   O33   0.034934  0.089325  0.016871  -0.601298
    O   O34   0.965066  0.089325  0.983129  -0.601346
    O   O35   0.534934  0.589325  0.016871  -0.601270
    O   O36   0.465066  0.589325  0.983129  -0.601271
    C   C121  0.000000  0.118369  0.000000  0.843810
    C   C122  0.500000  0.618369  0.000000  0.843720
    O   O37   0.034652  0.984587  0.943921  -0.633382
    O   O38   0.965348  0.984587  0.056079  -0.633416
    O   O39   0.534652  0.484587  0.943921  -0.633339
    O   O40   0.465348  0.484587  0.056079  -0.633334
    O   O41   0.964639  0.016795  0.877849  -0.652933
    O   O42   0.035361  0.016795  0.122151  -0.652889
    O   O43   0.464639  0.516795  0.877849  -0.652851
    O   O44   0.535361  0.516795  0.122151  -0.652878
    C   C123  0.999488  0.000477  0.881740  0.877865
    C   C124  0.000512  0.000477  0.118260  0.877857
    C   C125  0.499488  0.500477  0.881740  0.877803
    C   C126  0.500512  0.500477  0.118260  0.877910
    Cu  Cu9   0.041355  0.000713  0.038972  0.953364
    Cu  Cu10  0.958645  0.000713  0.961028  0.953396
    Cu  Cu11  0.541355  0.500713  0.038972  0.953434
    Cu  Cu12  0.458645  0.500713  0.961028  0.953506
    O   O45   0.035098  0.912104  0.049102  -0.616640
    O   O46   0.964902  0.912104  0.950898  -0.616684
    O   O47   0.535098  0.412104  0.049102  -0.616612
    O   O48   0.464902  0.412104  0.950898  -0.616620
    C   C127  0.000000  0.883167  0.000000  0.804747
    C   C128  0.500000  0.383167  0.000000  0.804694
    C   C129  0.541406  0.189157  0.944139  -0.279093
    C   C130  0.458594  0.189157  0.055861  -0.279089
    C   C131  0.041406  0.689157  0.944139  -0.279098
    C   C132  0.958594  0.689157  0.055861  -0.279065
    C   C133  0.557861  0.221078  0.909914  -0.070862
    C   C134  0.442139  0.221078  0.090086  -0.070844
    C   C135  0.057861  0.721078  0.909914  -0.070891
    C   C136  0.942139  0.721078  0.090086  -0.070878
    C   C137  0.051778  0.784510  0.900084  -0.080834
    C   C138  0.948222  0.784510  0.099916  -0.080791
    C   C139  0.551778  0.284510  0.900084  -0.080869
    C   C140  0.448222  0.284510  0.099916  -0.080824
    C   C141  0.033397  0.815207  0.931501  -0.207379
    C   C142  0.966603  0.815207  0.068500  -0.207532
    C   C143  0.533397  0.315207  0.931501  -0.207359
    C   C144  0.466603  0.315207  0.068500  -0.207489
    C   C145  0.017580  0.783349  0.967325  0.113363
    C   C146  0.982420  0.783349  0.032676  0.113554
    C   C147  0.517580  0.283349  0.967325  0.113366
    C   C148  0.482420  0.283349  0.032676  0.113524
    C   C149  0.519222  0.219327  0.969854  0.272148
    C   C150  0.480779  0.219327  0.030146  0.272099
    C   C151  0.019222  0.719327  0.969854  0.272166
    C   C152  0.980779  0.719327  0.030146  0.272085
    C   C153  0.000000  0.815361  0.000000  -0.256378
    C   C154  0.500000  0.315361  0.000000  -0.256307
    C   C155  0.500000  0.186663  0.000000  -0.415487
    C   C156  0.000000  0.686663  0.000000  -0.415498
    H   H53   0.548226  0.140361  0.952798  0.163610
    H   H54   0.451774  0.140361  0.047202  0.163616
    H   H55   0.048226  0.640361  0.952798  0.163630
    H   H56   0.951774  0.640361  0.047202  0.163620
    H   H57   0.030088  0.864606  0.923848  0.157673
    H   H58   0.969912  0.864606  0.076152  0.157708
    H   H59   0.530088  0.364606  0.923848  0.157689
    H   H60   0.469912  0.364606  0.076152  0.157709
    H   H61   0.594362  0.806706  0.249004  0.099899
    H   H62   0.405638  0.806706  0.750996  0.099937
    H   H63   0.094362  0.306706  0.249004  0.099882
    H   H64   0.905638  0.306706  0.750996  0.099935
    C   C157  0.448916  0.813896  0.867577  -0.273789
    C   C158  0.551084  0.813896  0.132423  -0.273798
    C   C159  0.948916  0.313896  0.867577  -0.273813
    C   C160  0.051084  0.313896  0.132423  -0.273870
    C   C161  0.425736  0.781882  0.802151  -0.067730
    C   C162  0.574264  0.781882  0.197849  -0.067644
    C   C163  0.925736  0.281882  0.802151  -0.067744
    C   C164  0.074264  0.281882  0.197849  -0.067586
    C   C165  0.928320  0.218570  0.801667  -0.067302
    C   C166  0.071680  0.218570  0.198333  -0.067386
    C   C167  0.428320  0.718570  0.801667  -0.067306
    C   C168  0.571680  0.718570  0.198333  -0.067301
    C   C169  0.953142  0.186934  0.866890  -0.243427
    C   C170  0.046858  0.186934  0.133110  -0.243367
    C   C171  0.453142  0.686934  0.866890  -0.243396
    C   C172  0.546858  0.686934  0.133110  -0.243407
    C   C173  0.976115  0.218521  0.933781  0.179500
    C   C174  0.023885  0.218521  0.066220  0.179438
    C   C175  0.476115  0.718521  0.933781  0.179488
    C   C176  0.523885  0.718521  0.066220  0.179466
    C   C177  0.475246  0.782764  0.933906  0.263223
    C   C178  0.524754  0.782764  0.066095  0.263203
    C   C179  0.975246  0.282764  0.933906  0.263276
    C   C180  0.024754  0.282764  0.066095  0.263296
    C   C181  0.000000  0.186340  0.000000  -0.355541
    C   C182  0.500000  0.686340  0.000000  -0.355473
    C   C183  0.500000  0.815131  0.000000  -0.447297
    C   C184  0.000000  0.315131  0.000000  -0.447404
    H   H65   0.445189  0.863471  0.864432  0.161380
    H   H66   0.554811  0.863471  0.135568  0.161375
    H   H67   0.945189  0.363471  0.864432  0.161392
    H   H68   0.054811  0.363471  0.135568  0.161396
    H   H69   0.910472  0.193454  0.750100  0.094145
    H   H70   0.089528  0.193454  0.249900  0.094155
    H   H71   0.410472  0.693454  0.750100  0.094152
    H   H72   0.589528  0.693454  0.249900  0.094136
    H   H73   0.953888  0.137261  0.863117  0.144709
    H   H74   0.046112  0.137261  0.136883  0.144702
    H   H75   0.453888  0.637261  0.863117  0.144701
    H   H76   0.546112  0.637261  0.136883  0.144714
    C   C185  0.416950  0.186030  0.111226  0.338252
    C   C186  0.379666  0.205890  0.101756  -0.204920
    C   C187  0.365994  0.157946  0.124146  -0.264988
    C   C188  0.395487  0.111915  0.144832  -0.037790
    O   O49   0.426413  0.128456  0.136399  -0.144672
    H   H77   0.363729  0.249591  0.079390  0.138369
    H   H78   0.337478  0.156012  0.124464  0.174378
    H   H79   0.393698  0.066852  0.164880  0.124158
    C   C189  0.583050  0.186030  0.888774  0.338401
    C   C190  0.620334  0.205890  0.898244  -0.205013
    C   C191  0.634006  0.157946  0.875854  -0.265111
    C   C192  0.604513  0.111915  0.855168  -0.037612
    O   O50   0.573587  0.128456  0.863601  -0.144773
    H   H80   0.636271  0.249591  0.920610  0.138417
    H   H81   0.662522  0.156012  0.875536  0.174413
    H   H82   0.606302  0.066852  0.835120  0.124113
    C   C193  0.916950  0.686030  0.111226  0.338259
    C   C194  0.879666  0.705890  0.101756  -0.204924
    C   C195  0.865994  0.657946  0.124146  -0.264985
    C   C196  0.895487  0.611915  0.144832  -0.037789
    O   O51   0.926413  0.628456  0.136399  -0.144667
    H   H83   0.863729  0.749591  0.079390  0.138375
    H   H84   0.837478  0.656012  0.124464  0.174377
    H   H85   0.893698  0.566852  0.164880  0.124160
    C   C197  0.083050  0.686030  0.888774  0.338404
    C   C198  0.120334  0.705890  0.898244  -0.205024
    C   C199  0.134006  0.657946  0.875854  -0.265110
    C   C200  0.104513  0.611915  0.855168  -0.037624
    O   O52   0.073587  0.628456  0.863601  -0.144760
    H   H86   0.136271  0.749591  0.920610  0.138418
    H   H87   0.162522  0.656012  0.875536  0.174415
    H   H88   0.106302  0.566852  0.835120  0.124119
    C   C201  0.062310  0.820936  0.854744  0.311761
    C   C202  0.053898  0.803277  0.786644  -0.124995
    C   C203  0.065878  0.851948  0.762308  -0.266364
    C   C204  0.080293  0.896162  0.816675  0.023023
    O   O53   0.077722  0.877896  0.872789  -0.186116
    H   H89   0.039733  0.760499  0.757431  0.116196
    H   H90   0.063842  0.855578  0.710423  0.149208
    H   H91   0.091845  0.941272  0.814006  0.101803
    C   C205  0.937690  0.820936  0.145256  0.311804
    C   C206  0.946102  0.803277  0.213356  -0.125079
    C   C207  0.934122  0.851948  0.237692  -0.266336
    C   C208  0.919707  0.896162  0.183325  0.023008
    O   O54   0.922278  0.877896  0.127211  -0.186115
    H   H92   0.960267  0.760499  0.242569  0.116228
    H   H93   0.936158  0.855578  0.289577  0.149203
    H   H94   0.908155  0.941272  0.185994  0.101808
    C   C209  0.562310  0.320936  0.854744  0.311767
    C   C210  0.553898  0.303277  0.786644  -0.124989
    C   C211  0.565878  0.351948  0.762308  -0.266361
    C   C212  0.580293  0.396162  0.816675  0.023022
    O   O55   0.577722  0.377896  0.872789  -0.186116
    H   H95   0.539733  0.260499  0.757431  0.116194
    H   H96   0.563842  0.355578  0.710423  0.149208
    H   H97   0.591845  0.441272  0.814006  0.101803
    C   C213  0.437690  0.320936  0.145256  0.311827
    C   C214  0.446102  0.303277  0.213356  -0.125061
    C   C215  0.434122  0.351948  0.237692  -0.266363
    C   C216  0.419707  0.396162  0.183325  0.023043
    O   O56   0.422278  0.377896  0.127211  -0.186133
    H   H98   0.460267  0.260499  0.242569  0.116221
    H   H99   0.436158  0.355578  0.289577  0.149204
    H   H100  0.408155  0.441272  0.185994  0.101802
    C   C217  0.718070  0.058953  0.322605  0.217943
    C   C218  0.742985  0.083031  0.392461  -0.236102
    C   C219  0.715749  0.107670  0.408397  -0.209843
    C   C220  0.676132  0.096858  0.347080  -0.095185
    O   O57   0.677307  0.067113  0.294443  -0.075775
    H   H101  0.777058  0.082467  0.427326  0.153570
    H   H102  0.723577  0.130933  0.458772  0.160309
    H   H103  0.647109  0.110825  0.341794  0.137743
    C   C221  0.281930  0.058953  0.677395  0.217995
    C   C222  0.257015  0.083031  0.607539  -0.236154
    C   C223  0.284251  0.107670  0.591603  -0.209845
    C   C224  0.323868  0.096858  0.652920  -0.095165
    O   O58   0.322693  0.067113  0.705557  -0.075799
    H   H104  0.222942  0.082467  0.572674  0.153589
    H   H105  0.276423  0.130933  0.541228  0.160313
    H   H106  0.352891  0.110825  0.658206  0.137736
    C   C225  0.218070  0.558953  0.322605  0.217983
    C   C226  0.242985  0.583031  0.392461  -0.236131
    C   C227  0.215749  0.607670  0.408397  -0.209831
    C   C228  0.176132  0.596858  0.347080  -0.095183
    O   O59   0.177307  0.567113  0.294443  -0.075773
    H   H107  0.277058  0.582467  0.427326  0.153578
    H   H108  0.223577  0.630933  0.458772  0.160305
    H   H109  0.147109  0.610825  0.341794  0.137739
    C   C229  0.781930  0.558953  0.677395  0.217988
    C   C230  0.757015  0.583031  0.607539  -0.236167
    C   C231  0.784251  0.607670  0.591603  -0.209808
    C   C232  0.823868  0.596858  0.652920  -0.095182
    O   O60   0.822693  0.567113  0.705557  -0.075780
    H   H110  0.722942  0.582467  0.572674  0.153592
    H   H111  0.776423  0.630933  0.541228  0.160291
    H   H112  0.852891  0.610825  0.658206  0.137737
