# generated using pymatgen
data_FeH13C24O11
_symmetry_space_group_name_H-M   'P 1'
_cell_length_a   15.83711100
_cell_length_b   9.38143900
_cell_length_c   18.21761600
_cell_angle_alpha   90.09539100
_cell_angle_beta   100.25067800
_cell_angle_gamma   97.42452000
_symmetry_Int_Tables_number   1
_chemical_formula_structural   FeH13C24O11
_chemical_formula_sum   'Fe2 H26 C48 O22'
_cell_volume   2640.30359511
_cell_formula_units_Z   2
loop_
 _symmetry_equiv_pos_site_id
 _symmetry_equiv_pos_as_xyz
  1  'x, y, z'
loop_
 _atom_site_type_symbol
 _atom_site_label
 _atom_site_symmetry_multiplicity
 _atom_site_fract_x
 _atom_site_fract_y
 _atom_site_fract_z
 _atom_site_occupancy
  Fe  Fe1  1  0.50980200  0.99955600  0.84913200  1
  Fe  Fe2  1  0.50972900  0.01219300  0.16913900  1
  H  H1  1  0.07846200  0.02185100  0.86482800  1
  H  H2  1  0.19315000  0.01544200  0.09199300  1
  H  H3  1  0.83008100  0.95833600  0.92908700  1
  H  H4  1  0.79200900  0.02699400  0.18754400  1
  H  H5  1  0.50229600  0.28627500  0.60153300  1
  H  H6  1  0.49357600  0.27080100  0.37684500  1
  H  H7  1  0.49002200  0.72050600  0.40515700  1
  H  H8  1  0.51364200  0.46086900  0.81865700  1
  H  H9  1  0.14471100  0.21532800  0.79465100  1
  H  H10  1  0.11997900  0.08438900  0.71798700  1
  H  H11  1  0.21774200  0.21144200  0.72953300  1
  H  H12  1  0.39998600  0.46850500  0.13418700  1
  H  H13  1  0.47708800  0.45857700  0.07234000  1
  H  H14  1  0.43707600  0.62631200  0.08591500  1
  H  H15  1  0.69986600  0.49189900  0.60375300  1
  H  H16  1  0.75179300  0.58120800  0.53236000  1
  H  H17  1  0.68111800  0.41326500  0.51047100  1
  H  H18  1  0.35181600  0.22953400  0.40518300  1
  H  H19  1  0.31690100  0.39701500  0.36872900  1
  H  H20  1  0.26094400  0.29632200  0.43383200  1
  H  H21  1  0.90500500  0.20860800  0.22899200  1
  H  H22  1  0.02097000  0.22088300  0.24820400  1
  H  H23  1  0.95725900  0.08077700  0.29010900  1
  H  H24  1  0.44460400  0.76726700  0.52658300  1
  H  H25  1  0.48905700  0.94663800  0.56160400  1
  H  H26  1  0.41241300  0.83827100  0.60799800  1
  C  C1  1  0.21625400  0.02806400  0.88596400  1
  C  C2  1  0.13624800  0.02310900  0.90669400  1
  C  C3  1  0.12907000  0.01765000  0.98060600  1
  C  C4  1  0.20169600  0.01908200  0.03449300  1
  C  C5  1  0.28304900  0.02492900  0.01565200  1
  C  C6  1  0.29038300  0.02731000  0.94024600  1
  C  C7  1  0.04573900  0.01055700  0.00203200  1
  C  C8  1  0.97585700  0.00418500  0.02023800  1
  C  C9  1  0.82019700  0.97138700  0.98574100  1
  C  C10  1  0.73775700  0.96853400  0.00146600  1
  C  C11  1  0.72797900  0.98742300  0.07523400  1
  C  C12  1  0.80054500  0.01567900  0.13040000  1
  C  C13  1  0.88290900  0.02075500  0.11409100  1
  C  C14  1  0.89213500  0.99614900  0.04116200  1
  C  C15  1  0.49767400  0.21476200  0.74275700  1
  C  C16  1  0.37508300  0.04122600  0.91723400  1
  C  C17  1  0.66476900  0.95921400  0.93827800  1
  C  C18  1  0.52377100  0.73885400  0.78586600  1
  C  C19  1  0.52015500  0.27420000  0.23469600  1
  C  C20  1  0.35702800  0.02396600  0.07777000  1
  C  C21  1  0.64299300  0.97373200  0.09789400  1
  C  C22  1  0.51775600  0.79673200  0.27127600  1
  C  C23  1  0.52329200  0.61703600  0.73349500  1
  C  C24  1  0.52680200  0.63495500  0.65807600  1
  C  C25  1  0.51837100  0.51535500  0.61095300  1
  C  C26  1  0.50668800  0.37861500  0.63824800  1
  C  C27  1  0.50672700  0.35985200  0.71305200  1
  C  C28  1  0.51577900  0.47838600  0.76040000  1
  C  C29  1  0.53071800  0.53288600  0.53333400  1
  C  C30  1  0.47186000  0.47463700  0.47487900  1
  C  C31  1  0.49761300  0.37742800  0.35434900  1
  C  C32  1  0.51089600  0.39799900  0.28152700  1
  C  C33  1  0.51623600  0.53668900  0.25411200  1
  C  C34  1  0.51133900  0.65159600  0.29988000  1
  C  C35  1  0.49847700  0.63009800  0.37166900  1
  C  C36  1  0.49137100  0.49362200  0.39935200  1
  C  C37  1  0.22073700  0.03992500  0.80614600  1
  C  C38  1  0.17253400  0.14411400  0.75937300  1
  C  C39  1  0.52872400  0.56647100  0.17753900  1
  C  C40  1  0.45618300  0.52720200  0.11354300  1
  C  C41  1  0.61698100  0.59639400  0.52164200  1
  C  C42  1  0.69219600  0.51554500  0.54350100  1
  C  C43  1  0.38358000  0.40908300  0.48239700  1
  C  C44  1  0.32520200  0.32821900  0.41826600  1
  C  C45  1  0.95913800  0.04709400  0.17437600  1
  C  C46  1  0.96005800  0.14502700  0.23934900  1
  C  C47  1  0.53978200  0.77846200  0.62706900  1
  C  C48  1  0.46698100  0.83588300  0.57758000  1
  O  O1  1  0.53955600  0.19246200  0.80975200  1
  O  O2  1  0.42892200  0.16021000  0.93327400  1
  O  O3  1  0.44695400  0.10942300  0.70352600  1
  O  O4  1  0.39578800  0.93855300  0.87734700  1
  O  O5  1  0.58889800  0.98991300  0.94753600  1
  O  O6  1  0.67839800  0.93869900  0.87031900  1
  O  O7  1  0.51893600  0.87143000  0.76327500  1
  O  O8  1  0.52286400  0.71253600  0.85646900  1
  O  O9  1  0.49789800  0.14178400  0.25353200  1
  O  O10  1  0.55069200  0.29378200  0.17267300  1
  O  O11  1  0.43736200  0.02790600  0.06787700  1
  O  O12  1  0.34196000  0.01492200  0.14625600  1
  O  O13  1  0.57395500  0.89931000  0.30749100  1
  O  O14  1  0.62783500  0.06426200  0.14751400  1
  O  O15  1  0.47145000  0.82123000  0.20657200  1
  O  O16  1  0.58411100  0.86464800  0.07317300  1
  O  O17  1  0.25949100  0.95916600  0.77628400  1
  O  O18  1  0.59723100  0.63015900  0.16649400  1
  O  O19  1  0.62864500  0.71813400  0.49883300  1
  O  O20  1  0.35444200  0.42952000  0.53853800  1
  O  O21  1  0.02254800  0.98696200  0.17243400  1
  O  O22  1  0.60890400  0.85464900  0.64525000  1
