data_DB0-m3_o11_o29_f0_pcu.sym.104_repeat
_audit_creation_date              2024-02-23
_audit_creation_method            'Materials Studio'
_symmetry_space_group_name_H-M    'P1'
_symmetry_Int_Tables_number       1
_symmetry_cell_setting            triclinic
loop_
_symmetry_equiv_pos_as_xyz
  x,y,z
_cell_length_a                    27.6191
_cell_length_b                    11.1361
_cell_length_c                    9.9408
_cell_angle_alpha                 89.9974
_cell_angle_beta                  89.9930
_cell_angle_gamma                 89.9936
loop_
_atom_site_label
_atom_site_type_symbol
_atom_site_fract_x
_atom_site_fract_y
_atom_site_fract_z
_atom_site_U_iso_or_equiv
_atom_site_adp_type
_atom_site_occupancy
O1     O     0.49787   0.32105   0.61475   0.00000  Uiso   1.00
O2     O     0.50309   0.32104   0.38342   0.00000  Uiso   1.00
C1     C     0.50016   0.26499   0.49927   0.00000  Uiso   1.00
O3     O     0.42729   0.50187   0.60097   0.00000  Uiso   1.00
O4     O     0.43171   0.50244   0.36921   0.00000  Uiso   1.00
C2     C     0.40684   0.50285   0.48194   0.00000  Uiso   1.00
Zn1    Zn    0.49817   0.49960   0.65297   0.00000  Uiso   1.00
Zn2    Zn    0.50468   0.50018   0.34740   0.00000  Uiso   1.00
O5     O     0.49974   0.67861   0.61730   0.00000  Uiso   1.00
O6     O     0.50475   0.67907   0.38512   0.00000  Uiso   1.00
O7     O     0.57114   0.49702   0.63115   0.00000  Uiso   1.00
O8     O     0.57556   0.49818   0.39942   0.00000  Uiso   1.00
C3     C     0.50245   0.73476   0.50152   0.00000  Uiso   1.00
C4     C     0.59601   0.49686   0.51842   0.00000  Uiso   1.00
C5     C     0.17735   0.41315   0.41971   0.00000  Uiso   1.00
O9     O     0.20199   0.31923   0.36952   0.00000  Uiso   1.00
N1     N     0.20172   0.50850   0.46830   0.00000  Uiso   1.00
C6     C     0.17761   0.60218   0.52183   0.00000  Uiso   1.00
C7     C     0.27950   0.50086   0.35165   0.00000  Uiso   1.00
C8     C     0.32952   0.49982   0.35465   0.00000  Uiso   1.00
C9     C     0.32742   0.51110   0.59451   0.00000  Uiso   1.00
C10    C     0.27761   0.51284   0.59115   0.00000  Uiso   1.00
C11    C     0.25339   0.50773   0.47000   0.00000  Uiso   1.00
C12    C     0.10196   0.50385   0.48161   0.00000  Uiso   1.00
C13    C     0.12727   0.40988   0.42549   0.00000  Uiso   1.00
C14    C     0.10252   0.31153   0.37851   0.00000  Uiso   1.00
C15    C     0.12759   0.60085   0.52932   0.00000  Uiso   1.00
C16    C     0.35375   0.50473   0.47634   0.00000  Uiso   1.00
H1     H     0.34521   0.51487   0.69119   0.00000  Uiso   1.00
H2     H     0.25756   0.51669   0.68447   0.00000  Uiso   1.00
H3     H     0.12136   0.23530   0.33635   0.00000  Uiso   1.00
C17    C     0.64910   0.49503   0.52395   0.00000  Uiso   1.00
C18    C     0.97570   0.40269   0.44241   0.00000  Uiso   1.00
C19    C     0.97673   0.58800   0.56800   0.00000  Uiso   1.00
C20    C     0.95131   0.49374   0.50985   0.00000  Uiso   1.00
C21    C     0.94844   0.31374   0.37915   0.00000  Uiso   1.00
C22    C     0.89885   0.31299   0.38707   0.00000  Uiso   1.00
C23    C     0.87491   0.40093   0.45747   0.00000  Uiso   1.00
C24    C     0.90100   0.49083   0.51870   0.00000  Uiso   1.00
C25    C     0.87613   0.57820   0.58813   0.00000  Uiso   1.00
C26    C     0.82604   0.57572   0.59372   0.00000  Uiso   1.00
N2     N     0.80118   0.48768   0.53149   0.00000  Uiso   1.00
C27    C     0.82489   0.40029   0.46471   0.00000  Uiso   1.00
C28    C     0.72334   0.48699   0.64849   0.00000  Uiso   1.00
C29    C     0.67332   0.48937   0.64561   0.00000  Uiso   1.00
C30    C     0.67545   0.49872   0.40568   0.00000  Uiso   1.00
C31    C     0.72526   0.49642   0.40886   0.00000  Uiso   1.00
C32    C     0.74949   0.49013   0.52996   0.00000  Uiso   1.00
O10    O     0.79967   0.31133   0.40611   0.00000  Uiso   1.00
C33    C     0.02644   0.40312   0.43870   0.00000  Uiso   1.00
C34    C     0.05166   0.50057   0.49067   0.00000  Uiso   1.00
C35    C     0.02706   0.59460   0.55210   0.00000  Uiso   1.00
C36    C     0.05291   0.30779   0.38507   0.00000  Uiso   1.00
H4     H     0.65359   0.48615   0.73942   0.00000  Uiso   1.00
H5     H     0.74189   0.48120   0.74403   0.00000  Uiso   1.00
H6     H     0.87936   0.24242   0.33581   0.00000  Uiso   1.00
H7     H     0.96381   0.24385   0.31817   0.00000  Uiso   1.00
H8     H     0.03687   0.22574   0.34997   0.00000  Uiso   1.00
O11    O     0.20244   0.69774   0.56718   0.00000  Uiso   1.00
C37    C     0.10314   0.69654   0.58392   0.00000  Uiso   1.00
H9     H     0.34923   0.49474   0.26092   0.00000  Uiso   1.00
H10    H     0.26089   0.49749   0.25606   0.00000  Uiso   1.00
H11    H     0.12214   0.77520   0.61937   0.00000  Uiso   1.00
C38    C     0.95094   0.67301   0.64201   0.00000  Uiso   1.00
C39    C     0.90140   0.66818   0.65127   0.00000  Uiso   1.00
O12    O     0.80191   0.66382   0.65730   0.00000  Uiso   1.00
C40    C     0.05364   0.69393   0.59491   0.00000  Uiso   1.00
H12    H     0.96770   0.74420   0.69809   0.00000  Uiso   1.00
H13    H     0.65768   0.50383   0.30904   0.00000  Uiso   1.00
H14    H     0.88305   0.73655   0.70912   0.00000  Uiso   1.00
H15    H     0.74526   0.50082   0.31550   0.00000  Uiso   1.00
H16    H     0.03755   0.77413   0.63496   0.00000  Uiso   1.00
C41    C     0.50357   0.93301   0.39327   0.00000  Uiso   1.00
C42    C     0.50292   0.86630   0.50545   0.00000  Uiso   1.00
H17    H     0.50433   0.88864   0.29630   0.00000  Uiso   1.00
H18    H     0.50282   0.90605   0.60439   0.00000  Uiso   1.00
C43    C     0.50381   0.06613   0.39259   0.00000  Uiso   1.00
C44    C     0.49940   0.13350   0.50348   0.00000  Uiso   1.00
H19    H     0.50748   0.10991   0.29579   0.00000  Uiso   1.00
H20    H     0.49501   0.09423   0.60191   0.00000  Uiso   1.00
C45    C     0.50210   0.59077   0.92847   0.00000  Uiso   1.00
N3     N     0.49305   0.49928   0.85370   0.00000  Uiso   1.00
H21    H     0.51523   0.67302   0.88314   0.00000  Uiso   1.00
C46    C     0.49388   0.58775   0.07512   0.00000  Uiso   1.00
N4     N     0.51085   0.50163   0.14691   0.00000  Uiso   1.00
H22    H     0.47687   0.66395   0.12371   0.00000  Uiso   1.00
H23    H     0.53169   0.43971   0.09645   0.00000  Uiso   1.00
C47    C     0.46395   0.41167   0.91111   0.00000  Uiso   1.00
N5     N     0.43965   0.33855   0.95886   0.00000  Uiso   1.00
