# generated using pymatgen
data_Zn2H20C31(N3O4)2
_symmetry_space_group_name_H-M   'P 1'
_cell_length_a   8.52938200
_cell_length_b   10.70386100
_cell_length_c   13.44269900
_cell_angle_alpha   97.62384200
_cell_angle_beta   90.09560600
_cell_angle_gamma   90.00840200
_symmetry_Int_Tables_number   1
_chemical_formula_structural   Zn2H20C31(N3O4)2
_chemical_formula_sum   'Zn2 H20 C31 N6 O8'
_cell_volume   1216.43194495
_cell_formula_units_Z   1
loop_
 _symmetry_equiv_pos_site_id
 _symmetry_equiv_pos_as_xyz
  1  'x, y, z'
loop_
 _atom_site_type_symbol
 _atom_site_label
 _atom_site_symmetry_multiplicity
 _atom_site_fract_x
 _atom_site_fract_y
 _atom_site_fract_z
 _atom_site_occupancy
  Zn  Zn1  1  0.50248500  0.49145900  0.11131300  1
  Zn  Zn2  1  0.50506200  0.50199700  0.89000300  1
  H  H1  1  0.61518200  0.89476300  0.01984000  1
  H  H2  1  0.99990300  0.58911600  0.05917000  1
  H  H3  1  0.00078900  0.40523100  0.94237900  1
  H  H4  1  0.25809900  0.89929200  0.99003500  1
  H  H5  1  0.25983200  0.09202000  0.00458300  1
  H  H6  1  0.48820100  0.70235100  0.76958400  1
  H  H7  1  0.69619900  0.72352500  0.48531700  1
  H  H8  1  0.46061000  0.18211800  0.38610700  1
  H  H9  1  0.51722800  0.18499100  0.56246300  1
  H  H10  1  0.35253800  0.74244700  0.55342600  1
  H  H11  1  0.53851900  0.80458800  0.43087000  1
  H  H12  1  0.31671800  0.27551000  0.46165500  1
  H  H13  1  0.66882500  0.26479300  0.50221200  1
  H  H14  1  0.54069600  0.68244700  0.26733300  1
  H  H15  1  0.42033900  0.22634300  0.71839400  1
  H  H16  1  0.62088300  0.22975600  0.71971600  1
  H  H17  1  0.65211600  0.82765500  0.65076700  1
  H  H18  1  0.52214500  0.91949800  0.59892700  1
  H  H19  1  0.31804200  0.25878800  0.20899200  1
  H  H20  1  0.50918300  0.24454000  0.16399300  1
  C  C1  1  0.00174800  0.68697300  0.04753900  1
  C  C2  1  0.14207000  0.74330500  0.03101600  1
  C  C3  1  0.14531500  0.86453100  0.00883400  1
  C  C4  1  0.86284400  0.74844100  0.03572100  1
  C  C5  1  0.86519800  0.87376100  0.01842400  1
  C  C6  1  0.00749100  0.93382100  0.00821700  1
  C  C7  1  0.00785200  0.06006200  0.99264100  1
  C  C8  1  0.14637300  0.12784300  0.98821200  1
  C  C9  1  0.14304100  0.24931800  0.96620500  1
  C  C10  1  0.72699500  0.93970800  0.01165400  1
  C  C11  1  0.86607700  0.12224800  0.98650800  1
  C  C12  1  0.86444700  0.24721900  0.96958200  1
  C  C13  1  0.00254000  0.30730500  0.95379900  1
  C  C14  1  0.28349500  0.66666667  0.02135000  1
  C  C15  1  0.28426200  0.32604300  0.97607100  1
  C  C16  1  0.72274900  0.32451500  0.97975800  1
  C  C17  1  0.72104300  0.67040600  0.02544400  1
  C  C18  1  0.51671200  0.39373500  0.69975000  1
  C  C19  1  0.49978000  0.61479500  0.71996200  1
  C  C20  1  0.50149500  0.61381800  0.61651200  1
  C  C21  1  0.51201000  0.50043500  0.55560200  1
  C  C22  1  0.52194200  0.39004000  0.59664500  1
  C  C23  1  0.47918100  0.73134300  0.56887500  1
  C  C24  1  0.56842100  0.72267600  0.46985400  1
  C  C25  1  0.52889400  0.60333000  0.40417400  1
  C  C26  1  0.50735300  0.49598300  0.44721500  1
  C  C27  1  0.47777800  0.38431800  0.38783300  1
  C  C28  1  0.44080500  0.27088600  0.43693300  1
  C  C29  1  0.54505100  0.27013500  0.52755100  1
  C  C30  1  0.52374400  0.59712300  0.30067600  1
  C  C31  1  0.47399100  0.37979100  0.28470100  1
  N  N1  1  0.72990500  0.06161900  0.99660800  1
  N  N2  1  0.50828800  0.50554600  0.75979800  1
  N  N3  1  0.49967800  0.48607100  0.24148200  1
  N  N4  1  0.51909900  0.27930400  0.74305500  1
  N  N5  1  0.53332600  0.84035200  0.63616900  1
  N  N6  1  0.43725100  0.26207000  0.22661000  1
  O  O1  1  0.33508900  0.62934700  0.93008000  1
  O  O2  1  0.33860800  0.62509100  0.10227400  1
  O  O3  1  0.33387700  0.36441900  0.06706800  1
  O  O4  1  0.34054800  0.36812100  0.89626700  1
  O  O5  1  0.67227100  0.36402800  0.07050700  1
  O  O6  1  0.66995400  0.36938600  0.90018500  1
  O  O7  1  0.67208000  0.63094200  0.93382900  1
  O  O8  1  0.66682400  0.62576500  0.10531000  1
