# Generated by REPEAT Assigner based on pymatgen
data_DB0-m29_o90_o45_f0_pts.sym.126
_audit_creation_date              2022-05-24
_audit_creation_method            REPEAT_Assigner
_cell_length_a                    9.351601
_cell_length_b                    17.301522
_cell_length_c                    16.990005
_cell_angle_alpha                 106.492262
_cell_angle_beta                  89.037103
_cell_angle_gamma                 76.418873
_cell_volume                      2551.837782
_symmetry_space_group_name_H-M    P1
_symmetry_Int_Tables_number       1
loop_
    _symmetry_equiv_pos_site_id
    _symmetry_equiv_pos_as_xyz
    1  x,y,z
loop_
    _atom_site_type_symbol
    _atom_site_label
    _atom_site_fract_x
    _atom_site_fract_y
    _atom_site_fract_z
    _atom_type_partial_charge
    C   C1   0.114653  0.029057  0.773960  0.063666
    C   C2   0.134229  0.022819  0.853142  -0.235128
    C   C3   0.023974  0.006895  0.897076  0.351807
    C   C4   0.892519  0.998882  0.862635  -0.116969
    H   H1   0.804586  0.985993  0.894913  0.068012
    C   C5   0.869772  0.009686  0.785933  -0.032032
    C   C6   0.980185  0.025219  0.742267  -0.159501
    N   N1   0.048581  0.000696  0.977359  -0.114808
    N   N2   0.940627  0.991114  0.013863  -0.243508
    C   C7   0.856767  0.975801  0.142055  -0.423464
    H   H2   0.749938  0.976425  0.118596  0.206333
    C   C8   0.880382  0.967802  0.219785  0.183819
    C   C9   0.017818  0.966081  0.248249  -0.264310
    C   C10  0.129405  0.976216  0.201230  0.135939
    C   C11  0.105496  0.985767  0.124153  -0.304554
    H   H3   0.196140  0.993286  0.089209  0.112765
    C   C12  0.968935  0.984059  0.093541  0.513602
    H   H4   0.963811  0.029361  0.680674  0.207066
    H   H5   0.036551  0.960867  0.309286  0.213447
    O   O1   0.624519  0.975481  0.251814  -0.516782
    C   C13  0.759533  0.965078  0.273951  0.547234
    O   O2   0.590180  0.807617  0.281671  -0.556384
    O   O3   0.783866  0.957794  0.347666  -0.511963
    O   O4   0.542134  0.898716  0.409597  -0.505761
    C   C14  0.591175  0.822105  0.361761  0.585937
    Fe  Fe1  0.490449  0.978011  0.344313  1.454705
    O   O5   0.307673  0.950004  0.296591  -0.587940
    O   O6   0.352193  0.023085  0.210453  -0.518770
    C   C15  0.270208  0.981297  0.235652  0.642407
    O   O7   0.479092  0.091742  0.421163  -0.589287
    O   O8   0.232602  0.102726  0.414858  -0.472546
    C   C16  0.341605  0.133099  0.446849  0.563450
    O   O9   0.526804  0.888792  0.562668  -0.596373
    O   O10  0.772247  0.881539  0.569017  -0.476639
    C   C17  0.665146  0.849302  0.536983  0.572588
    O   O11  0.689986  0.033514  0.689618  -0.603479
    O   O12  0.654045  0.955289  0.772080  -0.515737
    C   C18  0.731806  0.000223  0.748804  0.710750
    O   O13  0.206419  0.053891  0.652441  -0.530656
    O   O14  0.456973  0.082167  0.574659  -0.476035
    C   C19  0.419275  0.159666  0.621611  0.559129
    O   O15  0.374975  0.003513  0.731293  -0.458791
    C   C20  0.236329  0.032371  0.719583  0.539373
    O   O16  0.428506  0.175132  0.701324  -0.542715
    Fe  Fe2  0.509968  0.003024  0.640034  1.404750
    C   C21  0.309000  0.215338  0.507783  0.059324
    C   C22  0.225209  0.281019  0.484672  0.021347
    H   H6   0.190183  0.268743  0.423029  0.051404
    C   C23  0.186849  0.360545  0.538842  -0.400874
    C   C24  0.234895  0.374194  0.616807  0.108866
    H   H7   0.207288  0.435683  0.660606  0.046240
    C   C25  0.315607  0.308694  0.641119  -0.193132
    H   H8   0.347259  0.321319  0.703477  0.153665
    C   C26  0.351626  0.228381  0.587941  0.041866
    N   N3   0.053472  0.506368  0.567581  -0.277624
    N   N4   0.968006  0.567913  0.545605  -0.220564
    C   C27  0.920504  0.553873  0.469716  0.777853
    N   N5   0.960950  0.476802  0.416287  -0.274002
    N   N6   0.046360  0.415273  0.438263  -0.227524
    C   C28  0.093855  0.429282  0.514136  0.783338
    C   C29  0.781152  0.608511  0.366425  0.110501
    H   H9   0.811094  0.547175  0.322372  0.041087
    C   C30  0.699623  0.673624  0.341918  -0.187427
    H   H10  0.669508  0.660917  0.279254  0.159289
    C   C31  0.660206  0.753701  0.395433  0.029645
    C   C32  0.700852  0.767022  0.475983  0.050683
    C   C33  0.785800  0.701759  0.499315  0.029193
    H   H11  0.819280  0.714174  0.561294  0.048038
    C   C34  0.827029  0.622384  0.444890  -0.400123
    C   C35  0.266651  0.037220  0.894018  0.298159
    C   C36  0.323516  0.104457  0.897721  -0.217893
    C   C37  0.441177  0.095673  0.942981  -0.152388
    C   C38  0.447470  0.024091  0.964191  0.147210
    O   O17  0.340889  0.988332  0.934943  -0.116758
    H   H12  0.282364  0.154504  0.871326  0.186874
    H   H13  0.513949  0.136795  0.959504  0.142248
    H   H14  0.528976  0.999491  0.001019  0.098830
