# generated using pymatgen
data_Zn2H18C23(NO4)2
_symmetry_space_group_name_H-M   'P 1'
_cell_length_a   8.92515700
_cell_length_b   10.96849700
_cell_length_c   9.83323100
_cell_angle_alpha   90.00453000
_cell_angle_beta   97.61111100
_cell_angle_gamma   89.99909900
_symmetry_Int_Tables_number   1
_chemical_formula_structural   Zn2H18C23(NO4)2
_chemical_formula_sum   'Zn2 H18 C23 N2 O8'
_cell_volume   954.14874214
_cell_formula_units_Z   1
loop_
 _symmetry_equiv_pos_site_id
 _symmetry_equiv_pos_as_xyz
  1  'x, y, z'
loop_
 _atom_site_type_symbol
 _atom_site_label
 _atom_site_symmetry_multiplicity
 _atom_site_fract_x
 _atom_site_fract_y
 _atom_site_fract_z
 _atom_site_occupancy
  Zn  Zn1  1  0.48464500  0.51277800  0.65269700  1
  Zn  Zn2  1  0.48216700  0.51254800  0.34270400  1
  H  H1  1  0.96339200  0.50597500  0.34007300  1
  H  H2  1  0.00286900  0.52256300  0.65420000  1
  H  H3  1  0.45361200  0.12384000  0.27669200  1
  H  H4  1  0.45178600  0.90176300  0.27601500  1
  H  H5  1  0.42434900  0.90117900  0.80637200  1
  H  H6  1  0.63492300  0.89660700  0.80275500  1
  H  H7  1  0.43399600  0.12388400  0.81202400  1
  H  H8  1  0.67444700  0.62431600  0.14718000  1
  H  H9  1  0.67654300  0.62409000  0.89664300  1
  H  H10  1  0.14725500  0.42647800  0.83403800  1
  H  H11  1  0.26765900  0.28501900  0.84656600  1
  H  H12  1  0.14717500  0.42558000  0.08121300  1
  H  H13  1  0.26918200  0.28428700  0.09559300  1
  H  H14  1  0.68675900  0.23055700  0.80241200  1
  H  H15  1  0.76934300  0.08705700  0.76086100  1
  H  H16  1  0.64169800  0.05549200  0.02117700  1
  H  H17  1  0.93516100  0.18623000  0.98085600  1
  H  H18  1  0.88156400  0.11845600  0.14288200  1
  C  C1  1  0.48535300  0.27412400  0.49767900  1
  C  C2  1  0.18771500  0.51165800  0.46303500  1
  C  C3  1  0.48193500  0.75106900  0.49742200  1
  C  C4  1  0.77899200  0.51425700  0.53216000  1
  C  C5  1  0.02197300  0.51103700  0.44371600  1
  C  C6  1  0.94451800  0.51616900  0.55091800  1
  C  C7  1  0.50226900  0.07274300  0.61491000  1
  C  C8  1  0.48536300  0.14067000  0.49651800  1
  C  C9  1  0.46738900  0.07619400  0.37372500  1
  C  C10  1  0.46607200  0.94909200  0.37326600  1
  C  C11  1  0.48192600  0.88430600  0.49567000  1
  C  C12  1  0.49948900  0.95158000  0.61403600  1
  C  C13  1  0.52444800  0.93925700  0.76544000  1
  C  C14  1  0.52853300  0.08154900  0.76677200  1
  C  C15  1  0.38066000  0.45188600  0.05173300  1
  C  C16  1  0.58876600  0.57394900  0.08223700  1
  C  C17  1  0.59005700  0.57375400  0.93988300  1
  C  C18  1  0.38129100  0.45206300  0.91827600  1
  C  C19  1  0.24400100  0.37558400  0.88856400  1
  C  C20  1  0.24390500  0.37507100  0.04842900  1
  C  C21  1  0.68461500  0.13056000  0.81819400  1
  C  C22  1  0.72218000  0.10348600  0.96726600  1
  C  C23  1  0.85439300  0.13819400  0.03440400  1
  N  N1  1  0.48153800  0.51215500  0.13922200  1
  N  N2  1  0.48399200  0.51181000  0.85608700  1
  O  O1  1  0.48610700  0.33105800  0.61529700  1
  O  O2  1  0.48310200  0.33094000  0.37999900  1
  O  O3  1  0.25937700  0.51202900  0.58854700  1
  O  O4  1  0.25693900  0.51133000  0.35316200  1
  O  O5  1  0.48375600  0.69456200  0.61540500  1
  O  O6  1  0.48051500  0.69403800  0.38015700  1
  O  O7  1  0.70983100  0.51396500  0.64198600  1
  O  O8  1  0.70732500  0.51341000  0.40697400  1
