# Generated by REPEAT Assigner based on pymatgen
data_DB0-m29_o99_o430_f0_pts.sym.65
_audit_creation_date              2022-05-24
_audit_creation_method            REPEAT_Assigner
_cell_length_a                    15.912629
_cell_length_b                    15.995326
_cell_length_c                    13.782342
_cell_angle_alpha                 88.499444
_cell_angle_beta                  97.517208
_cell_angle_gamma                 104.486620
_cell_volume                      3367.186475
_symmetry_space_group_name_H-M    P1
_symmetry_Int_Tables_number       1
loop_
    _symmetry_equiv_pos_site_id
    _symmetry_equiv_pos_as_xyz
    1  x,y,z
loop_
    _atom_site_type_symbol
    _atom_site_label
    _atom_site_fract_x
    _atom_site_fract_y
    _atom_site_fract_z
    _atom_type_partial_charge
    C   C1   0.210079  0.974163  0.855151  -0.140643
    H   H1   0.220007  0.968590  0.779729  0.169092
    C   C2   0.128002  0.973782  0.876770  -0.180448
    H   H2   0.073810  0.966204  0.818838  0.148607
    C   C3   0.115763  0.986516  0.971640  0.312693
    C   C4   0.184729  0.995701  0.045665  -0.215025
    H   H3   0.172663  0.003120  0.119902  0.166907
    C   C5   0.267654  0.995600  0.025050  0.042307
    C   C6   0.280547  0.987626  0.927949  0.009402
    C   C7   0.031292  0.991403  0.993236  -0.160009
    C   C8   0.960606  0.996163  0.011512  -0.094202
    C   C9   0.806804  0.992034  0.961918  -0.276818
    H   H4   0.817700  0.984427  0.887281  0.177620
    C   C10  0.724414  0.991699  0.984464  0.073643
    C   C11  0.713001  0.999834  0.082163  -0.121765
    C   C12  0.784692  0.014677  0.154154  0.317333
    C   C13  0.866278  0.014483  0.129882  -0.330002
    H   H5   0.921936  0.019625  0.185475  0.185722
    C   C14  0.876685  0.001441  0.034545  0.327291
    O   O1   0.527048  0.122056  0.736667  -0.584621
    C   C15  0.461472  0.125603  0.669489  0.606558
    O   O2   0.425506  0.076286  0.922024  -0.480851
    O   O3   0.393127  0.059172  0.659539  -0.551535
    O   O4   0.384538  0.951024  0.835082  -0.532265
    C   C16  0.367813  0.003251  0.897676  0.625954
    Fe  Fe1  0.499560  0.004238  0.791499  1.419858
    O   O5   0.580031  0.006700  0.916879  -0.491318
    O   O6   0.665387  0.970228  0.814272  -0.515649
    C   C17  0.652856  0.986620  0.903269  0.531028
    O   O7   0.510537  0.934540  0.676991  -0.540343
    O   O8   0.464399  0.812381  0.764323  -0.474070
    C   C18  0.489268  0.849921  0.683418  0.660363
    O   O9   0.482693  0.051663  0.333747  -0.536666
    O   O10  0.510938  0.174362  0.242225  -0.488608
    C   C19  0.494685  0.135733  0.325355  0.612743
    O   O11  0.411936  0.981712  0.093175  -0.492644
    O   O12  0.324215  0.013268  0.196349  -0.499920
    C   C20  0.338185  0.999636  0.107086  0.526110
    O   O13  0.596432  0.928192  0.353748  -0.571625
    O   O14  0.607709  0.036303  0.174068  -0.502812
    C   C21  0.625758  0.983379  0.113210  0.644350
    O   O15  0.465045  0.864511  0.271509  -0.571362
    C   C22  0.528726  0.861285  0.341278  0.630037
    O   O16  0.568566  0.909984  0.089140  -0.494693
    Fe  Fe2  0.492876  0.982888  0.218009  1.407234
    H   H6   0.518555  0.915636  0.510244  0.180095
    C   C23  0.509686  0.806051  0.425546  0.033363
    C   C24  0.498341  0.717994  0.422863  -0.128065
    H   H7   0.504900  0.687926  0.355894  0.122135
    C   C25  0.485952  0.670035  0.507565  -0.136826
    C   C26  0.479034  0.710974  0.593873  0.378417
    C   C27  0.492406  0.800252  0.595872  -0.139926
    C   C28  0.508686  0.846377  0.511575  -0.136531
    C   C29  0.538563  0.545049  0.577870  -0.222994
    H   H8   0.577842  0.585948  0.636748  0.133021
    C   C30  0.541213  0.459609  0.575115  -0.132275
    H   H9   0.581793  0.435399  0.632503  0.124217
    C   C31  0.494223  0.406297  0.498940  0.111033
    C   C32  0.445010  0.439997  0.425148  -0.181641
    H   H10  0.406311  0.399296  0.365794  0.141309
    C   C33  0.441607  0.525289  0.428497  -0.135814
    H   H11  0.401032  0.549604  0.371184  0.141245
    C   C34  0.487462  0.578250  0.505552  0.236424
    C   C35  0.496703  0.272212  0.412672  -0.167606
    H   H12  0.504298  0.308139  0.345540  0.130776
    C   C36  0.490838  0.184332  0.412969  0.036164
    C   C37  0.480082  0.139165  0.498804  -0.153502
    H   H13  0.473971  0.070412  0.501435  0.152859
    C   C38  0.478057  0.180045  0.584194  0.088489
    C   C39  0.485760  0.267680  0.585227  -0.215075
    H   H14  0.480483  0.298329  0.652341  0.144265
    C   C40  0.493455  0.314101  0.498911  0.100964
    O   O17  0.772439  0.021602  0.248446  -0.313664
    C   C41  0.831482  0.072455  0.315496  0.779400
    O   O18  0.888229  0.132256  0.289952  -0.512428
    C   C42  0.822856  0.059938  0.421513  -0.537265
    H   H15  0.767348  0.003941  0.431048  0.159573
    H   H16  0.810988  0.118843  0.451953  0.178054
    H   H17  0.884060  0.047720  0.460648  0.148585
    O   O19  0.460694  0.665430  0.675479  -0.372708
    C   C43  0.385581  0.603734  0.678127  0.823795
    O   O20  0.327499  0.593642  0.609173  -0.556640
    C   C44  0.372267  0.549979  0.767312  -0.474968
    H   H18  0.431167  0.569232  0.822313  0.127347
    H   H19  0.361273  0.480928  0.747733  0.133693
    H   H20  0.314500  0.559766  0.798285  0.165747
