# Generated by REPEAT Assigner based on pymatgen
data_DB0-m2_o22_o24_f0_pcu.sym.31
_audit_creation_date              2022-05-24
_audit_creation_method            REPEAT_Assigner
_cell_length_a                    10.682206
_cell_length_b                    9.311599
_cell_length_c                    10.672508
_cell_angle_alpha                 90.000000
_cell_angle_beta                  90.003176
_cell_angle_gamma                 90.000000
_cell_volume                      1061.577627
_symmetry_space_group_name_H-M    P1
_symmetry_Int_Tables_number       1
loop_
    _symmetry_equiv_pos_site_id
    _symmetry_equiv_pos_as_xyz
    1  x,y,z
loop_
    _atom_site_type_symbol
    _atom_site_label
    _atom_site_fract_x
    _atom_site_fract_y
    _atom_site_fract_z
    _atom_type_partial_charge
    O   O1   0.329747  0.622911  0.514845  -0.635484
    O   O2   0.329810  0.376929  0.516082  -0.665108
    C   C1   0.270746  0.500015  0.510019  0.538999
    O   O3   0.510160  0.623800  0.324470  -0.590384
    O   O4   0.510270  0.375507  0.325151  -0.606761
    C   C2   0.505925  0.499508  0.266725  0.548138
    Cu  Cu1  0.511409  0.644415  0.506565  0.865345
    Cu  Cu2  0.511635  0.355962  0.507382  0.930509
    O   O5   0.693310  0.624215  0.504493  -0.639069
    O   O6   0.693643  0.376692  0.505485  -0.637682
    O   O7   0.521364  0.623185  0.688285  -0.466625
    O   O8   0.521568  0.378402  0.688917  -0.463234
    C   C3   0.751923  0.500738  0.498917  0.579844
    C   C4   0.519814  0.500940  0.747452  0.358987
    C   C5   0.455737  0.616337  0.046542  -0.120512
    C   C6   0.454850  0.384224  0.045562  -0.112597
    C   C7   0.400161  0.501042  0.962396  -0.016928
    H   H1   0.304428  0.502054  0.922290  0.018139
    H   H2   0.405918  0.712607  0.081975  0.045810
    H   H3   0.404360  0.287925  0.079977  0.037886
    C   C8   0.519606  0.500979  0.887003  0.255923
    C   C9   0.575301  0.616228  0.969099  -0.079024
    C   C10  0.574450  0.384257  0.968156  -0.063898
    C   C11  0.629824  0.499515  0.052545  -0.122562
    C   C12  0.510289  0.499515  0.127522  0.204275
    H   H4   0.627667  0.711707  0.935991  0.073581
    H   H5   0.626519  0.288848  0.934430  0.063913
    H   H6   0.725331  0.498760  0.093278  0.053765
    C   C13  0.081871  0.653641  0.492491  -0.004653
    C   C14  0.077671  0.433750  0.623104  -0.065411
    H   H7   0.125489  0.707651  0.410755  0.015705
    H   H8   0.095991  0.317328  0.620172  0.058228
    H   H9   0.103020  0.714929  0.578591  -0.000409
    H   H10  0.121496  0.481926  0.707304  0.029111
    C   C15  0.941322  0.651899  0.474404  -0.158814
    C   C16  0.937580  0.455180  0.628048  -0.136231
    H   H11  0.900408  0.731010  0.540382  0.038398
    H   H12  0.914603  0.539012  0.698183  0.023976
    H   H13  0.918541  0.683428  0.376800  0.028633
    H   H14  0.892356  0.352876  0.655958  0.025419
    H   H15  0.109086  0.472559  0.305406  0.001409
    H   H16  0.126968  0.307077  0.391715  0.001965
    H   H17  0.900498  0.425163  0.308848  0.044562
    H   H18  0.919329  0.287705  0.426837  0.044470
    C   C17  0.083971  0.415458  0.393065  0.000884
    C   C18  0.130235  0.500856  0.505042  0.177276
    C   C19  0.891878  0.501830  0.500208  0.332459
    C   C20  0.942674  0.399989  0.401236  -0.189282
    C   C21  0.629038  0.081243  0.559962  -0.132916
    C   C22  0.629667  0.917729  0.556195  0.047984
    H   H19  0.650990  0.120512  0.654980  0.084664
    H   H20  0.655531  0.872692  0.648337  0.040692
    H   H21  0.707215  0.116035  0.499010  0.066353
    H   H22  0.705473  0.887348  0.490592  0.024190
    C   C23  0.404225  0.080939  0.582849  -0.220535
    C   C24  0.405358  0.917902  0.584005  0.066468
    C   C25  0.498906  0.083267  0.385002  0.055594
    C   C26  0.495921  0.918681  0.384184  -0.079999
    N   N1   0.511379  0.140056  0.512145  0.026674
    N   N2   0.510833  0.860241  0.510324  0.032658
    H   H23  0.411680  0.123755  0.341057  0.032780
    H   H24  0.405962  0.882277  0.343146  0.052078
    H   H25  0.579438  0.118139  0.326965  0.031789
    H   H26  0.573084  0.881053  0.322992  0.063749
    H   H27  0.317638  0.110104  0.531887  0.093252
    H   H28  0.316934  0.886259  0.537508  -0.012502
    C   C27  0.389088  0.135792  0.715395  0.677532
    O   O9   0.477242  0.142149  0.787685  -0.458832
    C   C28  0.261782  0.161956  0.767323  -0.552157
    H   H29  0.188996  0.123501  0.701656  0.103218
    H   H30  0.250318  0.278045  0.786647  0.144603
    H   H31  0.251916  0.102404  0.856752  0.140524
    C   C29  0.396719  0.863463  0.717228  0.655437
    O   O10  0.485301  0.870832  0.789042  -0.486147
    C   C30  0.277074  0.802508  0.765793  -0.532145
    H   H32  0.196502  0.868325  0.734850  0.110242
    H   H33  0.280197  0.801850  0.869640  0.129711
    H   H34  0.265638  0.690541  0.733508  0.172100
