data_DB0-m3_o20_o92_f0_fsc_repeat
_audit_creation_date              2024-02-23
_audit_creation_method            'Materials Studio'
_symmetry_space_group_name_H-M    'P1'
_symmetry_Int_Tables_number       1
_symmetry_cell_setting            triclinic
loop_
_symmetry_equiv_pos_as_xyz
  x,y,z
_cell_length_a                    13.2563
_cell_length_b                    13.1984
_cell_length_c                    16.4113
_cell_angle_alpha                 94.3952
_cell_angle_beta                  90.0464
_cell_angle_gamma                 90.6316
loop_
_atom_site_label
_atom_site_type_symbol
_atom_site_fract_x
_atom_site_fract_y
_atom_site_fract_z
_atom_site_U_iso_or_equiv
_atom_site_adp_type
_atom_site_occupancy
O1     O     0.88240   0.06922   0.91322   0.00000  Uiso   1.00
O2     O     0.11760   0.93078   0.08678   0.00000  Uiso   1.00
O3     O     0.91596   0.89905   0.90393   0.00000  Uiso   1.00
O4     O     0.08404   0.10095   0.09607   0.00000  Uiso   1.00
C1     C     0.86596   0.97671   0.87851   0.00000  Uiso   1.00
C2     C     0.13404   0.02329   0.12149   0.00000  Uiso   1.00
O5     O     0.12087   0.92641   0.90908   0.00000  Uiso   1.00
O6     O     0.87913   0.07359   0.09092   0.00000  Uiso   1.00
O7     O     0.08648   0.09667   0.92122   0.00000  Uiso   1.00
O8     O     0.91352   0.90334   0.07878   0.00000  Uiso   1.00
C3     C     0.13687   0.01950   0.88730   0.00000  Uiso   1.00
C4     C     0.86313   0.98050   0.11270   0.00000  Uiso   1.00
Zn1    Zn    0.02016   0.88510   0.99363   0.00000  Uiso   1.00
Zn2    Zn    0.97984   0.11490   0.00637   0.00000  Uiso   1.00
N1     N     0.02671   0.74390   0.99072   0.00000  Uiso   1.00
N2     N     0.97329   0.25610   0.00928   0.00000  Uiso   1.00
C5     C     0.01856   0.65543   0.99351   0.00000  Uiso   1.00
C6     C     0.98144   0.34457   0.00649   0.00000  Uiso   1.00
C7     C     0.00581   0.54616   0.99796   0.00000  Uiso   1.00
C8     C     0.99419   0.45384   0.00204   0.00000  Uiso   1.00
C9     C     0.31514   0.02948   0.71275   0.00000  Uiso   1.00
C10    C     0.68486   0.97052   0.28725   0.00000  Uiso   1.00
C11    C     0.25330   0.06928   0.65755   0.00000  Uiso   1.00
C12    C     0.74670   0.93072   0.34246   0.00000  Uiso   1.00
C13    C     0.30507   0.06986   0.58497   0.00000  Uiso   1.00
C14    C     0.69493   0.93014   0.41503   0.00000  Uiso   1.00
N3     N     0.39931   0.03453   0.59495   0.00000  Uiso   1.00
N4     N     0.60069   0.96547   0.40505   0.00000  Uiso   1.00
C15    C     0.40613   0.01097   0.67382   0.00000  Uiso   1.00
C16    C     0.59387   0.98903   0.32618   0.00000  Uiso   1.00
C17    C     0.26388   0.09490   0.51462   0.00000  Uiso   1.00
C18    C     0.73612   0.90510   0.48538   0.00000  Uiso   1.00
C19    C     0.30799   0.07528   0.43260   0.00000  Uiso   1.00
C20    C     0.69201   0.92472   0.56740   0.00000  Uiso   1.00
C21    C     0.25319   0.06574   0.36072   0.00000  Uiso   1.00
C22    C     0.74682   0.93426   0.63928   0.00000  Uiso   1.00
C23    C     0.31854   0.04155   0.29840   0.00000  Uiso   1.00
C24    C     0.68146   0.95846   0.70160   0.00000  Uiso   1.00
C25    C     0.41390   0.03845   0.33393   0.00000  Uiso   1.00
C26    C     0.58610   0.96155   0.66607   0.00000  Uiso   1.00
N5     N     0.40625   0.06055   0.41564   0.00000  Uiso   1.00
N6     N     0.59375   0.93945   0.58436   0.00000  Uiso   1.00
C27    C     0.51008   0.02083   0.29042   0.00000  Uiso   1.00
C28    C     0.48992   0.97917   0.70958   0.00000  Uiso   1.00
H1     H     0.18695   0.12064   0.51611   0.00000  Uiso   1.00
H2     H     0.81305   0.87936   0.48389   0.00000  Uiso   1.00
H3     H     0.51109   0.03054   0.22554   0.00000  Uiso   1.00
H4     H     0.48891   0.96947   0.77446   0.00000  Uiso   1.00
H5     H     0.46491   0.07200   0.45749   0.00000  Uiso   1.00
H6     H     0.53509   0.92800   0.54251   0.00000  Uiso   1.00
C29    C     0.84798   0.92214   0.65277   0.00000  Uiso   1.00
C30    C     0.15202   0.07786   0.34723   0.00000  Uiso   1.00
C31    C     0.88268   0.93473   0.73222   0.00000  Uiso   1.00
C32    C     0.11733   0.06528   0.26779   0.00000  Uiso   1.00
C33    C     0.81869   0.96322   0.79680   0.00000  Uiso   1.00
C34    C     0.18132   0.03678   0.20320   0.00000  Uiso   1.00
C35    C     0.71568   0.97555   0.78187   0.00000  Uiso   1.00
C36    C     0.28432   0.02445   0.21813   0.00000  Uiso   1.00
C37    C     0.28135   0.00958   0.78956   0.00000  Uiso   1.00
C38    C     0.71865   0.99042   0.21044   0.00000  Uiso   1.00
C39    C     0.18294   0.03592   0.80909   0.00000  Uiso   1.00
C40    C     0.81706   0.96408   0.19091   0.00000  Uiso   1.00
C41    C     0.12284   0.08256   0.75392   0.00000  Uiso   1.00
C42    C     0.87716   0.91744   0.24608   0.00000  Uiso   1.00
C43    C     0.15657   0.09769   0.67672   0.00000  Uiso   1.00
C44    C     0.84343   0.90231   0.32328   0.00000  Uiso   1.00
H7     H     0.89983   0.90187   0.60367   0.00000  Uiso   1.00
H8     H     0.10017   0.09813   0.39633   0.00000  Uiso   1.00
H9     H     0.66443   0.99627   0.83140   0.00000  Uiso   1.00
H10    H     0.33557   0.00373   0.16860   0.00000  Uiso   1.00
H11    H     0.32848   0.97451   0.83291   0.00000  Uiso   1.00
H12    H     0.67152   0.02549   0.16709   0.00000  Uiso   1.00
H13    H     0.04650   0.10370   0.77014   0.00000  Uiso   1.00
H14    H     0.95350   0.89630   0.22986   0.00000  Uiso   1.00
H15    H     0.10693   0.13066   0.63406   0.00000  Uiso   1.00
H16    H     0.89307   0.86934   0.36594   0.00000  Uiso   1.00
H17    H     0.96187   0.92398   0.74406   0.00000  Uiso   1.00
H18    H     0.03813   0.07602   0.25594   0.00000  Uiso   1.00
