# Generated by REPEAT Assigner based on pymatgen
data_DB0-m15_o2_o142_f0_fsc
_audit_creation_date              2022-05-24
_audit_creation_method            REPEAT_Assigner
_cell_length_a                    10.994917
_cell_length_b                    13.969824
_cell_length_c                    8.546434
_cell_angle_alpha                 90.000000
_cell_angle_beta                  89.988060
_cell_angle_gamma                 90.000000
_cell_volume                      1312.707099
_symmetry_space_group_name_H-M    P1
_symmetry_Int_Tables_number       1
loop_
    _symmetry_equiv_pos_site_id
    _symmetry_equiv_pos_as_xyz
    1  x,y,z
loop_
    _atom_site_type_symbol
    _atom_site_label
    _atom_site_fract_x
    _atom_site_fract_y
    _atom_site_fract_z
    _atom_type_partial_charge
    Co  Co1  0.003490  0.095487  0.000441  0.844776
    Co  Co2  0.995611  0.904544  0.000435  0.855936
    O   O1   0.132567  0.078923  0.166192  -0.635651
    O   O2   0.122346  0.915493  0.169804  -0.634001
    O   O3   0.872166  0.084332  0.836129  -0.670630
    O   O4   0.866495  0.922110  0.833743  -0.642118
    O   O5   0.132354  0.078427  0.833361  -0.599590
    O   O6   0.126659  0.915219  0.835730  -0.625123
    O   O7   0.876602  0.084016  0.169980  -0.652126
    O   O8   0.866431  0.921607  0.166341  -0.668606
    C   C1   0.169260  0.995943  0.221298  0.789723
    C   C2   0.823988  0.004644  0.784267  0.834351
    C   C3   0.174323  0.995422  0.784130  0.800233
    C   C4   0.829076  0.004090  0.221856  0.835096
    C   C5   0.900986  0.395371  0.037235  -0.143410
    C   C6   0.895491  0.602181  0.960523  -0.141518
    H   H1   0.817786  0.430809  0.071196  0.118670
    H   H2   0.814130  0.564597  0.925397  0.118491
    C   C7   0.904961  0.296698  0.037983  -0.072246
    C   C8   0.894598  0.701168  0.962506  -0.080085
    H   H3   0.824106  0.256853  0.068450  0.131432
    H   H4   0.812498  0.739274  0.931550  0.132361
    N   N1   0.008073  0.249725  0.001163  0.079444
    N   N2   0.995611  0.750252  0.001235  0.067581
    C   C9   0.109147  0.298723  0.962330  -0.105740
    C   C10  0.098853  0.703368  0.037721  -0.076276
    H   H5   0.191124  0.260545  0.931011  0.145560
    H   H6   0.179640  0.743289  0.068193  0.139377
    C   C11  0.108404  0.397723  0.960474  -0.124347
    C   C12  0.102981  0.604686  0.036848  -0.140200
    H   H7   0.189745  0.435265  0.925107  0.115381
    H   H8   0.186230  0.569293  0.070698  0.117202
    C   C13  0.003390  0.447247  0.998159  0.086403
    C   C14  0.000586  0.552733  0.998032  0.093475
    C   C15  0.812122  0.015340  0.504000  -0.116089
    C   C16  0.754585  0.006288  0.363261  -0.001007
    C   C17  0.630269  0.997466  0.358332  -0.386660
    C   C18  0.749768  0.007635  0.641891  -0.080793
    C   C19  0.623500  0.002698  0.639281  -0.226246
    C   C20  0.562497  0.000583  0.496525  0.465107
    C   C21  0.435323  0.999235  0.496405  -0.341063
    C   C22  0.367826  0.002310  0.358040  -0.054253
    C   C23  0.243455  0.993711  0.362722  -0.114843
    C   C24  0.557881  0.001400  0.777268  0.314015
    N   N3   0.435541  0.998655  0.774599  -0.656189
    C   C25  0.373629  0.997295  0.638814  0.671844
    C   C26  0.247694  0.992471  0.641062  -0.321016
    C   C27  0.185478  0.984822  0.503205  -0.035164
    H   H9   0.603973  0.003077  0.888856  0.037261
    H   H10  0.908548  0.025116  0.506687  0.130967
    H   H11  0.089027  0.975159  0.505579  0.139637
    H   H12  0.591042  0.988439  0.244262  0.191049
    H   H13  0.407258  0.011321  0.244071  0.089616
