# generated using pymatgen
data_ZnH13C21NO4
_symmetry_space_group_name_H-M   'P 1'
_cell_length_a   8.54177200
_cell_length_b   13.10268200
_cell_length_c   14.28342800
_cell_angle_alpha   90.58854900
_cell_angle_beta   90.54521900
_cell_angle_gamma   93.50798000
_symmetry_Int_Tables_number   1
_chemical_formula_structural   ZnH13C21NO4
_chemical_formula_sum   'Zn2 H26 C42 N2 O8'
_cell_volume   1595.44108882
_cell_formula_units_Z   2
loop_
 _symmetry_equiv_pos_site_id
 _symmetry_equiv_pos_as_xyz
  1  'x, y, z'
loop_
 _atom_site_type_symbol
 _atom_site_label
 _atom_site_symmetry_multiplicity
 _atom_site_fract_x
 _atom_site_fract_y
 _atom_site_fract_z
 _atom_site_occupancy
  Zn  Zn1  1  0.50620300  0.48215700  0.10375600  1
  Zn  Zn2  1  0.50656500  0.50409700  0.89588000  1
  H  H1  1  0.78883500  0.83764600  0.99224400  1
  H  H2  1  0.22393400  0.14861200  0.00740500  1
  H  H3  1  0.16871800  0.99268300  0.95535100  1
  H  H4  1  0.84405100  0.99357300  0.04430100  1
  H  H5  1  0.28946300  0.83436800  0.99038600  1
  H  H6  1  0.72330600  0.15188800  0.00926100  1
  H  H7  1  0.01008900  0.56306300  0.04519500  1
  H  H8  1  0.00267900  0.42318900  0.95443100  1
  H  H9  1  0.74191300  0.41413800  0.44819200  1
  H  H10  1  0.27100800  0.57205600  0.55144100  1
  H  H11  1  0.51801800  0.32737100  0.57362600  1
  H  H12  1  0.49490500  0.65882600  0.42601500  1
  H  H13  1  0.83602100  0.61886100  0.39761800  1
  H  H14  1  0.07531900  0.72896600  0.42107600  1
  H  H15  1  0.25129400  0.82464600  0.51766200  1
  H  H16  1  0.26957900  0.77253600  0.63369300  1
  H  H17  1  0.15888900  0.88419000  0.61575400  1
  H  H18  1  0.98398400  0.74363400  0.71372900  1
  H  H19  1  0.74571300  0.63456200  0.69064300  1
  H  H20  1  0.17510100  0.36896300  0.60165900  1
  H  H21  1  0.93575000  0.25894300  0.57805600  1
  H  H22  1  0.76069900  0.16248100  0.48150400  1
  H  H23  1  0.85418200  0.10173500  0.38445700  1
  H  H24  1  0.74410600  0.21334000  0.36488400  1
  H  H25  1  0.03084400  0.24094200  0.28601800  1
  H  H26  1  0.26922900  0.34987700  0.30926800  1
  C  C1  1  0.16348800  0.69271800  0.01807600  1
  C  C2  1  0.84927900  0.29353600  0.98156000  1
  C  C3  1  0.17535300  0.79600000  0.00065000  1
  C  C4  1  0.83741600  0.19025500  0.99899400  1
  C  C5  1  0.04192800  0.85066600  0.99846900  1
  C  C6  1  0.97084000  0.13559000  0.00117900  1
  C  C7  1  0.89523600  0.79896200  0.00362900  1
  C  C8  1  0.11753200  0.18729400  0.99601600  1
  C  C9  1  0.88458600  0.69511800  0.02027900  1
  C  C10  1  0.12818200  0.29113600  0.97935700  1
  C  C11  1  0.01889400  0.64406400  0.03233500  1
  C  C12  1  0.99387300  0.34218900  0.96729700  1
  C  C13  1  0.06080600  0.96190900  0.98597500  1
  C  C14  1  0.95196300  0.02434800  0.01367700  1
  C  C15  1  0.29882600  0.63054100  0.01203700  1
  C  C16  1  0.71394200  0.35571300  0.98759800  1
  C  C17  1  0.27676900  0.35244700  0.98588200  1
  C  C18  1  0.73599800  0.63380800  0.01375300  1
  C  C19  1  0.62999700  0.55115400  0.52380100  1
  C  C20  1  0.38293600  0.43504100  0.47583800  1
  C  C21  1  0.63462600  0.44987700  0.47199400  1
  C  C22  1  0.37829700  0.53632000  0.52763900  1
  C  C23  1  0.49952700  0.58335600  0.46004000  1
  C  C24  1  0.51339500  0.40284100  0.53960300  1
  C  C25  1  0.50254000  0.48143200  0.40946900  1
  C  C26  1  0.51038200  0.50476800  0.59017000  1
  C  C27  1  0.50448100  0.47418300  0.30720200  1
  C  C28  1  0.50834800  0.51205200  0.69243400  1
  C  C29  1  0.77477000  0.61852100  0.54209700  1
  C  C30  1  0.86845000  0.64617200  0.46722400  1
  C  C31  1  0.00325600  0.70820100  0.48053900  1
  C  C32  1  0.04512400  0.74322900  0.56924800  1
  C  C33  1  0.19024900  0.81027900  0.58483100  1
  C  C34  1  0.95163600  0.71606600  0.64419000  1
  C  C35  1  0.81680200  0.65397500  0.63087800  1
  C  C36  1  0.23816600  0.36769500  0.45748000  1
  C  C37  1  0.14347300  0.34095200  0.53215400  1
  C  C38  1  0.00863800  0.27897100  0.51875600  1
  C  C39  1  0.96779500  0.24304700  0.43017500  1
  C  C40  1  0.82266500  0.17602600  0.41450800  1
  C  C41  1  0.06234800  0.26925400  0.35544600  1
  C  C42  1  0.19719900  0.33130800  0.36883800  1
  N  N1  1  0.50582300  0.47102300  0.22623100  1
  N  N2  1  0.50694700  0.51523100  0.77340400  1
  O  O1  1  0.34589100  0.60477400  0.92834200  1
  O  O2  1  0.66687700  0.38148100  0.07129300  1
  O  O3  1  0.35084200  0.59074200  0.08931500  1
  O  O4  1  0.66192600  0.39551300  0.91032100  1
  O  O5  1  0.32922200  0.37923200  0.06985700  1
  O  O6  1  0.68354600  0.60702300  0.92977800  1
  O  O7  1  0.33407700  0.39328800  0.90898400  1
  O  O8  1  0.67869100  0.59296700  0.09065100  1
