# generated using pymatgen
data_FeH12C40(NO4)4
_symmetry_space_group_name_H-M   'P 1'
_cell_length_a   9.70164300
_cell_length_b   22.96801700
_cell_length_c   27.46911900
_cell_angle_alpha   109.08655200
_cell_angle_beta   83.61369800
_cell_angle_gamma   89.47356700
_symmetry_Int_Tables_number   1
_chemical_formula_structural   FeH12C40(NO4)4
_chemical_formula_sum   'Fe2 H24 C80 N8 O32'
_cell_volume   5741.72136950
_cell_formula_units_Z   2
loop_
 _symmetry_equiv_pos_site_id
 _symmetry_equiv_pos_as_xyz
  1  'x, y, z'
loop_
 _atom_site_type_symbol
 _atom_site_label
 _atom_site_symmetry_multiplicity
 _atom_site_fract_x
 _atom_site_fract_y
 _atom_site_fract_z
 _atom_site_occupancy
  Fe  Fe1  1  0.49939900  0.99045200  0.39229600  1
  Fe  Fe2  1  0.50805900  0.97823900  0.60532300  1
  H  H1  1  0.76343600  0.01262500  0.74543500  1
  H  H2  1  0.80836200  0.99940000  0.26099800  1
  H  H3  1  0.67767600  0.09028000  0.16119400  1
  H  H4  1  0.65592800  0.08099400  0.07313900  1
  H  H5  1  0.64632000  0.02552700  0.99409800  1
  H  H6  1  0.19870400  0.96733100  0.73359000  1
  H  H7  1  0.29901000  0.07609700  0.87775000  1
  H  H8  1  0.34158300  0.02710600  0.01663700  1
  H  H9  1  0.23213200  0.05037100  0.26422600  1
  H  H10  1  0.32104000  0.07650100  0.96365800  1
  H  H11  1  0.99572000  0.93114100  0.59840100  1
  H  H12  1  0.03424000  0.98722400  0.38168700  1
  H  H13  1  0.26343600  0.28984100  0.63371300  1
  H  H14  1  0.37785200  0.46052900  0.58644700  1
  H  H15  1  0.67616200  0.79040800  0.51858900  1
  H  H16  1  0.11440800  0.69069700  0.52092900  1
  H  H17  1  0.22313900  0.60912200  0.53800000  1
  H  H18  1  0.27782800  0.54459900  0.57049900  1
  H  H19  1  0.35683000  0.17984000  0.47535400  1
  H  H20  1  0.71010200  0.42879000  0.44039700  1
  H  H21  1  0.64962300  0.76258000  0.33496900  1
  H  H22  1  0.60854800  0.51265200  0.42370100  1
  H  H23  1  0.73133300  0.67742200  0.35971900  1
  H  H24  1  0.84841800  0.35415700  0.42610700  1
  C  C1  1  0.86414800  0.99851600  0.83242300  1
  C  C2  1  0.07957400  0.04216100  0.82738900  1
  C  C3  1  0.10501600  0.97041600  0.71659300  1
  C  C4  1  0.11233500  0.95294200  0.66322000  1
  C  C5  1  0.86850400  0.96743800  0.67018100  1
  C  C6  1  0.86229100  0.99372500  0.72335400  1
  C  C7  1  0.97998300  0.99252000  0.74763000  1
  C  C8  1  0.97529800  0.03783100  0.90870100  1
  C  C9  1  0.85637000  0.01870000  0.88638700  1
  C  C10  1  0.73686800  0.01506500  0.91815200  1
  C  C11  1  0.08835700  0.04850400  0.87866400  1
  C  C12  1  0.99291200  0.94759900  0.64014000  1
  C  C13  1  0.02954900  0.99733400  0.34613500  1
  C  C14  1  0.87258900  0.05508700  0.04510200  1
  C  C15  1  0.12017600  0.04547500  0.02738800  1
  C  C16  1  0.00098800  0.05020500  0.06109100  1
  C  C17  1  0.75671200  0.07062100  0.08212900  1
  C  C18  1  0.76917900  0.07724600  0.13309000  1
  C  C19  1  0.89425800  0.06273200  0.14675200  1
  C  C20  1  0.00968800  0.04876700  0.11059400  1
  C  C21  1  0.13270800  0.03209300  0.12405500  1
  C  C22  1  0.12960600  0.01830400  0.16989300  1
  C  C23  1  0.90464700  0.06279100  0.19653000  1
  C  C24  1  0.90278800  0.00684500  0.27908400  1
  C  C25  1  0.90407300  0.99742000  0.32618300  1
  C  C26  1  0.14878800  0.01408700  0.32237000  1
  C  C27  1  0.14082100  0.03270800  0.27975500  1
  C  C28  1  0.02045700  0.02574600  0.25568900  1
  C  C29  1  0.86409600  0.04331500  0.99240600  1
  C  C30  1  0.98271000  0.04489400  0.96027800  1
  C  C31  1  0.10975100  0.05202500  0.97922800  1
  C  C32  1  0.74085000  0.02896600  0.97087000  1
  C  C33  1  0.20977000  0.06562800  0.90007500  1
  C  C34  1  0.24626500  0.03315900  0.04226000  1
  C  C35  1  0.25295100  0.02476200  0.08950000  1
  C  C36  1  0.22274200  0.06450000  0.94914200  1
  C  C37  1  0.77254500  0.98981200  0.35565300  1
  C  C38  1  0.57646800  0.87732700  0.39476500  1
  C  C39  1  0.28201700  0.01614300  0.34384100  1
  C  C40  1  0.41768700  0.07575000  0.48866100  1
  C  C41  1  0.30353600  0.34519700  0.55430300  1
  C  C42  1  0.14486800  0.27882000  0.50902900  1
  C  C43  1  0.35344200  0.18499900  0.51603100  1
  C  C44  1  0.38771800  0.13484900  0.53020700  1
  C  C45  1  0.34005800  0.19742600  0.61983100  1
  C  C46  1  0.29940700  0.24622600  0.60479900  1
  C  C47  1  0.30424700  0.23999900  0.55301600  1
  C  C48  1  0.13687900  0.38475100  0.51349000  1
  C  C49  1  0.24534300  0.39385700  0.54318800  1
  C  C50  1  0.29432100  0.45187800  0.56244400  1
  C  C51  1  0.09011200  0.32584800  0.49406500  1
  C  C52  1  0.37842900  0.14010800  0.58244700  1
  C  C53  1  0.61809600  0.82670100  0.41265700  1
  C  C54  1  0.06863100  0.54166000  0.51008900  1
  C  C55  1  0.89293000  0.47559800  0.46994500  1
  C  C56  1  0.94943700  0.53309600  0.48537900  1
  C  C57  1  0.12668600  0.59921100  0.52187700  1
  C  C58  1  0.06513200  0.64704300  0.51125100  1
  C  C59  1  0.94420800  0.63904000  0.48861800  1
  C  C60  1  0.88663800  0.58229000  0.47571300  1
  C  C61  1  0.76615700  0.57517200  0.45263800  1
  C  C62  1  0.70624000  0.62417200  0.44231800  1
  C  C63  1  0.88270600  0.68719600  0.47763800  1
  C  C64  1  0.66825000  0.78444100  0.47831300  1
  C  C65  1  0.62582300  0.83410700  0.46472600  1
  C  C66  1  0.65455500  0.76967600  0.37559700  1
  C  C67  1  0.69920600  0.72093500  0.38952900  1
  C  C68  1  0.70773700  0.72824400  0.44088500  1
  C  C69  1  0.12720600  0.49270600  0.52206300  1
  C  C70  1  0.07537900  0.43430000  0.50380600  1
  C  C71  1  0.96172300  0.42517900  0.47624300  1
  C  C72  1  0.23632400  0.50066300  0.55221200  1
  C  C73  1  0.98683900  0.31583600  0.46143700  1
  C  C74  1  0.76722700  0.47014200  0.44909800  1
  C  C75  1  0.70535600  0.51921700  0.44035800  1
  C  C76  1  0.92253900  0.36518500  0.45369700  1
  C  C77  1  0.74398600  0.95946200  0.64460500  1
  C  C78  1  0.59812500  0.89353600  0.50642000  1
  C  C79  1  0.24567300  0.94758600  0.63163700  1
  C  C80  1  0.40247600  0.08563600  0.59826000  1
  N  N1  1  0.97300500  0.01260000  0.80345600  1
  N  N2  1  0.01871500  0.03673900  0.20695500  1
  N  N3  1  0.25154300  0.28893700  0.53781500  1
  N  N4  1  0.76530900  0.67916200  0.45466300  1
  N  N5  1  0.38634500  0.01451800  0.10337500  1
  N  N6  1  0.34522100  0.20770100  0.67380000  1
  N  N7  1  0.60595900  0.00285000  0.89862600  1
  N  N8  1  0.95163200  0.25523000  0.43208300  1
  O  O1  1  0.77006600  0.96004200  0.80883200  1
  O  O2  1  0.79967700  0.08827700  0.23414400  1
  O  O3  1  0.17930700  0.06458100  0.80139300  1
  O  O4  1  0.23158800  0.98178800  0.17541300  1
  O  O5  1  0.65118000  0.99629900  0.33985000  1
  O  O6  1  0.61381100  0.87358600  0.34640300  1
  O  O7  1  0.77535200  0.98223400  0.40085500  1
  O  O8  1  0.50455800  0.92659400  0.42613800  1
  O  O9  1  0.32786000  0.96952100  0.35659500  1
  O  O10  1  0.35806500  0.06424900  0.34887700  1
  O  O11  1  0.50651500  0.07234300  0.44794100  1
  O  O12  1  0.34056100  0.02900800  0.48830300  1
  O  O13  1  0.41199200  0.35396300  0.58195400  1
  O  O14  1  0.94278300  0.74173500  0.48828800  1
  O  O15  1  0.08571000  0.22410700  0.49853000  1
  O  O16  1  0.58794500  0.61721500  0.42021900  1
  O  O17  1  0.66871100  0.00748000  0.64566400  1
  O  O18  1  0.71511900  0.90404600  0.61597000  1
  O  O19  1  0.52201400  0.89531800  0.54955600  1
  O  O20  1  0.66299900  0.94236500  0.50344200  1
  O  O21  1  0.33100300  0.08110100  0.64019800  1
  O  O22  1  0.35555200  0.96647800  0.65486400  1
  O  O23  1  0.49417400  0.04122200  0.57094900  1
  O  O24  1  0.24978300  0.93832500  0.58175800  1
  O  O25  1  0.42244900  0.04974100  0.14726200  1
  O  O26  1  0.48162800  0.98111000  0.06789200  1
  O  O27  1  0.45179500  0.18622500  0.68858700  1
  O  O28  1  0.26310900  0.25019400  0.70805100  1
  O  O29  1  0.51608000  0.97311200  0.91895400  1
  O  O30  1  0.56444000  0.03347100  0.87017500  1
  O  O31  1  0.82335500  0.24494000  0.42369900  1
  O  O32  1  0.04934300  0.21619400  0.40278800  1
