# Generated by REPEAT Assigner based on pymatgen
data_DB0-m3_o14_o28_f0_pcu.sym.3_sqe
_audit_creation_date              2022-05-24
_audit_creation_method            REPEAT_Assigner
_cell_length_a                    23.446831
_cell_length_b                    11.061584
_cell_length_c                    9.811574
_cell_angle_alpha                 90.000179
_cell_angle_beta                  89.996079
_cell_angle_gamma                 90.012223
_cell_volume                      2544.720820
_symmetry_space_group_name_H-M    P1
_symmetry_Int_Tables_number       1
loop_
    _symmetry_equiv_pos_site_id
    _symmetry_equiv_pos_as_xyz
    1  x,y,z
loop_
    _atom_site_type_symbol
    _atom_site_label
    _atom_site_fract_x
    _atom_site_fract_y
    _atom_site_fract_z
    _atom_type_partial_charge
    O   O1   0.503815  0.325052  0.617491  -0.597517
    O   O2   0.504491  0.319506  0.386277  -0.694095
    C   C1   0.505780  0.264039  0.504554  0.794193
    O   O3   0.416679  0.504360  0.615183  -0.630091
    O   O4   0.415725  0.494981  0.383606  -0.692416
    C   C2   0.389061  0.499592  0.500138  0.714202
    Zn  Zn1  0.501443  0.504752  0.655395  0.991416
    Zn  Zn2  0.500774  0.499436  0.346323  1.033699
    O   O5   0.501157  0.684720  0.617379  -0.611050
    O   O6   0.497996  0.679947  0.382315  -0.633434
    O   O7   0.586659  0.508653  0.620505  -0.649895
    O   O8   0.585664  0.506835  0.384073  -0.650326
    C   C3   0.497896  0.740398  0.498610  0.810699
    C   C4   0.612756  0.508887  0.501585  0.686425
    C   C5   0.882283  0.612998  0.463772  0.524791
    N   N1   0.854154  0.509188  0.489203  -0.215101
    C   C6   0.882130  0.404906  0.510468  0.479761
    C   C7   0.940871  0.402006  0.505926  -0.104301
    C   C8   0.971002  0.507032  0.481288  0.121407
    C   C9   0.942027  0.614971  0.459925  -0.272022
    C   C10  0.969536  0.294219  0.525852  -0.069006
    C   C11  0.028131  0.290934  0.521895  -0.062479
    C   C12  0.058590  0.395709  0.498900  -0.095674
    C   C13  0.029986  0.503247  0.478858  0.059105
    C   C14  0.060858  0.606976  0.457360  -0.086205
    C   C15  0.032799  0.714700  0.435734  -0.187763
    C   C16  0.973888  0.720385  0.436021  0.288815
    C   C17  0.117612  0.393995  0.497631  0.448743
    N   N2   0.147141  0.497060  0.478738  -0.166975
    C   C18  0.119857  0.602688  0.458511  0.467633
    O   O9   0.851262  0.713616  0.445228  -0.484315
    O   O10  0.852392  0.303110  0.533693  -0.492319
    H   H1   0.946765  0.210987  0.544869  0.124841
    H   H2   0.049400  0.205487  0.538051  0.127452
    O   O11  0.145856  0.290087  0.519382  -0.486556
    O   O12  0.150430  0.703893  0.438298  -0.488175
    H   H3   0.057102  0.796157  0.418340  0.156851
    C   C19  0.234949  0.554605  0.591567  -0.338891
    H   H4   0.209398  0.599622  0.667941  0.165411
    C   C20  0.293781  0.555837  0.600417  0.304553
    C   C21  0.326158  0.498329  0.500196  -0.132665
    C   C22  0.298365  0.440423  0.394140  -0.158025
    H   H5   0.322444  0.395050  0.315464  0.155323
    C   C23  0.239619  0.437813  0.388015  -0.177797
    H   H6   0.218625  0.392088  0.304547  0.128558
    C   C24  0.207836  0.495777  0.486244  0.259194
    C   C25  0.762754  0.531352  0.375330  -0.152628
    H   H7   0.784786  0.547136  0.280179  0.126937
    C   C26  0.703981  0.530782  0.378142  -0.097290
    H   H8   0.680986  0.547133  0.284510  0.109771
    C   C27  0.675302  0.510664  0.499276  -0.032448
    C   C28  0.706127  0.490448  0.617306  -0.086433
    H   H9   0.684761  0.473798  0.713073  0.113744
    C   C29  0.764948  0.489082  0.613688  -0.166994
    H   H10  0.788730  0.472697  0.706258  0.130131
    C   C30  0.793390  0.509945  0.492838  0.226239
    H   H11  0.520933  0.118335  0.296090  0.147640
    C   C31  0.504198  0.110111  0.759770  -0.194248
    H   H12  0.526819  0.192470  0.780530  0.093923
    C   C32  0.484245  0.048986  0.871868  -0.091649
    H   H13  0.487986  0.088624  0.972154  0.107053
    C   C33  0.457113  0.940667  0.855107  -0.073093
    H   H14  0.437699  0.895825  0.941312  0.080880
    C   C34  0.457170  0.886354  0.729371  -0.259835
    H   H15  0.434082  0.802690  0.720719  0.155387
    C   C35  0.484076  0.940184  0.618203  0.225633
    C   C36  0.498824  0.061636  0.629084  0.177640
    C   C37  0.507610  0.129410  0.509974  -0.231350
    C   C38  0.512759  0.067965  0.388270  -0.220091
    C   C39  0.510949  0.943096  0.382085  0.329009
    C   C40  0.495664  0.876024  0.497657  -0.422700
    H   H16  0.563453  0.630100  0.128064  0.164785
    C   C41  0.428529  0.341784  0.136664  -0.196128
    H   H17  0.427770  0.331870  0.244107  0.204622
    C   C42  0.391092  0.269448  0.067067  -0.234260
    H   H18  0.363080  0.209610  0.122820  0.139934
    C   C43  0.389851  0.273582  0.928204  0.316809
    C   C44  0.426782  0.348675  0.860436  -0.211714
    H   H19  0.424662  0.343228  0.752875  0.145307
    C   C45  0.464123  0.425580  0.928835  0.197965
    C   C46  0.464678  0.422278  0.070337  0.124362
    N   N3   0.500057  0.495912  0.141798  -0.063386
    C   C47  0.534868  0.571259  0.072818  -0.086530
    H   H20  0.563142  0.634930  0.878540  0.117650
    C   C48  0.534610  0.574225  0.931508  0.037639
    N   N4   0.499340  0.502078  0.859814  -0.123199
    C   C49  0.525595  0.886394  0.248080  -0.335021
    H   H21  0.488077  0.837908  0.206237  0.104545
    H   H22  0.538039  0.956187  0.172780  0.055489
    H   H23  0.562578  0.824912  0.260449  0.105243
    C   C50  0.348866  0.197667  0.849801  -0.326599
    H   H24  0.323174  0.140947  0.919868  0.094729
    H   H25  0.319875  0.257136  0.790804  0.083238
    H   H26  0.372434  0.138337  0.778309  0.093462
    C   C51  0.947771  0.841947  0.410664  -0.368097
    H   H27  0.922685  0.871068  0.500716  0.146605
    H   H28  0.981244  0.910987  0.393527  0.087904
    H   H29  0.920898  0.839249  0.317669  0.134925
    C   C52  0.320332  0.625379  0.714405  -0.281224
    H   H30  0.349947  0.693826  0.672307  0.089365
    H   H31  0.287138  0.673436  0.773801  0.068411
    H   H32  0.342902  0.563327  0.784824  0.051965
