# Generated by REPEAT Assigner based on pymatgen
data_DB0-m29_o82_o86_f0_pts.sym.50
_audit_creation_date              2022-05-24
_audit_creation_method            REPEAT_Assigner
_cell_length_a                    14.385533
_cell_length_b                    14.334865
_cell_length_c                    11.365462
_cell_angle_alpha                 93.721070
_cell_angle_beta                  94.082939
_cell_angle_gamma                 109.660125
_cell_volume                      2191.624199
_symmetry_space_group_name_H-M    P1
_symmetry_Int_Tables_number       1
loop_
    _symmetry_equiv_pos_site_id
    _symmetry_equiv_pos_as_xyz
    1  x,y,z
loop_
    _atom_site_type_symbol
    _atom_site_label
    _atom_site_fract_x
    _atom_site_fract_y
    _atom_site_fract_z
    _atom_type_partial_charge
    C   C1   0.220166  0.987936  0.814518  -0.270772
    C   C2   0.131738  0.995035  0.764889  0.452313
    C   C3   0.061999  0.006973  0.835723  -0.383139
    C   C4   0.851690  0.922781  0.883578  -0.178862
    C   C5   0.234628  0.991849  0.938388  -0.005112
    C   C6   0.161059  0.001124  0.008386  -0.095087
    C   C7   0.070047  0.999866  0.956896  0.251724
    C   C8   0.994688  0.003526  0.029412  -0.144838
    C   C9   0.760661  0.919086  0.835272  -0.088220
    C   C10  0.701625  0.955495  0.900138  -0.015809
    C   C11  0.893291  0.979616  0.989651  0.154307
    C   C12  0.829084  0.004771  0.062402  0.095190
    C   C13  0.729623  0.985962  0.020085  -0.114829
    C   C14  0.181314  0.020722  0.130364  0.070285
    C   C15  0.115060  0.042481  0.197806  -0.297985
    C   C16  0.022653  0.034006  0.148436  0.226409
    C   C17  0.959763  0.059021  0.219561  -0.177822
    C   C18  0.865963  0.050218  0.175305  -0.175486
    H   H1   0.001566  0.024411  0.792572  0.148814
    H   H2   0.889873  0.882924  0.833804  0.123314
    H   H3   0.734181  0.884923  0.746102  0.093792
    H   H4   0.251306  0.027999  0.176539  0.060067
    H   H5   0.135928  0.064814  0.291322  0.128744
    H   H6   0.985062  0.089118  0.310443  0.128255
    H   H7   0.823529  0.079433  0.232224  0.151653
    O   O1   0.569520  0.998226  0.056598  -0.541719
    C   C19  0.653015  0.989672  0.100194  0.579726
    O   O2   0.487088  0.791242  0.140038  -0.488988
    O   O3   0.659851  0.966611  0.209603  -0.469922
    O   O4   0.446181  0.880125  0.286273  -0.554469
    C   C20  0.459062  0.797414  0.246822  0.625040
    Fe  Fe1  0.467279  0.979868  0.169056  1.425489
    O   O5   0.335091  0.931263  0.072104  -0.656463
    O   O6   0.408929  0.076248  0.992618  -0.519937
    C   C21  0.330538  0.997047  0.998245  0.800940
    O   O7   0.513857  0.114414  0.260781  -0.626876
    O   O8   0.373798  0.045558  0.351651  -0.498159
    C   C22  0.451503  0.122705  0.336622  0.697189
    O   O9   0.426701  0.850665  0.567839  -0.633602
    O   O10  0.582402  0.911799  0.510481  -0.558969
    C   C23  0.496092  0.840059  0.504233  0.810188
    O   O11  0.611353  0.020929  0.763067  -0.659014
    O   O12  0.526914  0.879136  0.843413  -0.512790
    C   C24  0.608933  0.954481  0.838293  0.792261
    O   O13  0.292868  0.004131  0.625949  -0.459384
    O   O14  0.507630  0.086602  0.554210  -0.502918
    C   C25  0.493175  0.168389  0.593599  0.566889
    O   O15  0.377847  0.966255  0.778741  -0.547573
    C   C26  0.298780  0.984277  0.736725  0.736139
    O   O16  0.465181  0.174541  0.700408  -0.486945
    Fe  Fe2  0.479764  0.982382  0.665977  1.410475
    C   C27  0.463032  0.221348  0.393129  -0.009348
    C   C28  0.494076  0.246746  0.513491  -0.133781
    C   C29  0.517880  0.345854  0.558567  0.242585
    C   C30  0.567418  0.379218  0.670500  -0.348701
    C   C31  0.587932  0.475750  0.717004  0.303726
    C   C32  0.401865  0.262538  0.207318  0.087634
    C   C33  0.442294  0.290069  0.324191  -0.065718
    C   C34  0.457845  0.385734  0.372836  0.089029
    C   C35  0.377757  0.329058  0.140803  -0.292701
    C   C36  0.394848  0.424321  0.188775  0.223981
    C   C37  0.497605  0.414164  0.488946  -0.095240
    C   C38  0.516036  0.511066  0.535853  0.031914
    C   C39  0.558819  0.540938  0.651131  -0.011135
    C   C40  0.572017  0.635795  0.699320  -0.120105
    C   C41  0.435546  0.453558  0.304307  -0.040639
    C   C42  0.453392  0.550336  0.350939  -0.027461
    C   C43  0.492464  0.578459  0.467322  0.064515
    C   C44  0.506488  0.673559  0.515854  -0.021711
    C   C45  0.545427  0.700875  0.632939  -0.008338
    C   C46  0.369373  0.489596  0.121137  -0.181270
    C   C47  0.387624  0.585780  0.166606  -0.179664
    C   C48  0.433591  0.618815  0.280563  0.183815
    C   C49  0.456090  0.717756  0.326289  -0.179736
    C   C50  0.484671  0.741855  0.447256  -0.019837
    H   H8   0.596908  0.332950  0.721716  0.204538
    H   H9   0.385212  0.188696  0.165235  0.043019
    H   H10  0.345052  0.305694  0.050456  0.155816
    H   H11  0.601792  0.661135  0.790111  0.097822
    H   H12  0.559265  0.773906  0.675642  0.046612
    H   H13  0.334270  0.465539  0.031834  0.141106
    H   H14  0.361271  0.632049  0.111763  0.155149
    N   N1   0.109912  0.989918  0.641087  -0.574437
    C   C51  0.067681  0.895830  0.590059  0.815045
    O   O17  0.077802  0.826551  0.639873  -0.569706
    C   C52  0.007444  0.876032  0.473163  -0.574239
    H   H15  0.075837  0.037718  0.611022  0.307873
    H   H16  0.054400  0.914951  0.405893  0.198907
    H   H17  0.943982  0.902898  0.479887  0.122272
    H   H18  0.978993  0.794862  0.446384  0.156211
    N   N2   0.646565  0.508471  0.826969  -0.589986
    C   C53  0.601642  0.475314  0.923890  0.774444
    O   O18  0.521594  0.408195  0.913958  -0.477386
    C   C54  0.649944  0.521515  0.043864  -0.551214
    H   H19  0.702749  0.576479  0.838342  0.313100
    H   H20  0.658507  0.601570  0.052072  0.136543
    H   H21  0.723949  0.513557  0.057048  0.129006
    H   H22  0.603461  0.483680  0.112150  0.184176
