# generated using pymatgen
data_V2H32(C7O2)5
_symmetry_space_group_name_H-M   'P 1'
_cell_length_a   6.32580700
_cell_length_b   20.17461700
_cell_length_c   23.29269200
_cell_angle_alpha   90.17313000
_cell_angle_beta   89.97843300
_cell_angle_gamma   90.01156700
_symmetry_Int_Tables_number   1
_chemical_formula_structural   V2H32(C7O2)5
_chemical_formula_sum   'V4 H64 C70 O20'
_cell_volume   2972.61659542
_cell_formula_units_Z   2
loop_
 _symmetry_equiv_pos_site_id
 _symmetry_equiv_pos_as_xyz
  1  'x, y, z'
loop_
 _atom_site_type_symbol
 _atom_site_label
 _atom_site_symmetry_multiplicity
 _atom_site_fract_x
 _atom_site_fract_y
 _atom_site_fract_z
 _atom_site_occupancy
  V  V1  1  0.93949500  0.49875000  0.50543000  1
  V  V2  1  0.43947300  0.51480400  0.50518100  1
  V  V3  1  0.28233700  0.01166500  0.00306000  1
  V  V4  1  0.78250000  0.99534800  0.00275800  1
  H  H1  1  0.97380800  0.72606100  0.84973000  1
  H  H2  1  0.11311100  0.65082700  0.78749300  1
  H  H3  1  0.42526200  0.76327400  0.69972100  1
  H  H4  1  0.44058900  0.68924700  0.74363700  1
  H  H5  1  0.35851700  0.74544700  0.82575100  1
  H  H6  1  0.43003200  0.81884500  0.78569200  1
  H  H7  1  0.85088800  0.76352900  0.68081300  1
  H  H8  1  0.09960300  0.79085300  0.65073100  1
  H  H9  1  0.78505800  0.75700500  0.79776700  1
  H  H10  1  0.14761300  0.86792800  0.72184300  1
  H  H11  1  0.43518600  0.80073500  0.21162000  1
  H  H12  1  0.45885900  0.71796700  0.28868600  1
  H  H13  1  0.78715300  0.70278000  0.29189900  1
  H  H14  1  0.76338500  0.78555400  0.21482400  1
  H  H15  1  0.34312600  0.34336400  0.74573900  1
  H  H16  1  0.31374300  0.25959400  0.82166900  1
  H  H17  1  0.28030000  0.24163900  0.20044100  1
  H  H18  1  0.91231000  0.18042200  0.23463100  1
  H  H19  1  0.93734400  0.26362900  0.31174800  1
  H  H20  1  0.73505600  0.67722600  0.70945000  1
  H  H21  1  0.69720000  0.64785000  0.78197400  1
  H  H22  1  0.00085300  0.58004700  0.69795300  1
  H  H23  1  0.77001000  0.54024300  0.80868200  1
  H  H24  1  0.05104300  0.55438700  0.80027200  1
  H  H25  1  0.92672800  0.48500500  0.76454000  1
  H  H26  1  0.53335700  0.55075600  0.72274300  1
  H  H27  1  0.71080700  0.50030200  0.68004300  1
  H  H28  1  0.63984900  0.58267100  0.65614500  1
  H  H29  1  0.02817900  0.17619900  0.82239400  1
  H  H30  1  0.09367000  0.17871300  0.74676800  1
  H  H31  1  0.75082400  0.09198200  0.80206800  1
  H  H32  1  0.92476000  0.10092000  0.67911300  1
  H  H33  1  0.66749900  0.12916200  0.70299000  1
  H  H34  1  0.73185300  0.04180300  0.70495800  1
  H  H35  1  0.18454400  0.05952500  0.74950600  1
  H  H36  1  0.99286700  0.00006800  0.77558300  1
  H  H37  1  0.11785000  0.05720400  0.82508800  1
  H  H38  1  0.01543800  0.21562500  0.66746100  1
  H  H39  1  0.14432100  0.27136400  0.71693000  1
  H  H40  1  0.85995100  0.31407600  0.61690600  1
  H  H41  1  0.18381800  0.39569100  0.68468800  1
  H  H42  1  0.92007600  0.38670000  0.71246500  1
  H  H43  1  0.96270900  0.42462000  0.64265500  1
  H  H44  1  0.34035500  0.31315900  0.63168600  1
  H  H45  1  0.19506900  0.34865800  0.57227000  1
  H  H46  1  0.18724300  0.26009400  0.58460900  1
  H  H47  1  0.20396200  0.32904100  0.32594400  1
  H  H48  1  0.12382800  0.32502700  0.25136600  1
  H  H49  1  0.45284200  0.42037800  0.30274700  1
  H  H50  1  0.25907300  0.40745300  0.18222400  1
  H  H51  1  0.52752200  0.38655000  0.20216400  1
  H  H52  1  0.43879800  0.47179200  0.20604600  1
  H  H53  1  0.00220500  0.44139500  0.25692400  1
  H  H54  1  0.18213100  0.50576200  0.28054200  1
  H  H55  1  0.08330300  0.44551500  0.33140500  1
  H  H56  1  0.80183800  0.88533400  0.78420400  1
  H  H57  1  0.69110900  0.82305300  0.73693500  1
  H  H58  1  0.89568600  0.95497000  0.70138600  1
  H  H59  1  0.71618000  0.83738600  0.63359400  1
  H  H60  1  0.97334800  0.87690300  0.62693800  1
  H  H61  1  0.73869100  0.92000200  0.60420500  1
  H  H62  1  0.44183200  0.90085800  0.69894700  1
  H  H63  1  0.52669800  0.97808600  0.66719800  1
  H  H64  1  0.54182100  0.96681300  0.74429600  1
  C  C1  1  0.64742000  0.44278300  0.58639000  1
  C  C2  1  0.67710500  0.43805500  0.42625700  1
  C  C3  1  0.17655800  0.57135600  0.42422900  1
  C  C4  1  0.14675900  0.57494200  0.58442900  1
  C  C5  1  0.00864000  0.68584700  0.76443700  1
  C  C6  1  0.34596500  0.73399200  0.73370900  1
  C  C7  1  0.32137500  0.77584400  0.78746400  1
  C  C8  1  0.07544700  0.89032700  0.87600600  1
  C  C9  1  0.12841200  0.71388700  0.71343600  1
  C  C10  1  0.95189200  0.74219000  0.80465200  1
  C  C11  1  0.09533900  0.80029400  0.79178700  1
  C  C12  1  0.02984700  0.83015100  0.73491500  1
  C  C13  1  0.01829300  0.77507100  0.69054600  1
  C  C14  1  0.08085800  0.84989000  0.83775700  1
  C  C15  1  0.14385500  0.66430500  0.66757400  1
  C  C16  1  0.14968600  0.62368700  0.62950300  1
  C  C17  1  0.30611500  0.73274200  0.27234000  1
  C  C18  1  0.12445400  0.70535700  0.29481300  1
  C  C19  1  0.92945500  0.72421100  0.27415800  1
  C  C20  1  0.91620800  0.77060600  0.23100100  1
  C  C21  1  0.09789900  0.79806400  0.20857000  1
  C  C22  1  0.29288200  0.77913300  0.22918900  1
  C  C23  1  0.13894300  0.65771200  0.34014100  1
  C  C24  1  0.08342800  0.84655800  0.16391800  1
  C  C25  1  0.06828600  0.88724900  0.12644800  1
  C  C26  1  0.15399300  0.61805000  0.37842000  1
  C  C27  1  0.45320300  0.26138800  0.79487300  1
  C  C28  1  0.61384600  0.21637500  0.80276200  1
  C  C29  1  0.79204600  0.21877500  0.76877000  1
  C  C30  1  0.80922800  0.26531500  0.72570300  1
  C  C31  1  0.64572200  0.30998500  0.71732400  1
  C  C32  1  0.46976000  0.30825000  0.75228800  1
  C  C33  1  0.59557300  0.16623400  0.84589700  1
  C  C34  1  0.65096300  0.35715500  0.67158600  1
  C  C35  1  0.65194200  0.39638800  0.63278200  1
  C  C36  1  0.58431800  0.12357400  0.88177900  1
  C  C37  1  0.42466100  0.24643700  0.22491400  1
  C  C38  1  0.59473100  0.20592500  0.21282200  1
  C  C39  1  0.77884800  0.21209400  0.24408100  1
  C  C40  1  0.79285000  0.25874200  0.28734900  1
  C  C41  1  0.62284700  0.29928800  0.29940000  1
  C  C42  1  0.43873500  0.29311300  0.26815900  1
  C  C43  1  0.57981700  0.15751700  0.16764100  1
  C  C44  1  0.63849900  0.34821900  0.34414000  1
  C  C45  1  0.65413800  0.38928000  0.38163200  1
  C  C46  1  0.56513300  0.11714800  0.12956100  1
  C  C47  1  0.54381400  0.06949300  0.08396000  1
  C  C48  1  0.57843900  0.07265000  0.92446700  1
  C  C49  1  0.07649500  0.93815800  0.92189500  1
  C  C50  1  0.04522300  0.93554600  0.08190200  1
  C  C51  1  0.80941500  0.65009500  0.74544700  1
  C  C52  1  0.86078800  0.57993900  0.72647400  1
  C  C53  1  0.90524400  0.53718900  0.77847100  1
  C  C54  1  0.67368700  0.55152900  0.69419800  1
  C  C55  1  0.96517800  0.17021700  0.77825800  1
  C  C56  1  0.87996900  0.10064900  0.77079000  1
  C  C57  1  0.79538900  0.09259300  0.71041200  1
  C  C58  1  0.05555200  0.05105100  0.78089500  1
  C  C59  1  0.00372800  0.26449400  0.68915400  1
  C  C60  1  0.00320200  0.31838600  0.64399500  1
  C  C61  1  0.01706100  0.38576300  0.67281200  1
  C  C62  1  0.19425100  0.30947700  0.60557000  1
  C  C63  1  0.25579000  0.33691600  0.28099200  1
  C  C64  1  0.32063900  0.40856000  0.27317900  1
  C  C65  1  0.39122100  0.41931600  0.21179600  1
  C  C66  1  0.13462400  0.45329500  0.28639300  1
  C  C67  1  0.81396700  0.86187200  0.74121300  1
  C  C68  1  0.77919200  0.91441200  0.69571600  1
  C  C69  1  0.80360600  0.88493400  0.63625100  1
  C  C70  1  0.55771800  0.94195900  0.70198200  1
  O  O1  1  0.56101800  0.43296400  0.47244600  1
  O  O2  1  0.76159900  0.42875300  0.54006100  1
  O  O3  1  0.97787000  0.53642000  0.58273600  1
  O  O4  1  0.85242300  0.47177800  0.42738600  1
  O  O5  1  0.06146100  0.57894300  0.47029400  1
  O  O6  1  0.47803200  0.48087000  0.58357400  1
  O  O7  1  0.66528200  0.55790400  0.50550400  1
  O  O8  1  0.35215500  0.53798200  0.42638900  1
  O  O9  1  0.26201100  0.58645700  0.53775200  1
  O  O10  1  0.16501100  0.45569100  0.50717300  1
  O  O11  1  0.74372500  0.03273700  0.92557600  1
  O  O12  1  0.36913800  0.03550600  0.08188200  1
  O  O13  1  0.16084600  0.92999400  0.03570300  1
  O  O14  1  0.45966100  0.08324000  0.97064800  1
  O  O15  1  0.24426300  0.97714400  0.92464300  1
  O  O16  1  0.66025600  0.07622700  0.03801300  1
  O  O17  1  0.55669100  0.95261200  0.00121700  1
  O  O18  1  0.96041300  0.92511200  0.96811100  1
  O  O19  1  0.86979500  0.96907700  0.08080900  1
  O  O20  1  0.05661900  0.05465200  0.00260900  1
