# Generated by REPEAT Assigner based on pymatgen
data_DB0-m18_o27_o84_f0_fsc
_audit_creation_date              2022-05-24
_audit_creation_method            REPEAT_Assigner
_cell_length_a                    6.714499
_cell_length_b                    13.840276
_cell_length_c                    18.017077
_cell_angle_alpha                 79.440619
_cell_angle_beta                  90.078617
_cell_angle_gamma                 100.373831
_cell_volume                      1618.210575
_symmetry_space_group_name_H-M    P1
_symmetry_Int_Tables_number       1
loop_
    _symmetry_equiv_pos_site_id
    _symmetry_equiv_pos_as_xyz
    1  x,y,z
loop_
    _atom_site_type_symbol
    _atom_site_label
    _atom_site_fract_x
    _atom_site_fract_y
    _atom_site_fract_z
    _atom_type_partial_charge
    O   O1   0.252609  0.106933  0.049886  -0.670479
    O   O2   0.747392  0.893067  0.950114  -0.670484
    O   O3   0.256137  0.114079  0.922578  -0.662933
    O   O4   0.743863  0.885921  0.077422  -0.662950
    C   C1   0.334983  0.145229  0.982531  0.769896
    C   C2   0.665017  0.854771  0.017469  0.769873
    Fe  Fe1  0.992494  0.007987  0.917665  1.157436
    Fe  Fe2  0.007507  0.992013  0.082335  1.157439
    O   O5   0.167382  0.899548  0.938380  -0.698427
    O   O6   0.832619  0.100452  0.061620  -0.698418
    O   O7   0.181888  0.889940  0.065990  -0.734505
    O   O8   0.818113  0.110060  0.934010  -0.734492
    C   C3   0.232137  0.861546  0.004058  0.808432
    C   C4   0.767864  0.138454  0.995942  0.808381
    C   C5   0.151371  0.055228  0.762588  -0.150881
    C   C6   0.848629  0.944772  0.237412  -0.150909
    H   H1   0.286648  0.086189  0.789005  0.145010
    H   H2   0.713353  0.913811  0.210995  0.145016
    C   C7   0.156323  0.054243  0.686230  0.204740
    C   C8   0.843677  0.945758  0.313770  0.204738
    H   H3   0.294541  0.084816  0.652867  -0.001026
    H   H4   0.705459  0.915184  0.347133  -0.001052
    C   C9   0.985935  0.012060  0.653038  -0.500988
    C   C10  0.014065  0.987940  0.346962  -0.500928
    C   C11  0.811680  0.973099  0.696708  0.187677
    C   C12  0.188320  0.026901  0.303292  0.187537
    H   H5   0.676657  0.939346  0.671603  0.007974
    H   H6   0.323344  0.060655  0.328397  0.008046
    C   C13  0.811731  0.975168  0.773072  -0.118528
    C   C14  0.188270  0.024832  0.226928  -0.118440
    H   H7   0.676661  0.942402  0.807770  0.131819
    H   H8   0.323340  0.057599  0.192230  0.131831
    N   N1   0.980918  0.015412  0.804841  0.006980
    N   N2   0.019082  0.984588  0.195159  0.006955
    N   N3   0.827119  0.963658  0.540694  -0.327068
    N   N4   0.172881  0.036342  0.459306  -0.327059
    N   N5   0.834459  0.957430  0.468406  -0.318342
    N   N6   0.165541  0.042570  0.531594  -0.318318
    C   C15  0.007448  0.993565  0.427060  0.850417
    C   C16  0.992553  0.006436  0.572940  0.850422
    C   C17  0.430755  0.327385  0.959143  -0.118692
    C   C18  0.569246  0.672615  0.040857  -0.118696
    H   H9   0.274134  0.331587  0.947742  0.113498
    H   H10  0.725867  0.668414  0.052258  0.113514
    C   C19  0.568821  0.413666  0.961150  -0.185296
    C   C20  0.431180  0.586335  0.038850  -0.185329
    H   H11  0.520843  0.485234  0.949398  0.125140
    H   H12  0.479157  0.514766  0.050602  0.125140
    C   C21  0.766016  0.408580  0.980423  0.222680
    C   C22  0.233985  0.591420  0.019577  0.222755
    C   C23  0.826400  0.316993  0.993089  -0.267295
    C   C24  0.173600  0.683007  0.006911  -0.267326
    H   H13  0.981698  0.311048  0.004688  0.185754
    H   H14  0.018303  0.688952  0.995312  0.185754
    C   C25  0.689987  0.231027  0.988912  0.003180
    C   C26  0.310013  0.768973  0.011088  0.003157
    C   C27  0.490148  0.235548  0.973838  -0.082562
    C   C28  0.509852  0.764452  0.026162  -0.082497
    C   C29  0.907413  0.500806  0.986504  -0.194084
    C   C30  0.092587  0.499195  0.013496  -0.194138
    H   H15  0.856216  0.570943  0.969038  0.110490
    H   H16  0.143785  0.429057  0.030962  0.110462
