data_DB0-m3_o160_o1510_f0_fsc.sym.22_repeat
_audit_creation_date              2024-02-20
_audit_creation_method            'Materials Studio'
_symmetry_space_group_name_H-M    'P1'
_symmetry_Int_Tables_number       1
_symmetry_cell_setting            triclinic
loop_
_symmetry_equiv_pos_as_xyz
  x,y,z
_cell_length_a                    13.4003
_cell_length_b                    8.5451
_cell_length_c                    19.3065
_cell_angle_alpha                 90.0000
_cell_angle_beta                  91.0409
_cell_angle_gamma                 90.0000
loop_
_atom_site_label
_atom_site_type_symbol
_atom_site_fract_x
_atom_site_fract_y
_atom_site_fract_z
_atom_site_U_iso_or_equiv
_atom_site_adp_type
_atom_site_occupancy
H1     H     0.05055   0.00112   0.43908   0.00000  Uiso   1.00
C1     C     0.01459   0.13977   0.52604   0.00000  Uiso   1.00
C2     C     0.01495   0.86079   0.52559   0.00000  Uiso   1.00
C3     C     0.99444   0.14008   0.59588   0.00000  Uiso   1.00
C4     C     0.99494   0.85938   0.59532   0.00000  Uiso   1.00
H2     H     0.98734   0.25069   0.62236   0.00000  Uiso   1.00
H3     H     0.98346   0.74879   0.62110   0.00000  Uiso   1.00
C5     C     0.99037   0.99922   0.63162   0.00000  Uiso   1.00
C6     C     0.03139   0.00057   0.49283   0.00000  Uiso   1.00
C7     C     0.91023   0.96122   0.96374   0.00000  Uiso   1.00
C8     C     0.08067   0.04338   0.96156   0.00000  Uiso   1.00
C9     C     0.91453   0.95902   0.03510   0.00000  Uiso   1.00
C10    C     0.08457   0.04326   0.03303   0.00000  Uiso   1.00
C11    C     0.00166   0.00016   0.07002   0.00000  Uiso   1.00
C12    C     0.99333   0.00290   0.92670   0.00000  Uiso   1.00
C13    C     0.00407   0.14043   0.18164   0.00000  Uiso   1.00
C14    C     0.00379   0.85938   0.18143   0.00000  Uiso   1.00
H4     H     0.00734   0.25039   0.15410   0.00000  Uiso   1.00
H5     H     0.00859   0.74977   0.15372   0.00000  Uiso   1.00
C15    C     0.99441   0.13932   0.25263   0.00000  Uiso   1.00
C16    C     0.99436   0.85986   0.25242   0.00000  Uiso   1.00
C17    C     0.98432   0.99945   0.28662   0.00000  Uiso   1.00
H6     H     0.97254   0.99919   0.34144   0.00000  Uiso   1.00
C18    C     0.00457   0.00003   0.14574   0.00000  Uiso   1.00
C19    C     0.03824   0.88426   0.81572   0.00000  Uiso   1.00
C20    C     0.93741   0.11411   0.81462   0.00000  Uiso   1.00
H7     H     0.07868   0.79456   0.84399   0.00000  Uiso   1.00
H8     H     0.89913   0.20585   0.84207   0.00000  Uiso   1.00
C21    C     0.03618   0.88217   0.74437   0.00000  Uiso   1.00
C22    C     0.93572   0.11293   0.74309   0.00000  Uiso   1.00
H9     H     0.07812   0.79306   0.71795   0.00000  Uiso   1.00
H10    H     0.89421   0.20247   0.71558   0.00000  Uiso   1.00
C23    C     0.98546   0.99702   0.70752   0.00000  Uiso   1.00
C24    C     0.98949   0.00062   0.85101   0.00000  Uiso   1.00
O1     O     0.09487   0.66966   0.45647   0.00000  Uiso   1.00
O2     O     0.09478   0.33083   0.45685   0.00000  Uiso   1.00
O3     O     0.92359   0.66395   0.46492   0.00000  Uiso   1.00
O4     O     0.92355   0.33682   0.46531   0.00000  Uiso   1.00
C25    C     0.01151   0.71910   0.48335   0.00000  Uiso   1.00
C26    C     0.01143   0.28188   0.48397   0.00000  Uiso   1.00
O5     O     0.91435   0.66841   0.32107   0.00000  Uiso   1.00
O6     O     0.91432   0.33069   0.32143   0.00000  Uiso   1.00
O7     O     0.08612   0.66247   0.31265   0.00000  Uiso   1.00
O8     O     0.08607   0.33651   0.31297   0.00000  Uiso   1.00
C27    C     0.99795   0.71725   0.29405   0.00000  Uiso   1.00
C28    C     0.99792   0.28164   0.29446   0.00000  Uiso   1.00
Zn1    Zn    0.89348   0.49995   0.39240   0.00000  Uiso   1.00
Zn2    Zn    0.11560   0.49984   0.38575   0.00000  Uiso   1.00
C29    C     0.30004   0.49944   0.32548   0.00000  Uiso   1.00
N1     N     0.24636   0.49976   0.38368   0.00000  Uiso   1.00
C30    C     0.29248   0.50007   0.44608   0.00000  Uiso   1.00
C31    C     0.39482   0.50012   0.45201   0.00000  Uiso   1.00
C32    C     0.45234   0.49984   0.39311   0.00000  Uiso   1.00
C33    C     0.40328   0.49948   0.32932   0.00000  Uiso   1.00
C34    C     0.61217   0.50031   0.45711   0.00000  Uiso   1.00
C35    C     0.55658   0.49991   0.39566   0.00000  Uiso   1.00
C36    C     0.60750   0.49957   0.33423   0.00000  Uiso   1.00
C37    C     0.55567   0.49919   0.27187   0.00000  Uiso   1.00
N2     N     0.45536   0.49916   0.27042   0.00000  Uiso   1.00
C38    C     0.71501   0.50035   0.45575   0.00000  Uiso   1.00
N3     N     0.76272   0.50000   0.39505   0.00000  Uiso   1.00
C39    C     0.71058   0.49961   0.33480   0.00000  Uiso   1.00
H11    H     0.24888   0.50031   0.49261   0.00000  Uiso   1.00
H12    H     0.74997   0.49932   0.28644   0.00000  Uiso   1.00
H13    H     0.59561   0.49893   0.22372   0.00000  Uiso   1.00
H14    H     0.42565   0.50038   0.50374   0.00000  Uiso   1.00
H15    H     0.57914   0.50062   0.50738   0.00000  Uiso   1.00
H16    H     0.26241   0.49919   0.27547   0.00000  Uiso   1.00
N4     N     0.77066   0.50077   0.51925   0.00000  Uiso   1.00
H17    H     0.74968   0.59989   0.54706   0.00000  Uiso   1.00
H18    H     0.74973   0.40197   0.54730   0.00000  Uiso   1.00
N5     N     0.82034   0.91600   0.92869   0.00000  Uiso   1.00
H19    H     0.79516   0.01059   0.89902   0.00000  Uiso   1.00
H20    H     0.83702   0.82348   0.89553   0.00000  Uiso   1.00
N6     N     0.16657   0.08914   0.92418   0.00000  Uiso   1.00
H21    H     0.18873   0.99486   0.89378   0.00000  Uiso   1.00
H22    H     0.14609   0.18168   0.89159   0.00000  Uiso   1.00
N7     N     0.82763   0.91767   0.07237   0.00000  Uiso   1.00
H23    H     0.84351   0.81757   0.10147   0.00000  Uiso   1.00
H24    H     0.81144   0.00943   0.10607   0.00000  Uiso   1.00
N8     N     0.17535   0.08363   0.06815   0.00000  Uiso   1.00
H25    H     0.16208   0.18146   0.09896   0.00000  Uiso   1.00
H26    H     0.19540   0.99016   0.10033   0.00000  Uiso   1.00
