# generated using pymatgen
data_ZnH10C16(NO2)2
_symmetry_space_group_name_H-M   'P 1'
_cell_length_a   9.76589900
_cell_length_b   10.99236500
_cell_length_c   14.10157700
_cell_angle_alpha   89.99489600
_cell_angle_beta   85.32746600
_cell_angle_gamma   90.00394600
_symmetry_Int_Tables_number   1
_chemical_formula_structural   ZnH10C16(NO2)2
_chemical_formula_sum   'Zn2 H20 C32 N4 O8'
_cell_volume   1508.77781663
_cell_formula_units_Z   2
loop_
 _symmetry_equiv_pos_site_id
 _symmetry_equiv_pos_as_xyz
  1  'x, y, z'
loop_
 _atom_site_type_symbol
 _atom_site_label
 _atom_site_symmetry_multiplicity
 _atom_site_fract_x
 _atom_site_fract_y
 _atom_site_fract_z
 _atom_site_occupancy
  Zn  Zn1  1  0.35331100  0.49019000  0.49221800  1
  Zn  Zn2  1  0.66469800  0.49384900  0.49173600  1
  H  H1  1  0.89430700  0.36381500  0.38226400  1
  H  H2  1  0.12364500  0.61996400  0.60206500  1
  H  H3  1  0.14568500  0.35975900  0.38295100  1
  H  H4  1  0.87228000  0.62422600  0.60121700  1
  H  H5  1  0.35345500  0.47421600  0.00613700  1
  H  H6  1  0.66519600  0.50525800  0.97768700  1
  H  H7  1  0.70905300  0.87640000  0.53400300  1
  H  H8  1  0.30837100  0.10859000  0.44853400  1
  H  H9  1  0.83086600  0.07823000  0.50595000  1
  H  H10  1  0.97597400  0.06738500  0.62525500  1
  H  H11  1  0.00326200  0.05245600  0.79558900  1
  H  H12  1  0.80382500  0.07809900  0.91188600  1
  H  H13  1  0.57617000  0.12027200  0.85696500  1
  H  H14  1  0.54614300  0.13696700  0.68806700  1
  H  H15  1  0.21604800  0.82771400  0.48186300  1
  H  H16  1  0.12776100  0.70018100  0.36802900  1
  H  H17  1  0.15031000  0.61360700  0.20773300  1
  H  H18  1  0.32213900  0.69504200  0.08716600  1
  H  H19  1  0.47194400  0.86348800  0.12762100  1
  H  H20  1  0.45150300  0.95178700  0.28547300  1
  C  C1  1  0.50654500  0.73082300  0.48964500  1
  C  C2  1  0.51123300  0.25346200  0.49395800  1
  C  C3  1  0.48796500  0.49367000  0.67795400  1
  C  C4  1  0.53006900  0.49009300  0.30599300  1
  C  C5  1  0.94457700  0.42124800  0.43106300  1
  C  C6  1  0.07339000  0.56264800  0.55317900  1
  C  C7  1  0.08566900  0.41854200  0.43171000  1
  C  C8  1  0.93230600  0.56547500  0.55243900  1
  C  C9  1  0.54198100  0.49077400  0.20387400  1
  C  C10  1  0.47619700  0.49150400  0.78004100  1
  C  C11  1  0.56497700  0.49457000  0.01581700  1
  C  C12  1  0.45368700  0.48484300  0.96802100  1
  C  C13  1  0.46607800  0.48869600  0.86575000  1
  C  C14  1  0.55235200  0.49213900  0.11813300  1
  C  C15  1  0.62035800  0.92647200  0.51452600  1
  C  C16  1  0.39666600  0.05865200  0.46884500  1
  C  C17  1  0.62456900  0.05201300  0.51740700  1
  C  C18  1  0.39205400  0.93342800  0.46537400  1
  C  C19  1  0.51196700  0.11940700  0.49388600  1
  C  C20  1  0.50477500  0.86527100  0.48941700  1
  C  C21  1  0.75887000  0.10050000  0.64385800  1
  C  C22  1  0.88703100  0.07848800  0.67537400  1
  C  C23  1  0.90292500  0.07012800  0.77141200  1
  C  C24  1  0.79121500  0.08447300  0.83659700  1
  C  C25  1  0.66358200  0.10787100  0.80574700  1
  C  C26  1  0.64706000  0.11620700  0.70975300  1
  C  C27  1  0.29000200  0.82951700  0.33996800  1
  C  C28  1  0.20508400  0.73564000  0.31616700  1
  C  C29  1  0.21710400  0.68702700  0.22577300  1
  C  C30  1  0.31338200  0.73253600  0.15822800  1
  C  C31  1  0.39739600  0.82695500  0.18100300  1
  C  C32  1  0.38587200  0.87594600  0.27133900  1
  N  N1  1  0.14842600  0.48924300  0.49282100  1
  N  N2  1  0.86957100  0.49490600  0.49122700  1
  N  N3  1  0.74435900  0.10926200  0.54505600  1
  N  N4  1  0.27317200  0.87984100  0.43265700  1
  O  O1  1  0.38995800  0.67154700  0.49100000  1
  O  O2  1  0.62825100  0.31238200  0.49308600  1
  O  O3  1  0.62559900  0.67494800  0.49049000  1
  O  O4  1  0.39224800  0.30916900  0.49331900  1
  O  O5  1  0.37491100  0.49162400  0.63388400  1
  O  O6  1  0.64315800  0.49213200  0.35006400  1
  O  O7  1  0.61120300  0.49521000  0.63358900  1
  O  O8  1  0.40675800  0.48884800  0.35034900  1
