# generated using pymatgen
data_V2H13C33NO10
_symmetry_space_group_name_H-M   'P 1'
_cell_length_a   6.69587300
_cell_length_b   19.96088000
_cell_length_c   23.83170100
_cell_angle_alpha   91.61714700
_cell_angle_beta   90.66280400
_cell_angle_gamma   89.18469300
_symmetry_Int_Tables_number   1
_chemical_formula_structural   V2H13C33NO10
_chemical_formula_sum   'V4 H26 C66 N2 O20'
_cell_volume   3183.44865978
_cell_formula_units_Z   2
loop_
 _symmetry_equiv_pos_site_id
 _symmetry_equiv_pos_as_xyz
  1  'x, y, z'
loop_
 _atom_site_type_symbol
 _atom_site_label
 _atom_site_symmetry_multiplicity
 _atom_site_fract_x
 _atom_site_fract_y
 _atom_site_fract_z
 _atom_site_occupancy
  V  V1  1  0.15853300  0.49750600  0.49432100  1
  V  V2  1  0.65901200  0.50081200  0.50867500  1
  V  V3  1  0.65132100  0.00388100  0.00872000  1
  V  V4  1  0.15032100  0.99844100  0.99674300  1
  H  H1  1  0.54028600  0.65022500  0.82001800  1
  H  H2  1  0.76946500  0.63468800  0.65235000  1
  H  H3  1  0.17181700  0.70843900  0.53488100  1
  H  H4  1  0.21598500  0.86103800  0.68406700  1
  H  H5  1  0.52389100  0.70267700  0.90819300  1
  H  H6  1  0.61239300  0.79511700  0.97325700  1
  H  H7  1  0.99413300  0.87480600  0.85302500  1
  H  H8  1  0.65786900  0.64313500  0.72575100  1
  H  H9  1  0.09254200  0.86960900  0.77784000  1
  H  H10  1  0.24626400  0.80470400  0.59751500  1
  H  H11  1  0.59283600  0.22334700  0.79242000  1
  H  H12  1  0.62423500  0.30464700  0.71749600  1
  H  H13  1  0.23831700  0.25041500  0.69948600  1
  H  H14  1  0.20687100  0.16907100  0.77440600  1
  H  H15  1  0.74791400  0.72296300  0.29318000  1
  H  H16  1  0.73353400  0.80044000  0.21464800  1
  H  H17  1  0.10218500  0.77829600  0.20408500  1
  H  H18  1  0.11654200  0.70092400  0.28250800  1
  H  H19  1  0.38222300  0.39164500  0.15898100  1
  H  H20  1  0.38783000  0.38368100  0.33938600  1
  H  H21  1  0.51779300  0.26692400  0.48055100  1
  H  H22  1  0.46666900  0.11034000  0.33329400  1
  H  H23  1  0.39052000  0.23513300  0.01100100  1
  H  H24  1  0.36097900  0.11744100  0.15495500  1
  H  H25  1  0.39988900  0.38849900  0.25927800  1
  H  H26  1  0.41588800  0.11319300  0.23382800  1
  C  C1  1  0.43413400  0.57910100  0.42342900  1
  C  C2  1  0.44280500  0.39155200  0.44692200  1
  C  C3  1  0.94640300  0.41896100  0.57941100  1
  C  C4  1  0.93968400  0.60674300  0.55614500  1
  C  C5  1  0.81253700  0.83885500  0.91627400  1
  C  C6  1  0.96023500  0.66785200  0.59035500  1
  C  C7  1  0.62902400  0.73991300  0.89571800  1
  C  C8  1  0.67939600  0.79137100  0.93221900  1
  C  C9  1  0.89501500  0.83535000  0.86353600  1
  C  C10  1  0.83874000  0.78476800  0.82539000  1
  C  C11  1  0.70601500  0.73716000  0.84246000  1
  C  C12  1  0.90869500  0.78148000  0.77041500  1
  C  C13  1  0.84600700  0.73027700  0.73359800  1
  C  C14  1  0.71319200  0.68333000  0.75216100  1
  C  C15  1  0.64478000  0.68690800  0.80615000  1
  C  C16  1  0.03991200  0.82879400  0.75163600  1
  C  C17  1  0.11093200  0.82451100  0.69788700  1
  C  C18  1  0.05423900  0.77306500  0.66211700  1
  C  C19  1  0.91965000  0.72601900  0.67905800  1
  C  C20  1  0.13906900  0.76805800  0.60982700  1
  C  C21  1  0.09657800  0.71444700  0.57463100  1
  C  C22  1  0.86843400  0.67409300  0.64168400  1
  C  C23  1  0.75221800  0.27464800  0.72980900  1
  C  C24  1  0.93335200  0.28277200  0.70390300  1
  C  C25  1  0.09622300  0.24432100  0.71966700  1
  C  C26  1  0.07824000  0.19843900  0.76158000  1
  C  C27  1  0.89739400  0.19063400  0.78774200  1
  C  C28  1  0.73425600  0.22879200  0.77172300  1
  C  C29  1  0.95017400  0.33096400  0.66041600  1
  C  C30  1  0.88329500  0.14561600  0.83365300  1
  C  C31  1  0.88039100  0.10942100  0.87340000  1
  C  C32  1  0.95550900  0.37137000  0.62368900  1
  C  C33  1  0.59791900  0.77853000  0.22949800  1
  C  C34  1  0.41687100  0.79415100  0.20446000  1
  C  C35  1  0.24419600  0.76612500  0.22357600  1
  C  C36  1  0.25227100  0.72269500  0.26759500  1
  C  C37  1  0.43302600  0.70708600  0.29270200  1
  C  C38  1  0.60600700  0.73503300  0.27358500  1
  C  C39  1  0.40699800  0.83967500  0.15872400  1
  C  C40  1  0.43950200  0.66201700  0.33878300  1
  C  C41  1  0.44005400  0.62418200  0.37743100  1
  C  C42  1  0.39582500  0.87787500  0.12038900  1
  C  C43  1  0.37227100  0.17094000  0.08083200  1
  C  C44  1  0.45528100  0.33080300  0.41200900  1
  C  C45  1  0.38012700  0.28969600  0.08927100  1
  C  C46  1  0.38303200  0.23218200  0.05614800  1
  C  C47  1  0.36708300  0.16680500  0.13832100  1
  C  C48  1  0.37805000  0.22424900  0.17221300  1
  C  C49  1  0.37842900  0.28568900  0.14693800  1
  C  C50  1  0.39511900  0.22133700  0.23048600  1
  C  C51  1  0.40074300  0.28030600  0.26290800  1
  C  C52  1  0.39144600  0.34137300  0.23655800  1
  C  C53  1  0.38253300  0.34375400  0.17906200  1
  C  C54  1  0.41532100  0.16034700  0.25664700  1
  C  C55  1  0.44583300  0.15812800  0.31364300  1
  C  C56  1  0.45152500  0.21620700  0.34571600  1
  C  C57  1  0.42330100  0.27745500  0.32103400  1
  C  C58  1  0.48667100  0.21238400  0.40268000  1
  C  C59  1  0.49200300  0.26985400  0.43582100  1
  C  C60  1  0.41968900  0.33476900  0.35521500  1
  C  C61  1  0.38339600  0.10937600  0.04691800  1
  C  C62  1  0.37943800  0.92341900  0.07476900  1
  C  C63  1  0.84292000  0.89674900  0.95372800  1
  C  C64  1  0.89265400  0.06900000  0.92243400  1
  C  C65  1  0.38672500  0.35394000  0.06385800  1
  C  C66  1  0.51718900  0.14828500  0.42743400  1
  N  N1  1  0.39212600  0.40573300  0.04336400  1
  N  N2  1  0.54170000  0.09660100  0.44739700  1
  O  O1  1  0.60883700  0.41795300  0.46429100  1
  O  O2  1  0.26169200  0.55444800  0.43508800  1
  O  O3  1  0.10523400  0.58064300  0.53818100  1
  O  O4  1  0.26777600  0.41922800  0.45191200  1
  O  O5  1  0.11191200  0.43679700  0.55646200  1
  O  O6  1  0.60257000  0.56188900  0.44680700  1
  O  O7  1  0.43371800  0.50652700  0.53651100  1
  O  O8  1  0.77125000  0.44344600  0.56765900  1
  O  O9  1  0.76563800  0.57889000  0.55146000  1
  O  O10  1  0.93163900  0.49176600  0.46648100  1
  O  O11  1  0.19966100  0.92597500  0.04977700  1
  O  O12  1  0.55702100  0.09697100  0.02279900  1
  O  O13  1  0.74054200  0.02963700  0.93372100  1
  O  O14  1  0.50928900  0.97384600  0.07573100  1
  O  O15  1  0.69394100  0.90850000  0.98899100  1
  O  O16  1  0.24207500  0.06492200  0.05441100  1
  O  O17  1  0.37479200  0.98956700  0.96631600  1
  O  O18  1  0.00499400  0.93473500  0.94626900  1
  O  O19  1  0.05652400  0.07544200  0.95292700  1
  O  O20  1  0.87694900  0.01119600  0.03995200  1
