# Generated by REPEAT Assigner based on pymatgen
data_DB0-m3_o12_o13_f0_pcu.sym.10_sqe
_audit_creation_date              2022-05-24
_audit_creation_method            REPEAT_Assigner
_cell_length_a                    10.017286
_cell_length_b                    11.243281
_cell_length_c                    13.080491
_cell_angle_alpha                 91.096506
_cell_angle_beta                  93.916848
_cell_angle_gamma                 92.450597
_cell_volume                      1468.073738
_symmetry_space_group_name_H-M    P1
_symmetry_Int_Tables_number       1
loop_
    _symmetry_equiv_pos_site_id
    _symmetry_equiv_pos_as_xyz
    1  x,y,z
loop_
    _atom_site_type_symbol
    _atom_site_label
    _atom_site_fract_x
    _atom_site_fract_y
    _atom_site_fract_z
    _atom_type_partial_charge
    O   O1   0.572793  0.309379  0.508897  -0.719644
    O   O2   0.427207  0.690621  0.491104  -0.719650
    O   O3   0.346994  0.340223  0.481201  -0.708324
    O   O4   0.653007  0.659777  0.518800  -0.708318
    C   C1   0.447817  0.269885  0.493557  0.859965
    C   C2   0.552184  0.730115  0.506443  0.859962
    O   O5   0.593401  0.487382  0.664377  -0.647480
    O   O6   0.406599  0.512618  0.335624  -0.647481
    O   O7   0.367757  0.518251  0.636800  -0.619889
    O   O8   0.632244  0.481748  0.363200  -0.619875
    C   C3   0.474977  0.503626  0.698040  0.723066
    C   C4   0.525024  0.496373  0.301961  0.723034
    Zn  Zn1  0.648752  0.479416  0.518411  1.069796
    Zn  Zn2  0.351248  0.520584  0.481589  1.069801
    C   C5   0.537781  0.494631  0.190793  -0.051051
    C   C6   0.462219  0.505369  0.809208  -0.051079
    C   C7   0.327546  0.523827  0.952450  0.445861
    C   C8   0.672454  0.476173  0.047551  0.445878
    C   C9   0.339514  0.522149  0.848113  -0.315428
    C   C10  0.660487  0.477851  0.151887  -0.315452
    C   C11  0.573111  0.490147  0.875902  -0.130984
    C   C12  0.426889  0.509853  0.124098  -0.131004
    C   C13  0.561497  0.491547  0.980780  -0.065186
    C   C14  0.438503  0.508453  0.019221  -0.065166
    H   H1   0.330751  0.522941  0.154132  0.098051
    H   H2   0.669249  0.477059  0.845869  0.098045
    H   H3   0.748674  0.465762  0.202281  0.120056
    H   H4   0.251327  0.534238  0.797720  0.120048
    H   H5   0.380108  0.904371  0.485278  0.126523
    H   H6   0.619892  0.095630  0.514722  0.126516
    C   C15  0.418595  0.140943  0.489972  -0.379967
    C   C16  0.581406  0.859057  0.510029  -0.379965
    C   C17  0.516196  0.064272  0.501979  -0.004028
    C   C18  0.483804  0.935728  0.498021  -0.004037
    H   H7   0.684572  0.892099  0.522701  0.157695
    H   H8   0.315428  0.107901  0.477300  0.157690
    H   H9   0.892048  0.572656  0.435889  0.150987
    H   H10  0.107953  0.427343  0.564112  0.150994
    N   N1   0.156021  0.548670  0.456463  -0.273582
    N   N2   0.843979  0.451330  0.543538  -0.273593
    C   C19  0.072041  0.490537  0.508199  0.071176
    C   C20  0.927959  0.509463  0.491802  0.071193
    H   H11  0.884314  0.392692  0.595266  0.264173
    H   H12  0.115687  0.607308  0.404735  0.264170
    O   O9   0.204926  0.540741  0.988846  -0.505655
    H   H13  0.197419  0.628271  0.990886  0.333910
    O   O10  0.795074  0.459258  0.011154  -0.505662
    H   H14  0.802581  0.371729  0.009115  0.333911
