# generated using pymatgen
data_CuH12C28NO10
_symmetry_space_group_name_H-M   'P 1'
_cell_length_a   24.86909000
_cell_length_b   25.44513000
_cell_length_c   16.35012400
_cell_angle_alpha   90.00000000
_cell_angle_beta   90.00000000
_cell_angle_gamma   90.00000000
_symmetry_Int_Tables_number   1
_chemical_formula_structural   CuH12C28NO10
_chemical_formula_sum   'Cu4 H48 C112 N4 O40'
_cell_volume   10346.31314517
_cell_formula_units_Z   4
loop_
 _symmetry_equiv_pos_site_id
 _symmetry_equiv_pos_as_xyz
  1  'x, y, z'
loop_
 _atom_site_type_symbol
 _atom_site_label
 _atom_site_symmetry_multiplicity
 _atom_site_fract_x
 _atom_site_fract_y
 _atom_site_fract_z
 _atom_site_occupancy
  Cu  Cu1  1  0.99957700  0.49968800  0.58271500  1
  Cu  Cu2  1  0.99994000  0.49973600  0.41944900  1
  Cu  Cu3  1  0.50023300  0.99919800  0.58178800  1
  Cu  Cu4  1  0.49973600  0.99956900  0.41853300  1
  H  H1  1  0.20534000  0.67260500  0.62807700  1
  H  H2  1  0.82001000  0.30194700  0.37373600  1
  H  H3  1  0.79040300  0.32996400  0.62431300  1
  H  H4  1  0.18262000  0.69573200  0.37488600  1
  H  H5  1  0.79348900  0.67127100  0.37371400  1
  H  H6  1  0.17899500  0.30194800  0.63031700  1
  H  H7  1  0.20764300  0.32734000  0.37886300  1
  H  H8  1  0.81838600  0.69792000  0.62553800  1
  H  H9  1  0.68164000  0.19610300  0.62688600  1
  H  H10  1  0.29196600  0.82803000  0.37551200  1
  H  H11  1  0.31890400  0.80228300  0.62726100  1
  H  H12  1  0.70364000  0.17415100  0.37304700  1
  H  H13  1  0.32632300  0.20471900  0.38119600  1
  H  H14  1  0.70682400  0.82745700  0.62404200  1
  H  H15  1  0.68081400  0.80192800  0.37215400  1
  H  H16  1  0.28838500  0.16558800  0.62585700  1
  H  H17  1  0.02213000  0.57904000  0.86788100  1
  H  H18  1  0.02455900  0.42022500  0.13550900  1
  H  H19  1  0.97087900  0.42156000  0.86644400  1
  H  H20  1  0.97621800  0.57853800  0.13472700  1
  H  H21  1  0.47394700  0.07848300  0.86599100  1
  H  H22  1  0.47698600  0.92086500  0.13363600  1
  H  H23  1  0.52392900  0.92049500  0.86609500  1
  H  H24  1  0.51722900  0.08075500  0.13399100  1
  H  H25  1  0.15654800  0.60613200  0.70383600  1
  H  H26  1  0.89113300  0.34958600  0.29998300  1
  H  H27  1  0.83732200  0.39850900  0.70067300  1
  H  H28  1  0.11421900  0.64660200  0.29791700  1
  H  H29  1  0.84052500  0.60436500  0.29878500  1
  H  H30  1  0.10855200  0.35017700  0.70386800  1
  H  H31  1  0.15925300  0.39454300  0.30091300  1
  H  H32  1  0.88837700  0.65031100  0.70236200  1
  H  H33  1  0.61110300  0.14766500  0.70210000  1
  H  H34  1  0.34174800  0.89501000  0.29866900  1
  H  H35  1  0.38754300  0.85052300  0.70286500  1
  H  H36  1  0.65410000  0.10878400  0.29613000  1
  H  H37  1  0.40474500  0.16247700  0.31173300  1
  H  H38  1  0.66067600  0.89521300  0.70003800  1
  H  H39  1  0.60883600  0.84995100  0.29729500  1
  H  H40  1  0.33713500  0.09672600  0.69960500  1
  H  H41  1  0.05523700  0.61936200  0.74526000  1
  H  H42  1  0.05681400  0.38033700  0.25538300  1
  H  H43  1  0.93958300  0.38139900  0.74322300  1
  H  H44  1  0.94496200  0.61973300  0.25863700  1
  H  H45  1  0.44281700  0.11859600  0.74060400  1
  H  H46  1  0.44530300  0.87957000  0.25521400  1
  H  H47  1  0.55735500  0.88030700  0.74529000  1
  H  H48  1  0.50080800  0.10770300  0.34853600  1
  C  C1  1  0.07530000  0.42985200  0.50207700  1
  C  C2  1  0.92414800  0.56955400  0.50155800  1
  C  C3  1  0.92361700  0.43048000  0.50003000  1
  C  C4  1  0.07585500  0.56908300  0.50064500  1
  C  C5  1  0.57554000  0.92956700  0.49889200  1
  C  C6  1  0.42470800  0.06961200  0.50000300  1
  C  C7  1  0.42403100  0.92988800  0.50135400  1
  C  C8  1  0.57589000  0.06889900  0.50033000  1
  C  C9  1  0.99838100  0.49964300  0.87654000  1
  C  C10  1  0.99922400  0.49907100  0.12568500  1
  C  C11  1  0.49884400  0.99955400  0.87556500  1
  C  C12  1  0.49917900  0.00040900  0.12487000  1
  C  C13  1  0.99861900  0.49939500  0.96427500  1
  C  C14  1  0.99885400  0.49919100  0.03795400  1
  C  C15  1  0.49890800  0.99991900  0.96333500  1
  C  C16  1  0.49908600  0.00029700  0.03704600  1
  C  C17  1  0.18422600  0.66262900  0.57237700  1
  C  C18  1  0.82956800  0.32307400  0.42923100  1
  C  C19  1  0.81313900  0.33875700  0.56972700  1
  C  C20  1  0.17158500  0.67544800  0.43041700  1
  C  C21  1  0.81552500  0.66236200  0.42898600  1
  C  C22  1  0.16887300  0.32231900  0.57433000  1
  C  C23  1  0.18485300  0.33652500  0.43331700  1
  C  C24  1  0.82927300  0.67708200  0.57034400  1
  C  C25  1  0.67062100  0.17609500  0.57107400  1
  C  C26  1  0.31433100  0.83735300  0.43042600  1
  C  C27  1  0.32928600  0.82293100  0.57163400  1
  C  C28  1  0.68284500  0.16390300  0.42880300  1
  C  C29  1  0.33386700  0.18117400  0.43499300  1
  C  C30  1  0.68479100  0.83686500  0.56899300  1
  C  C31  1  0.67027200  0.82263000  0.42760200  1
  C  C32  1  0.31288500  0.15936900  0.57206400  1
  C  C33  1  0.14964500  0.62010900  0.57103600  1
  C  C34  1  0.86406400  0.36531600  0.42611200  1
  C  C35  1  0.84774100  0.38123500  0.56881400  1
  C  C36  1  0.13718000  0.63311900  0.42681000  1
  C  C37  1  0.85023800  0.61999900  0.43078300  1
  C  C38  1  0.13448300  0.36467700  0.57681500  1
  C  C39  1  0.15023400  0.37902300  0.43349300  1
  C  C40  1  0.86383900  0.63486700  0.57454000  1
  C  C41  1  0.63622700  0.13370000  0.57424000  1
  C  C42  1  0.34908900  0.87977800  0.43148900  1
  C  C43  1  0.36361900  0.86526300  0.57503800  1
  C  C44  1  0.64849500  0.12123700  0.42965700  1
  C  C45  1  0.36895600  0.13952500  0.42994800  1
  C  C46  1  0.65019200  0.87931100  0.56801000  1
  C  C47  1  0.63556300  0.86475600  0.42433000  1
  C  C48  1  0.34830500  0.11752500  0.56936300  1
  C  C49  1  0.12196200  0.60690600  0.49917200  1
  C  C50  1  0.87739700  0.39281400  0.49794300  1
  C  C51  1  0.87840600  0.60770600  0.50273600  1
  C  C52  1  0.12105700  0.39162700  0.50435400  1
  C  C53  1  0.62133500  0.10738900  0.50175100  1
  C  C54  1  0.37780000  0.89214400  0.50300200  1
  C  C55  1  0.37964500  0.10851500  0.49926100  1
  C  C56  1  0.62148200  0.89165400  0.49666600  1
  C  C57  1  0.19467400  0.69056200  0.50247200  1
  C  C58  1  0.80461600  0.30934600  0.50059400  1
  C  C59  1  0.80580800  0.69133000  0.49810200  1
  C  C60  1  0.19350700  0.30778500  0.50309000  1
  C  C61  1  0.69347700  0.19158400  0.49897200  1
  C  C62  1  0.30523000  0.80851800  0.49992500  1
  C  C63  1  0.30607900  0.19141700  0.50538500  1
  C  C64  1  0.69429600  0.80830600  0.49937100  1
  C  C65  1  0.23353300  0.73216100  0.50204200  1
  C  C66  1  0.76548600  0.26786300  0.50027000  1
  C  C67  1  0.76664200  0.73259900  0.49787300  1
  C  C68  1  0.23297100  0.26663100  0.50431300  1
  C  C69  1  0.73247800  0.23317300  0.49921400  1
  C  C70  1  0.26632700  0.76695100  0.50051800  1
  C  C71  1  0.26641600  0.23237300  0.50565600  1
  C  C72  1  0.73351900  0.76707300  0.49899900  1
  C  C73  1  0.01244800  0.54362100  0.83438200  1
  C  C74  1  0.01385200  0.45547900  0.16833000  1
  C  C75  1  0.98334300  0.45633700  0.83362300  1
  C  C76  1  0.98619300  0.54315200  0.16817100  1
  C  C77  1  0.48482300  0.04323700  0.83273500  1
  C  C78  1  0.48679500  0.95609600  0.16716800  1
  C  C79  1  0.51334400  0.95574700  0.83323700  1
  C  C80  1  0.51002500  0.04503500  0.16771600  1
  C  C81  1  0.01135500  0.54429300  0.74996100  1
  C  C82  1  0.01326000  0.45525500  0.25265200  1
  C  C83  1  0.98541300  0.45561300  0.74937700  1
  C  C84  1  0.98847400  0.54420100  0.25246800  1
  C  C85  1  0.48695100  0.04363500  0.74826600  1
  C  C86  1  0.48801400  0.95520000  0.25145000  1
  C  C87  1  0.51243600  0.95484300  0.74908800  1
  C  C88  1  0.50849900  0.04528200  0.25236200  1
  C  C89  1  0.14893000  0.58769000  0.64523900  1
  C  C90  1  0.88118100  0.38026300  0.34341200  1
  C  C91  1  0.84613600  0.41540200  0.64129800  1
  C  C92  1  0.12232100  0.61680800  0.34366200  1
  C  C93  1  0.84999900  0.58670200  0.35739600  1
  C  C94  1  0.11788000  0.38046000  0.65943500  1
  C  C95  1  0.15118900  0.41222500  0.35994200  1
  C  C96  1  0.87972100  0.61986600  0.65788200  1
  C  C97  1  0.62062400  0.11768700  0.65725900  1
  C  C98  1  0.34889600  0.91293300  0.35785900  1
  C  C99  1  0.37957400  0.88088300  0.65798200  1
  C  C100  1  0.64716200  0.08969800  0.35441500  1
  C  C101  1  0.39042100  0.12960600  0.34782800  1
  C  C102  1  0.65085800  0.91266100  0.64143200  1
  C  C103  1  0.61905000  0.88017400  0.34142200  1
  C  C104  1  0.34634800  0.08141600  0.63933900  1
  C  C105  1  0.02485500  0.59586900  0.71506800  1
  C  C106  1  0.02763600  0.40407600  0.28763100  1
  C  C107  1  0.97092500  0.40439500  0.71391800  1
  C  C108  1  0.97593200  0.59607300  0.28750600  1
  C  C109  1  0.47383900  0.09493800  0.71214000  1
  C  C110  1  0.47470800  0.90366500  0.28651300  1
  C  C111  1  0.52653300  0.90326500  0.71485600  1
  C  C112  1  0.51670900  0.09738300  0.28974300  1
  N  N1  1  0.99967300  0.49964200  0.70567200  1
  N  N2  1  0.00013400  0.49963800  0.29658900  1
  N  N3  1  0.50066800  0.99931800  0.70469600  1
  N  N4  1  0.49932900  0.99976200  0.29566400  1
  O  O1  1  0.05310300  0.44417900  0.57071300  1
  O  O2  1  0.94525800  0.55447400  0.43164700  1
  O  O3  1  0.94365200  0.55298300  0.57107800  1
  O  O4  1  0.05696500  0.44751200  0.43192400  1
  O  O5  1  0.94587300  0.44474500  0.43135800  1
  O  O6  1  0.05473700  0.55387300  0.57039000  1
  O  O7  1  0.05636300  0.55254400  0.43116600  1
  O  O8  1  0.94208000  0.44785700  0.57043900  1
  O  O9  1  0.55470400  0.94450600  0.56914800  1
  O  O10  1  0.44587900  0.05476700  0.43076300  1
  O  O11  1  0.44329100  0.05175400  0.56983500  1
  O  O12  1  0.55607700  0.94666500  0.42980500  1
  O  O13  1  0.44256300  0.94734300  0.43120700  1
  O  O14  1  0.55682200  0.05187500  0.56969200  1
  O  O15  1  0.55454200  0.05402900  0.43046300  1
  O  O16  1  0.44613000  0.94425300  0.57034600  1
  O  O17  1  0.14757700  0.53986700  0.64086800  1
  O  O18  1  0.87569700  0.42526800  0.31909300  1
  O  O19  1  0.84669500  0.46309100  0.63409000  1
  O  O20  1  0.12822100  0.57137400  0.32172400  1
  O  O21  1  0.85143500  0.53893900  0.36301000  1
  O  O22  1  0.12380500  0.42563000  0.68276900  1
  O  O23  1  0.15157400  0.45998800  0.36577700  1
  O  O24  1  0.87378400  0.57485200  0.68173700  1
  O  O25  1  0.62736600  0.07257700  0.68024100  1
  O  O26  1  0.34849300  0.96072900  0.36348800  1
  O  O27  1  0.37424600  0.92617200  0.68102500  1
  O  O28  1  0.64683100  0.04181200  0.35744900  1
  O  O29  1  0.38296500  0.08737700  0.31437800  1
  O  O30  1  0.64914500  0.96040100  0.63572200  1
  O  O31  1  0.62549000  0.92515300  0.31758200  1
  O  O32  1  0.34742600  0.03398000  0.62893000  1
  O  O33  1  0.99738200  0.61644200  0.66255700  1
  O  O34  1  0.00071800  0.38335100  0.34059700  1
  O  O35  1  0.99856700  0.38310000  0.66231700  1
  O  O36  1  0.00412100  0.61650200  0.33928000  1
  O  O37  1  0.50177500  0.11490900  0.65965000  1
  O  O38  1  0.50069100  0.88407700  0.34159400  1
  O  O39  1  0.49832200  0.88152000  0.66443200  1
  O  O40  1  0.53977300  0.13174400  0.25140500  1
