# generated using pymatgen
data_VH8(C2O)5
_symmetry_space_group_name_H-M   'P 1'
_cell_length_a   6.32603000
_cell_length_b   14.55175400
_cell_length_c   19.40233500
_cell_angle_alpha   109.03819100
_cell_angle_beta   90.80760000
_cell_angle_gamma   91.07047000
_symmetry_Int_Tables_number   1
_chemical_formula_structural   VH8(C2O)5
_chemical_formula_sum   'V4 H32 C40 O20'
_cell_volume   1687.70277592
_cell_formula_units_Z   4
loop_
 _symmetry_equiv_pos_site_id
 _symmetry_equiv_pos_as_xyz
  1  'x, y, z'
loop_
 _atom_site_type_symbol
 _atom_site_label
 _atom_site_symmetry_multiplicity
 _atom_site_fract_x
 _atom_site_fract_y
 _atom_site_fract_z
 _atom_site_occupancy
  V  V1  1  0.06713200  0.48548000  0.49881500  1
  V  V2  1  0.56812800  0.50869800  0.50209500  1
  V  V3  1  0.66919900  0.00873900  0.00430700  1
  V  V4  1  0.16813700  0.98512700  0.99912300  1
  H  H1  1  0.55239600  0.84928900  0.79496300  1
  H  H2  1  0.73964100  0.92196100  0.76512000  1
  H  H3  1  0.53113800  0.73743900  0.68615800  1
  H  H4  1  0.65935500  0.72577300  0.84204400  1
  H  H5  1  0.65708200  0.60996300  0.73164400  1
  H  H6  1  0.20576500  0.78452000  0.80578400  1
  H  H7  1  0.14707000  0.88417200  0.77415900  1
  H  H8  1  0.10737200  0.77703200  0.65676800  1
  H  H9  1  0.19051000  0.68232500  0.69128500  1
  H  H10  1  0.93684500  0.70257200  0.85273900  1
  H  H11  1  0.93784100  0.59376200  0.73949200  1
  H  H12  1  0.68596600  0.31950100  0.30055700  1
  H  H13  1  0.61826500  0.23945700  0.35180700  1
  H  H14  1  0.57995700  0.10814800  0.24925700  1
  H  H15  1  0.71563400  0.18218300  0.20350400  1
  H  H16  1  0.39978000  0.41493800  0.26514200  1
  H  H17  1  0.50313100  0.29656700  0.16314500  1
  H  H18  1  0.03455600  0.25461800  0.32599100  1
  H  H19  1  0.24325200  0.18415600  0.34817400  1
  H  H20  1  0.19003100  0.07939200  0.23274200  1
  H  H21  1  0.03898100  0.16653700  0.20531500  1
  H  H22  1  0.13252200  0.36506400  0.25751100  1
  H  H23  1  0.22250500  0.27214000  0.14342500  1
  H  H24  1  0.58888700  0.69074500  0.55995300  1
  H  H25  1  0.85172000  0.73385000  0.54253600  1
  H  H26  1  0.61669400  0.78834700  0.52156700  1
  H  H27  1  0.36112100  0.84342300  0.63206400  1
  H  H28  1  0.51465500  0.93191700  0.60574600  1
  H  H29  1  0.50196700  0.94108400  0.70085000  1
  H  H30  1  0.97292700  0.90658600  0.69644400  1
  H  H31  1  0.84533700  0.96169900  0.63719100  1
  H  H32  1  0.00550400  0.85794400  0.59875700  1
  C  C1  1  0.35250500  0.38282600  0.38643000  1
  C  C2  1  0.33180000  0.41992100  0.58671500  1
  C  C3  1  0.83155700  0.61637300  0.61370200  1
  C  C4  1  0.85717600  0.57249500  0.41377300  1
  C  C5  1  0.84905900  0.62620100  0.36339000  1
  C  C6  1  0.85359100  0.66804600  0.31897500  1
  C  C7  1  0.86656800  0.71504000  0.26573100  1
  C  C8  1  0.87909100  0.75512600  0.22035900  1
  C  C9  1  0.89046500  0.80394600  0.16821600  1
  C  C10  1  0.89225800  0.84888400  0.12579400  1
  C  C11  1  0.70529600  0.84818200  0.76745600  1
  C  C12  1  0.68888100  0.77403000  0.69191500  1
  C  C13  1  0.81791500  0.72238500  0.81780200  1
  C  C14  1  0.08985600  0.81174000  0.77408900  1
  C  C15  1  0.87668900  0.81945100  0.81080500  1
  C  C16  1  0.85440800  0.69591300  0.68478400  1
  C  C17  1  0.81396800  0.64775700  0.74239500  1
  C  C18  1  0.07427700  0.74037400  0.69714700  1
  C  C19  1  0.57235800  0.26268000  0.30474200  1
  C  C20  1  0.57524900  0.17637200  0.23556600  1
  C  C21  1  0.30265400  0.34764200  0.25616800  1
  C  C22  1  0.19300800  0.22388500  0.31094500  1
  C  C23  1  0.35202800  0.30401300  0.31541100  1
  C  C24  1  0.37572500  0.17664400  0.19227900  1
  C  C25  1  0.35273900  0.27502600  0.18300000  1
  C  C26  1  0.18651200  0.15563300  0.23291500  1
  C  C27  1  0.35639300  0.36617900  0.63696300  1
  C  C28  1  0.36422400  0.32446300  0.68162400  1
  C  C29  1  0.36485200  0.27768300  0.73546600  1
  C  C30  1  0.36361000  0.23794400  0.78140600  1
  C  C31  1  0.36553400  0.18969100  0.83433900  1
  C  C32  1  0.37583500  0.14549000  0.87735400  1
  C  C33  1  0.40534900  0.08737600  0.92429900  1
  C  C34  1  0.38063200  0.10046600  0.12000300  1
  C  C35  1  0.87917500  0.90802700  0.07933800  1
  C  C36  1  0.89767200  0.89424700  0.88337500  1
  C  C37  1  0.69792200  0.82667100  0.63521800  1
  C  C38  1  0.68813700  0.75415500  0.55945900  1
  C  C39  1  0.50623800  0.89000200  0.64424400  1
  C  C40  1  0.89372800  0.89161600  0.64286200  1
  O  O1  1  0.44231800  0.39885100  0.52717400  1
  O  O2  1  0.23686400  0.37458100  0.44131800  1
  O  O3  1  0.02574500  0.51924700  0.40938400  1
  O  O4  1  0.15827200  0.46751700  0.59121000  1
  O  O5  1  0.95427500  0.61144300  0.55859200  1
  O  O6  1  0.52308100  0.43881400  0.39753700  1
  O  O7  1  0.34551400  0.57105300  0.50971000  1
  O  O8  1  0.66088900  0.56326600  0.60514700  1
  O  O9  1  0.74914300  0.60346100  0.47505800  1
  O  O10  1  0.83835700  0.42266700  0.48859900  1
  O  O11  1  0.21317800  0.04224500  0.10512400  1
  O  O12  1  0.57993100  0.03991600  0.91675800  1
  O  O13  1  0.78304600  0.88765400  0.93728100  1
  O  O14  1  0.49881100  0.11486900  0.06783800  1
  O  O15  1  0.70922700  0.96145300  0.08757500  1
  O  O16  1  0.29443300  0.10170000  0.98335400  1
  O  O17  1  0.39059400  0.92202000  0.98666500  1
  O  O18  1  0.98669100  0.88369400  0.01765600  1
  O  O19  1  0.07464900  0.94338200  0.89590200  1
  O  O20  1  0.89827400  0.07192800  0.01926100  1
