# Generated by REPEAT Assigner based on pymatgen
data_DB0-m3_o8_o26_f0_pcu.sym.23_sqe
_audit_creation_date              2022-05-24
_audit_creation_method            REPEAT_Assigner
_cell_length_a                    15.919454
_cell_length_b                    17.099015
_cell_length_c                    17.480765
_cell_angle_alpha                 90.233947
_cell_angle_beta                  91.060500
_cell_angle_gamma                 89.119104
_cell_volume                      4756.974647
_symmetry_space_group_name_H-M    P1
_symmetry_Int_Tables_number       1
loop_
    _symmetry_equiv_pos_site_id
    _symmetry_equiv_pos_as_xyz
    1  x,y,z
loop_
    _atom_site_type_symbol
    _atom_site_label
    _atom_site_fract_x
    _atom_site_fract_y
    _atom_site_fract_z
    _atom_type_partial_charge
    O   O1   0.580504  0.386782  0.496070  -0.706001
    O   O2   0.419496  0.613218  0.503931  -0.706008
    O   O3   0.436127  0.380481  0.500622  -0.659831
    O   O4   0.563873  0.619519  0.499379  -0.659818
    C   C1   0.510713  0.347038  0.497905  0.806325
    C   C2   0.489287  0.652962  0.502095  0.806431
    O   O5   0.579971  0.502139  0.611532  -0.664446
    O   O6   0.420028  0.497861  0.388468  -0.664369
    O   O7   0.435597  0.495890  0.616215  -0.629023
    O   O8   0.564403  0.504110  0.383785  -0.629003
    C   C3   0.509908  0.498612  0.649682  0.671262
    C   C4   0.490092  0.501388  0.350319  0.670891
    Zn  Zn1  0.595184  0.504275  0.496742  1.083515
    Zn  Zn2  0.404816  0.495725  0.503258  1.083532
    C   C5   0.514627  0.497095  0.733519  -0.038808
    C   C6   0.485373  0.502905  0.266481  -0.038457
    C   C7   0.442155  0.491684  0.775373  -0.098364
    C   C8   0.557845  0.508316  0.224628  -0.098483
    C   C9   0.446179  0.489746  0.854191  -0.207001
    C   C10  0.553821  0.510254  0.145809  -0.207071
    C   C11  0.523041  0.493782  0.892397  0.265314
    C   C12  0.476959  0.506218  0.107603  0.265286
    C   C13  0.595362  0.497936  0.850299  -0.240655
    C   C14  0.404638  0.502064  0.149702  -0.240653
    C   C15  0.591388  0.499956  0.771482  -0.066518
    C   C16  0.408612  0.500044  0.228519  -0.066665
    C   C17  0.531531  0.490994  0.976489  -0.225468
    C   C18  0.468468  0.509006  0.023511  -0.225393
    H   H1   0.381339  0.488164  0.747204  0.107944
    H   H2   0.618661  0.511836  0.252797  0.108010
    H   H3   0.350859  0.496323  0.259721  0.095617
    H   H4   0.649141  0.503677  0.740279  0.095531
    H   H5   0.407472  0.526043  0.000492  0.132753
    H   H6   0.592528  0.473957  0.999508  0.132756
    H   H7   0.655918  0.500294  0.879143  0.127187
    H   H8   0.344082  0.499706  0.120857  0.127175
    H   H9   0.611753  0.516999  0.115696  0.129052
    H   H10  0.388247  0.483001  0.884304  0.129049
    C   C19  0.516169  0.261349  0.497535  -0.201050
    C   C20  0.483831  0.738651  0.502465  -0.201372
    C   C21  0.443965  0.217615  0.500352  -0.080092
    C   C22  0.556034  0.782384  0.499648  -0.079730
    C   C23  0.448600  0.137007  0.500620  -0.137339
    C   C24  0.551400  0.862993  0.499381  -0.137481
    C   C25  0.526250  0.099167  0.498044  0.450986
    C   C26  0.473750  0.900833  0.501956  0.451129
    C   C27  0.598094  0.142985  0.495100  -0.350880
    C   C28  0.401906  0.857015  0.504900  -0.351282
    C   C29  0.593381  0.223532  0.494868  0.056212
    C   C30  0.406619  0.776467  0.505132  0.056514
    N   N1   0.534373  0.016650  0.498423  -0.230856
    N   N2   0.465627  0.983350  0.501577  -0.230777
    H   H11  0.617206  0.754294  0.497453  0.124370
    H   H12  0.382794  0.245706  0.502548  0.124461
    H   H13  0.609864  0.894135  0.497056  0.061757
    H   H14  0.390136  0.105865  0.502945  0.061767
    H   H15  0.658749  0.113841  0.493084  0.134629
    H   H16  0.341251  0.886159  0.506916  0.134723
    H   H17  0.650864  0.256172  0.492693  0.089917
    H   H18  0.349135  0.743828  0.507307  0.089903
    N   N3   0.279714  0.489657  0.508198  -0.208492
    N   N4   0.720286  0.510343  0.491802  -0.208531
    C   C31  0.231533  0.536888  0.463593  -0.015235
    C   C32  0.768467  0.463112  0.536407  -0.015316
    C   C33  0.145035  0.534298  0.466331  -0.173061
    C   C34  0.854965  0.465702  0.533669  -0.173023
    C   C35  0.107680  0.482454  0.515599  0.252343
    C   C36  0.892320  0.517545  0.484401  0.252476
    C   C37  0.158306  0.434708  0.560522  0.091638
    C   C38  0.841694  0.565292  0.439479  0.091530
    C   C39  0.244429  0.438923  0.556289  0.343550
    C   C40  0.755571  0.561077  0.443711  0.343698
    N   N5   0.019472  0.476886  0.521482  -0.116880
    N   N6   0.980527  0.523114  0.478518  -0.116925
    H   H19  0.739242  0.422636  0.574680  0.186354
    H   H20  0.260758  0.577364  0.425320  0.186318
    H   H21  0.890758  0.426525  0.570603  0.104479
    H   H22  0.109242  0.573475  0.429397  0.104471
    F   F1   0.123320  0.383571  0.609145  -0.158209
    F   F2   0.876680  0.616429  0.390855  -0.158208
    F   F3   0.293522  0.391763  0.601010  -0.106997
    F   F4   0.706478  0.608237  0.398990  -0.107087
