# generated using pymatgen
data_ZnH4C14NO4
_symmetry_space_group_name_H-M   'P 1'
_cell_length_a   10.98494500
_cell_length_b   10.88718600
_cell_length_c   12.99367200
_cell_angle_alpha   90.00000000
_cell_angle_beta   90.00000000
_cell_angle_gamma   90.00000000
_symmetry_Int_Tables_number   1
_chemical_formula_structural   ZnH4C14NO4
_chemical_formula_sum   'Zn2 H8 C28 N2 O8'
_cell_volume   1553.98001435
_cell_formula_units_Z   2
loop_
 _symmetry_equiv_pos_site_id
 _symmetry_equiv_pos_as_xyz
  1  'x, y, z'
loop_
 _atom_site_type_symbol
 _atom_site_label
 _atom_site_symmetry_multiplicity
 _atom_site_fract_x
 _atom_site_fract_y
 _atom_site_fract_z
 _atom_site_occupancy
  Zn  Zn1  1  0.01477100  0.00000000  0.11588600  1
  Zn  Zn2  1  0.98522900  0.00000000  0.88411400  1
  H  H1  1  0.40623800  0.19188800  0.01525000  1
  H  H2  1  0.59376200  0.80811200  0.98475000  1
  H  H3  1  0.40623800  0.80811200  0.01525000  1
  H  H4  1  0.59376200  0.19188800  0.98475000  1
  H  H5  1  0.09078800  0.39335900  0.94566100  1
  H  H6  1  0.90921200  0.60664100  0.05433900  1
  H  H7  1  0.09078800  0.60664100  0.94566100  1
  H  H8  1  0.90921200  0.39335900  0.05433900  1
  C  C1  1  0.16781700  0.17315700  0.98757700  1
  C  C2  1  0.83218300  0.82684300  0.01242300  1
  C  C3  1  0.16781700  0.82684300  0.98757700  1
  C  C4  1  0.83218300  0.17315700  0.01242300  1
  C  C5  1  0.01508300  0.00000000  0.34368000  1
  C  C6  1  0.98491700  0.00000000  0.65632000  1
  C  C7  1  0.00477500  0.00000000  0.45337800  1
  C  C8  1  0.99522500  0.00000000  0.54662200  1
  C  C9  1  0.24392400  0.28292900  0.97967200  1
  C  C10  1  0.75607600  0.71707100  0.02032800  1
  C  C11  1  0.24392400  0.71707100  0.97967200  1
  C  C12  1  0.75607600  0.28292900  0.02032800  1
  C  C13  1  0.18777800  0.39209300  0.95910600  1
  C  C14  1  0.81222200  0.60790700  0.04089400  1
  C  C15  1  0.18777800  0.60790700  0.95910600  1
  C  C16  1  0.81222200  0.39209300  0.04089400  1
  C  C17  1  0.25152600  0.50000000  0.96613900  1
  C  C18  1  0.74847400  0.50000000  0.03386100  1
  C  C19  1  0.36775600  0.28016600  0.99710300  1
  C  C20  1  0.63224400  0.71983400  0.00289700  1
  C  C21  1  0.36775600  0.71983400  0.99710300  1
  C  C22  1  0.63224400  0.28016600  0.00289700  1
  C  C23  1  0.43664300  0.38845200  0.99410900  1
  C  C24  1  0.56335700  0.61154800  0.00589100  1
  C  C25  1  0.43664300  0.61154800  0.99410900  1
  C  C26  1  0.56335700  0.38845200  0.00589100  1
  C  C27  1  0.37567100  0.50000000  0.98452200  1
  C  C28  1  0.62432900  0.50000000  0.01547800  1
  N  N1  1  0.02148700  0.00000000  0.25422900  1
  N  N2  1  0.97851300  0.00000000  0.74577100  1
  O  O1  1  0.11200200  0.13240100  0.90482400  1
  O  O2  1  0.88799800  0.86759900  0.09517600  1
  O  O3  1  0.86170800  0.86970100  0.92109600  1
  O  O4  1  0.13829200  0.13029900  0.07890400  1
  O  O5  1  0.13829200  0.86970100  0.07890400  1
  O  O6  1  0.86170800  0.13029900  0.92109600  1
  O  O7  1  0.88799800  0.13240100  0.09517600  1
  O  O8  1  0.11200200  0.86759900  0.90482400  1
