# generated using pymatgen
data_CuH8C7NO4
_symmetry_space_group_name_H-M   'P 1'
_cell_length_a   7.51680700
_cell_length_b   8.76920900
_cell_length_c   11.03786600
_cell_angle_alpha   91.65103700
_cell_angle_beta   71.46008700
_cell_angle_gamma   103.93226300
_symmetry_Int_Tables_number   1
_chemical_formula_structural   CuH8C7NO4
_chemical_formula_sum   'Cu2 H16 C14 N2 O8'
_cell_volume   668.62191712
_cell_formula_units_Z   2
loop_
 _symmetry_equiv_pos_site_id
 _symmetry_equiv_pos_as_xyz
  1  'x, y, z'
loop_
 _atom_site_type_symbol
 _atom_site_label
 _atom_site_symmetry_multiplicity
 _atom_site_fract_x
 _atom_site_fract_y
 _atom_site_fract_z
 _atom_site_occupancy
  Cu  Cu1  1  0.68739200  0.51795300  0.48539900  1
  Cu  Cu2  1  0.31269100  0.48474400  0.51251000  1
  H  H1  1  0.33191800  0.48672700  0.13110300  1
  H  H2  1  0.66351800  0.51753900  0.86563300  1
  H  H3  1  0.76845400  0.51859700  0.05128600  1
  H  H4  1  0.22353100  0.47375200  0.94539700  1
  H  H5  1  0.28307400  0.95574900  0.51377000  1
  H  H6  1  0.71413100  0.05058900  0.48798200  1
  H  H7  1  0.98717700  0.15762200  0.56338500  1
  H  H8  1  0.07727500  0.23485100  0.69574700  1
  H  H9  1  0.83316400  0.12904100  0.72580000  1
  H  H10  1  0.89821000  0.43458200  0.72803100  1
  H  H11  1  0.75422100  0.32952000  0.63561300  1
  H  H12  1  0.04639200  0.58271700  0.22147400  1
  H  H13  1  0.92687800  0.74191100  0.28919100  1
  H  H14  1  0.18178600  0.78571600  0.20740900  1
  H  H15  1  0.09119700  0.78207800  0.44657700  1
  H  H16  1  0.24520700  0.66195000  0.36001000  1
  C  C1  1  0.44959100  0.20136100  0.50358100  1
  C  C2  1  0.55151800  0.80162600  0.49471400  1
  C  C3  1  0.41492200  0.49417800  0.74336800  1
  C  C4  1  0.58249300  0.50545400  0.25441600  1
  C  C5  1  0.37066900  0.48854000  0.88200200  1
  C  C6  1  0.62278700  0.50792000  0.11550900  1
  C  C7  1  0.51591600  0.50210300  0.92918100  1
  C  C8  1  0.47855600  0.49753500  0.06764300  1
  C  C9  1  0.42401200  0.03172700  0.50476100  1
  C  C10  1  0.57512600  0.97203900  0.49488400  1
  C  C11  1  0.89903500  0.36607900  0.64192500  1
  C  C12  1  0.95515000  0.21324500  0.65663600  1
  C  C13  1  0.09945500  0.67560300  0.39208000  1
  C  C14  1  0.05781900  0.69619300  0.26957000  1
  N  N1  1  0.03342300  0.45980400  0.52916900  1
  N  N2  1  0.96553400  0.54106600  0.47083400  1
  O  O1  1  0.62278300  0.28819200  0.48934200  1
  O  O2  1  0.38023200  0.71428300  0.50342500  1
  O  O3  1  0.30249300  0.26047800  0.50945700  1
  O  O4  1  0.70091600  0.74216600  0.48073000  1
  O  O5  1  0.59457000  0.50682400  0.67401300  1
  O  O6  1  0.40211600  0.48625600  0.32506000  1
  O  O7  1  0.27409700  0.47704500  0.69509700  1
  O  O8  1  0.72249300  0.51329700  0.30384500  1
