# generated using pymatgen
data_CuH14C23NO7
_symmetry_space_group_name_H-M   'P 1'
_cell_length_a   15.01241700
_cell_length_b   13.53434000
_cell_length_c   14.43950400
_cell_angle_alpha   90.00000000
_cell_angle_beta   89.99009000
_cell_angle_gamma   90.00000000
_symmetry_Int_Tables_number   1
_chemical_formula_structural   CuH14C23NO7
_chemical_formula_sum   'Cu2 H28 C46 N2 O14'
_cell_volume   2933.86394846
_cell_formula_units_Z   2
loop_
 _symmetry_equiv_pos_site_id
 _symmetry_equiv_pos_as_xyz
  1  'x, y, z'
loop_
 _atom_site_type_symbol
 _atom_site_label
 _atom_site_symmetry_multiplicity
 _atom_site_fract_x
 _atom_site_fract_y
 _atom_site_fract_z
 _atom_site_occupancy
  Cu  Cu1  1  0.49416300  0.59806300  0.49222600  1
  Cu  Cu2  1  0.49727300  0.40047600  0.49249500  1
  H  H1  1  0.77301700  0.37135000  0.41647500  1
  H  H2  1  0.21798500  0.63241200  0.56059100  1
  H  H3  1  0.92194100  0.71508500  0.60957000  1
  H  H4  1  0.06855200  0.29272200  0.36181600  1
  H  H5  1  0.08326000  0.71066800  0.60494300  1
  H  H6  1  0.90785100  0.29674200  0.36673700  1
  H  H7  1  0.39242300  0.75427400  0.59280200  1
  H  H8  1  0.60007100  0.24407700  0.39325100  1
  H  H9  1  0.59327100  0.75167400  0.39276200  1
  H  H10  1  0.40273500  0.24670300  0.59713000  1
  H  H11  1  0.78941200  0.67136000  0.72438100  1
  H  H12  1  0.78924400  0.54521600  0.68390800  1
  H  H13  1  0.68580000  0.61287400  0.69105100  1
  H  H14  1  0.16359400  0.21613100  0.46859700  1
  H  H15  1  0.22636300  0.29539500  0.54556100  1
  H  H16  1  0.28293700  0.21751800  0.46274000  1
  H  H17  1  0.74358900  0.90078600  0.44641500  1
  H  H18  1  0.80691000  0.90141500  0.33984200  1
  H  H19  1  0.75387100  0.78914500  0.37880500  1
  H  H20  1  0.44293700  0.09175300  0.75245300  1
  H  H21  1  0.33723300  0.09223800  0.81254000  1
  H  H22  1  0.37986100  0.20489100  0.76241100  1
  H  H23  1  0.43814400  0.90405600  0.75031200  1
  H  H24  1  0.36950100  0.79492300  0.75922900  1
  H  H25  1  0.33233500  0.90963600  0.81009300  1
  H  H26  1  0.74712200  0.08724600  0.44554700  1
  H  H27  1  0.76136500  0.19841800  0.37831500  1
  H  H28  1  0.80927500  0.08395100  0.33817500  1
  C  C1  1  0.32432600  0.49561100  0.48936600  1
  C  C2  1  0.66699400  0.50289900  0.49531300  1
  C  C3  1  0.49802200  0.49854200  0.31460300  1
  C  C4  1  0.49333500  0.49997400  0.67004900  1
  C  C5  1  0.49811700  0.49849600  0.21522800  1
  C  C6  1  0.49361800  0.49999600  0.76939200  1
  C  C7  1  0.49761000  0.49869100  0.13178200  1
  C  C8  1  0.49435100  0.49980200  0.85282200  1
  C  C9  1  0.49658400  0.49902900  0.03400900  1
  C  C10  1  0.49554100  0.49942500  0.95057600  1
  C  C11  1  0.80975700  0.42897600  0.45125100  1
  C  C12  1  0.18134400  0.57281500  0.52852100  1
  C  C13  1  0.76480400  0.50421800  0.49544900  1
  C  C14  1  0.22630500  0.49435200  0.48910800  1
  C  C15  1  0.81276700  0.57901700  0.53858200  1
  C  C16  1  0.17801600  0.41719000  0.44973700  1
  C  C17  1  0.90530000  0.57849200  0.53503100  1
  C  C18  1  0.08560300  0.42240800  0.44660500  1
  C  C19  1  0.94943600  0.50216800  0.49098700  1
  C  C20  1  0.04156300  0.49959300  0.48938500  1
  C  C21  1  0.90143800  0.42811100  0.44869800  1
  C  C22  1  0.08959200  0.57438200  0.53041000  1
  C  C23  1  0.95419700  0.65369800  0.57550400  1
  C  C24  1  0.03661100  0.35125600  0.40022400  1
  C  C25  1  0.04587300  0.65158600  0.57289200  1
  C  C26  1  0.94508100  0.35373200  0.40209000  1
  C  C27  1  0.43817200  0.79552700  0.55007000  1
  C  C28  1  0.55735900  0.20293100  0.43938800  1
  C  C29  1  0.55067400  0.79407700  0.43793500  1
  C  C30  1  0.44702600  0.20435800  0.55371200  1
  C  C31  1  0.55643800  0.89605500  0.44055300  1
  C  C32  1  0.44702700  0.10216100  0.55741200  1
  C  C33  1  0.44206900  0.89768400  0.55509000  1
  C  C34  1  0.56026400  0.10058200  0.44172600  1
  C  C35  1  0.50114500  0.94811600  0.49912200  1
  C  C36  1  0.50340400  0.05005600  0.50005000  1
  C  C37  1  0.61701400  0.94613400  0.38519400  1
  C  C38  1  0.38992800  0.05189500  0.61662800  1
  C  C39  1  0.38728700  0.94962200  0.61524800  1
  C  C40  1  0.61861600  0.04843300  0.38546300  1
  C  C41  1  0.75789300  0.61884000  0.67539200  1
  C  C42  1  0.22326200  0.26380300  0.47478500  1
  C  C43  1  0.74746000  0.87068200  0.37509600  1
  C  C44  1  0.37493900  0.12370300  0.75348900  1
  C  C45  1  0.36863500  0.87638400  0.75093000  1
  C  C46  1  0.75159200  0.11747200  0.37433300  1
  N  N1  1  0.49193800  0.74586200  0.49177800  1
  N  N2  1  0.49944000  0.25264000  0.49310100  1
  O  O1  1  0.36496600  0.58130900  0.49350500  1
  O  O2  1  0.62648000  0.41716200  0.49104200  1
  O  O3  1  0.62380300  0.58694500  0.49740200  1
  O  O4  1  0.36768500  0.41172900  0.48726900  1
  O  O5  1  0.49936000  0.58364600  0.35765700  1
  O  O6  1  0.49210600  0.41494400  0.62700000  1
  O  O7  1  0.49564900  0.58489100  0.62680500  1
  O  O8  1  0.49564300  0.41356300  0.35785200  1
  O  O9  1  0.76920600  0.65310600  0.58473500  1
  O  O10  1  0.22105000  0.33938000  0.40850800  1
  O  O11  1  0.67089900  0.89549800  0.32494400  1
  O  O12  1  0.33037400  0.10257900  0.67074100  1
  O  O13  1  0.32546000  0.90098500  0.66823000  1
  O  O14  1  0.67356600  0.09718000  0.32500100  1
