# Generated by REPEAT Assigner based on pymatgen
data_DB0-m3_o147_o22_f0_fsc.sym.6
_audit_creation_date              2022-05-24
_audit_creation_method            REPEAT_Assigner
_cell_length_a                    8.616194
_cell_length_b                    9.083939
_cell_length_c                    10.831538
_cell_angle_alpha                 90.000000
_cell_angle_beta                  90.000000
_cell_angle_gamma                 90.000000
_cell_volume                      847.773434
_symmetry_space_group_name_H-M    P1
_symmetry_Int_Tables_number       1
loop_
    _symmetry_equiv_pos_site_id
    _symmetry_equiv_pos_as_xyz
    1  x,y,z
loop_
    _atom_site_type_symbol
    _atom_site_label
    _atom_site_fract_x
    _atom_site_fract_y
    _atom_site_fract_z
    _atom_type_partial_charge
    C   C1   0.001761  0.026126  0.317921  -0.101496
    C   C2   0.001761  0.973874  0.682079  -0.101545
    C   C3   0.140019  0.006697  0.257208  -0.164386
    C   C4   0.140019  0.993303  0.742792  -0.164380
    C   C5   0.137375  0.988881  0.130086  0.079047
    C   C6   0.137375  0.011119  0.869914  0.079080
    C   C7   0.280721  0.956372  0.059294  -0.093609
    C   C8   0.280721  0.043628  0.940706  -0.093652
    C   C9   0.862416  0.008432  0.258355  -0.053838
    C   C10  0.862416  0.991568  0.741645  -0.053796
    C   C11  0.859700  0.001561  0.131318  -0.119620
    C   C12  0.859700  0.998439  0.868682  -0.119620
    C   C13  0.997835  0.999134  0.067068  0.004171
    C   C14  0.997835  0.000866  0.932932  0.004138
    C   C15  0.705848  0.998186  0.070234  0.440291
    C   C16  0.705848  0.001814  0.929767  0.440304
    H   H1   0.383158  0.986352  0.114169  0.095700
    H   H2   0.284237  0.162707  0.963106  0.053899
    H   H3   0.383158  0.013648  0.885831  0.095707
    H   H4   0.284237  0.837293  0.036894  0.053898
    H   H5   0.002599  0.049771  0.414441  0.083023
    H   H6   0.002599  0.950229  0.585559  0.083061
    O   O1   0.336289  0.125799  0.631605  -0.681855
    O   O2   0.333587  0.127298  0.377916  -0.618465
    O   O3   0.336289  0.874201  0.368395  -0.681872
    O   O4   0.333587  0.872702  0.622084  -0.618473
    C   C17  0.281956  0.997406  0.667131  0.812707
    C   C18  0.281956  0.002594  0.332869  0.812713
    O   O5   0.666475  0.873893  0.368465  -0.616524
    O   O6   0.667126  0.872072  0.623514  -0.649053
    O   O7   0.666475  0.126107  0.631536  -0.616465
    O   O8   0.667126  0.127928  0.376486  -0.649058
    C   C19  0.720200  0.003102  0.333006  0.757323
    C   C20  0.720200  0.996898  0.666994  0.757228
    Zn  Zn1  0.501013  0.835856  0.496279  0.938845
    Zn  Zn2  0.501013  0.164144  0.503721  0.938803
    C   C21  0.431551  0.578712  0.386191  0.337343
    C   C22  0.416423  0.586842  0.602422  0.112130
    C   C23  0.431551  0.421288  0.613809  0.337278
    C   C24  0.416423  0.413158  0.397578  0.112046
    H   H7   0.311921  0.620288  0.374208  0.027740
    H   H8   0.291334  0.612087  0.591216  0.035374
    H   H9   0.311921  0.379712  0.625792  0.027744
    H   H10  0.291334  0.387913  0.408784  0.035388
    H   H11  0.737138  0.629977  0.435891  0.043984
    H   H12  0.709018  0.608484  0.599106  0.058297
    H   H13  0.737138  0.370023  0.564109  0.044027
    H   H14  0.709018  0.391516  0.400894  0.058316
    C   C25  0.659861  0.582870  0.507201  0.010822
    C   C26  0.659861  0.417130  0.492800  0.010616
    N   N1   0.502783  0.641650  0.496182  0.022538
    N   N2   0.502783  0.358350  0.503818  0.022644
    F   F1   0.623023  0.118934  0.111259  -0.207610
    F   F2   0.631586  0.129051  0.892373  -0.222539
    F   F3   0.623023  0.881066  0.888742  -0.207612
    F   F4   0.631586  0.870949  0.107627  -0.222515
    F   F5   0.518976  0.613338  0.283210  -0.214994
    F   F6   0.471247  0.650292  0.710064  -0.169157
    F   F7   0.518976  0.386662  0.716790  -0.214964
    F   F8   0.471247  0.349708  0.289936  -0.169128
