# generated using pymatgen
data_Fe2H23C50NO17
_symmetry_space_group_name_H-M   'P 1'
_cell_length_a   13.33970400
_cell_length_b   17.51048600
_cell_length_c   13.22293600
_cell_angle_alpha   100.13000800
_cell_angle_beta   100.63919200
_cell_angle_gamma   80.09723100
_symmetry_Int_Tables_number   1
_chemical_formula_structural   Fe2H23C50NO17
_chemical_formula_sum   'Fe2 H23 C50 N1 O17'
_cell_volume   2957.02961849
_cell_formula_units_Z   1
loop_
 _symmetry_equiv_pos_site_id
 _symmetry_equiv_pos_as_xyz
  1  'x, y, z'
loop_
 _atom_site_type_symbol
 _atom_site_label
 _atom_site_symmetry_multiplicity
 _atom_site_fract_x
 _atom_site_fract_y
 _atom_site_fract_z
 _atom_site_occupancy
  Fe  Fe1  1  0.50564400  0.00738500  0.21159600  1
  Fe  Fe2  1  0.50803000  0.00703300  0.79794500  1
  H  H1  1  0.11553900  0.00135300  0.74813900  1
  H  H2  1  0.93760100  0.00220500  0.73299800  1
  H  H3  1  0.78835800  0.00164300  0.80752400  1
  H  H4  1  0.22908900  0.99196800  0.19852400  1
  H  H5  1  0.07997100  0.98928800  0.27275800  1
  H  H6  1  0.90122900  0.99021100  0.25758200  1
  H  H7  1  0.48103900  0.09477400  0.51828400  1
  H  H8  1  0.29521900  0.26379000  0.35013400  1
  H  H9  1  0.28084200  0.27416500  0.67435600  1
  H  H10  1  0.03866000  0.62251500  0.57269800  1
  H  H11  1  0.89570800  0.72950700  0.57069900  1
  H  H12  1  0.69110500  0.57277600  0.40169200  1
  H  H13  1  0.83145300  0.46354800  0.41118500  1
  H  H14  1  0.68618300  0.72231600  0.31870100  1
  H  H15  1  0.51142400  0.91441700  0.48676300  1
  H  H16  1  0.71330900  0.74727300  0.64869800  1
  H  H17  1  0.13048700  0.30637000  0.34896000  1
  H  H18  1  0.23832900  0.40456900  0.66235400  1
  H  H19  1  0.09383900  0.50820300  0.65311800  1
  H  H20  1  0.96593400  0.36644000  0.26712500  1
  H  H21  1  0.92070800  0.41645800  0.11383000  1
  H  H22  1  0.03839500  0.44793800  0.09788500  1
  H  H23  1  0.92745000  0.51956400  0.12280300  1
  C  C1  1  0.22293700  0.00299900  0.89026500  1
  C  C2  1  0.12640300  0.00066900  0.83096600  1
  C  C3  1  0.04175000  0.99934800  0.87616100  1
  C  C4  1  0.94628300  0.00029700  0.81546100  1
  C  C5  1  0.86063200  0.99957400  0.85897900  1
  C  C6  1  0.23365300  0.00259400  0.99747200  1
  C  C7  1  0.14805200  0.99736200  0.04183100  1
  C  C8  1  0.05180600  0.99730800  0.98105700  1
  C  C9  1  0.96532100  0.99615100  0.02517900  1
  C  C10  1  0.86885700  0.99734700  0.96458900  1
  C  C11  1  0.78269800  0.99436000  0.00937800  1
  C  C12  1  0.15656000  0.99426700  0.14727300  1
  C  C13  1  0.07113100  0.99203100  0.19050100  1
  C  C14  1  0.97550300  0.99327500  0.12991100  1
  C  C15  1  0.89074800  0.99153800  0.17490400  1
  C  C16  1  0.79371300  0.99219100  0.11595300  1
  C  C17  1  0.70550400  0.99182400  0.16939700  1
  C  C18  1  0.56570000  0.86414000  0.30119000  1
  C  C19  1  0.33037400  0.01752100  0.06575200  1
  C  C20  1  0.40706200  0.12173100  0.33437300  1
  C  C21  1  0.59544600  0.88842200  0.66958000  1
  C  C22  1  0.68350900  0.98536800  0.94244200  1
  C  C23  1  0.41841900  0.14273300  0.70063200  1
  C  C24  1  0.31038200  0.00466600  0.83609300  1
  C  C25  1  0.39445400  0.17778900  0.42810800  1
  C  C26  1  0.32234000  0.24402900  0.42453600  1
  C  C27  1  0.28161500  0.28069800  0.51331300  1
  C  C28  1  0.31587000  0.24999000  0.60610300  1
  C  C29  1  0.38991400  0.18415700  0.60959800  1
  C  C30  1  0.42937200  0.14954700  0.52045200  1
  C  C31  1  0.96247100  0.61023300  0.53646800  1
  C  C32  1  0.88176800  0.67105400  0.53492400  1
  C  C33  1  0.78449200  0.65812000  0.48521500  1
  C  C34  1  0.76759800  0.58355600  0.43913200  1
  C  C35  1  0.84757100  0.52205100  0.44363600  1
  C  C36  1  0.94635400  0.53514900  0.49032700  1
  C  C37  1  0.65859400  0.75127600  0.38963000  1
  C  C38  1  0.59159900  0.82098300  0.39044500  1
  C  C39  1  0.56092200  0.85860100  0.48304500  1
  C  C40  1  0.60223600  0.83165700  0.57539200  1
  C  C41  1  0.67404200  0.76500000  0.57556300  1
  C  C42  1  0.70029800  0.72361400  0.48269600  1
  C  C43  1  0.04751400  0.41382200  0.40746900  1
  C  C44  1  0.12583500  0.35142700  0.41570000  1
  C  C45  1  0.19620100  0.34680400  0.50653800  1
  C  C46  1  0.18423300  0.40498300  0.59072000  1
  C  C47  1  0.10288500  0.46532800  0.58467500  1
  C  C48  1  0.03328100  0.47036400  0.49361800  1
  C  C49  1  0.00923700  0.46801100  0.25441200  1
  C  C50  1  0.97152400  0.46238300  0.14021100  1
  N  N1  1  0.98364300  0.41868500  0.31021800  1
  O  O1  1  0.61022500  0.01273600  0.12559000  1
  O  O2  1  0.58681900  0.83200600  0.20871100  1
  O  O3  1  0.72269700  0.97465800  0.26431300  1
  O  O4  1  0.53257800  0.93940400  0.32131000  1
  O  O5  1  0.38810400  0.96263200  0.11537800  1
  O  O6  1  0.35742500  0.08773100  0.08034100  1
  O  O7  1  0.48442800  0.11827000  0.28420400  1
  O  O8  1  0.36159800  0.05940000  0.32183600  1
  O  O9  1  0.51650400  0.89762300  0.71935000  1
  O  O10  1  0.64911800  0.94634600  0.68291300  1
  O  O11  1  0.63278300  0.04239100  0.89247300  1
  O  O12  1  0.64645200  0.91902300  0.93041700  1
  O  O13  1  0.29439100  0.00308700  0.73484900  1
  O  O14  1  0.48565400  0.07854500  0.69283900  1
  O  O15  1  0.40450400  0.00569300  0.88710300  1
  O  O16  1  0.37037900  0.16352300  0.78146500  1
  O  O17  1  0.06407600  0.51719100  0.29683100  1
