# Generated by REPEAT Assigner based on pymatgen
data_DB0-m2_o12_o13_f0_pcu.sym.45
_audit_creation_date              2022-05-24
_audit_creation_method            REPEAT_Assigner
_cell_length_a                    9.648119
_cell_length_b                    11.103283
_cell_length_c                    12.965827
_cell_angle_alpha                 90.880891
_cell_angle_beta                  75.449027
_cell_angle_gamma                 110.973110
_cell_volume                      1251.074206
_symmetry_space_group_name_H-M    P1
_symmetry_Int_Tables_number       1
loop_
    _symmetry_equiv_pos_site_id
    _symmetry_equiv_pos_as_xyz
    1  x,y,z
loop_
    _atom_site_type_symbol
    _atom_site_label
    _atom_site_fract_x
    _atom_site_fract_y
    _atom_site_fract_z
    _atom_type_partial_charge
    O   O1   0.587591  0.333895  0.498587  -0.575887
    O   O2   0.425332  0.668411  0.501026  -0.529653
    O   O3   0.330451  0.297784  0.532654  -0.501035
    O   O4   0.682727  0.704539  0.467874  -0.594829
    C   C1   0.443158  0.255505  0.523520  0.637560
    C   C2   0.569632  0.746670  0.479142  0.744541
    O   O5   0.619132  0.523226  0.639068  -0.585320
    O   O6   0.392701  0.478882  0.367907  -0.576211
    O   O7   0.364457  0.496883  0.671672  -0.581198
    O   O8   0.648440  0.506382  0.335105  -0.588462
    C   C3   0.486547  0.511907  0.704591  0.611107
    C   C4   0.525780  0.490748  0.302381  0.659685
    Cu  Cu1  0.656088  0.522411  0.483893  0.935719
    Cu  Cu2  0.356282  0.480287  0.523019  0.824720
    C   C5   0.540734  0.491920  0.187039  -0.010069
    C   C6   0.471380  0.510398  0.819960  0.013532
    C   C7   0.316084  0.494027  0.998912  -0.287973
    C   C8   0.695843  0.507893  0.008100  -0.272899
    C   C9   0.332997  0.500883  0.890219  -0.087505
    C   C10  0.679019  0.501230  0.116782  -0.087596
    C   C11  0.592667  0.513383  0.859692  -0.239796
    C   C12  0.419352  0.488734  0.147317  -0.245882
    C   C13  0.575094  0.505906  0.968676  0.204471
    C   C14  0.436857  0.496056  0.038333  0.232982
    H   H1   0.310733  0.482230  0.200881  0.130231
    H   H2   0.701324  0.520039  0.806111  0.132827
    H   H3   0.775902  0.504052  0.145530  0.109649
    H   H4   0.236099  0.498037  0.861473  0.115683
    H   H5   0.207240  0.486367  0.052911  0.155819
    H   H6   0.804619  0.515389  0.954110  0.152793
    H   H7   0.424078  0.874001  0.592187  0.104296
    H   H8   0.642373  0.143670  0.487935  0.126562
    C   C15  0.407841  0.114348  0.534904  -0.259288
    C   C16  0.603881  0.886133  0.459211  -0.389551
    C   C17  0.526796  0.073021  0.513778  -0.122082
    C   C18  0.510522  0.936064  0.524896  -0.074455
    H   H9   0.838804  0.411793  0.569509  0.109317
    H   H10  0.173456  0.595066  0.441135  0.106317
    N   N1   0.131876  0.448895  0.552717  -0.328912
    N   N2   0.880466  0.553805  0.454279  -0.349405
    C   C19  0.088567  0.516633  0.497633  0.096367
    C   C20  0.923862  0.488581  0.511558  0.101088
    H   H11  0.966357  0.631387  0.406665  0.252874
    H   H12  0.046003  0.368470  0.596744  0.245204
    C   C21  0.719956  0.964199  0.358647  0.709492
    C   C22  0.834568  0.903003  0.304292  -0.523439
    C   C23  0.635917  0.980381  0.278061  -0.433471
    H   H13  0.789897  0.060546  0.378100  -0.081583
    H   H14  0.775368  0.808976  0.275024  0.129250
    H   H15  0.900479  0.891578  0.359700  0.135674
    H   H16  0.918227  0.968279  0.234504  0.082087
    H   H17  0.560068  0.883856  0.262589  0.090943
    H   H18  0.720533  0.029418  0.201988  0.079861
    H   H19  0.565398  0.039644  0.307535  0.094175
    C   C24  0.242111  0.020963  0.566804  0.678778
    C   C25  0.162860  0.036912  0.680404  -0.392865
    C   C26  0.153478  0.036966  0.489620  -0.464090
    H   H20  0.233753  0.919388  0.564457  -0.080571
    H   H21  0.153999  0.133562  0.687441  0.085213
    H   H22  0.229319  0.024372  0.735139  0.054669
    H   H23  0.045417  0.961817  0.704107  0.064009
    H   H24  0.105532  0.113543  0.511717  0.103395
    H   H25  0.056119  0.944548  0.492845  0.069922
    H   H26  0.229949  0.059881  0.407147  0.083215
