# Generated by REPEAT Assigner based on pymatgen
data_DB0-m2_o6_o25_f0_pcu.sym.107_sqe
_audit_creation_date              2022-05-24
_audit_creation_method            REPEAT_Assigner
_cell_length_a                    15.916936
_cell_length_b                    16.038349
_cell_length_c                    14.616758
_cell_angle_alpha                 90.009263
_cell_angle_beta                  90.022261
_cell_angle_gamma                 89.994300
_cell_volume                      3731.385793
_symmetry_space_group_name_H-M    P1
_symmetry_Int_Tables_number       1
loop_
    _symmetry_equiv_pos_site_id
    _symmetry_equiv_pos_as_xyz
    1  x,y,z
loop_
    _atom_site_type_symbol
    _atom_site_label
    _atom_site_fract_x
    _atom_site_fract_y
    _atom_site_fract_z
    _atom_type_partial_charge
    O   O1   0.496871  0.377808  0.580710  -0.632475
    O   O2   0.503155  0.620159  0.422620  -0.637232
    O   O3   0.502806  0.377828  0.423307  -0.616241
    O   O4   0.497221  0.620140  0.580024  -0.600358
    C   C1   0.499820  0.338981  0.502009  0.898751
    C   C2   0.500206  0.658987  0.501322  0.897109
    O   O5   0.377885  0.496245  0.580686  -0.629831
    O   O6   0.622141  0.501724  0.422645  -0.606228
    O   O7   0.377961  0.502101  0.423273  -0.586502
    O   O8   0.622067  0.495867  0.580057  -0.613126
    C   C3   0.338788  0.499273  0.501957  0.760003
    C   C4   0.661239  0.498697  0.501372  0.767934
    Cu  Cu1  0.500006  0.498995  0.593218  0.959119
    Cu  Cu2  0.500021  0.498972  0.410112  0.953920
    C   C5   0.972818  0.431362  0.544712  -0.254925
    C   C6   0.027233  0.566865  0.458267  -0.233298
    C   C7   0.027605  0.433284  0.460059  0.101516
    C   C8   0.972422  0.564949  0.542909  0.062493
    H   H1   0.949091  0.374362  0.578964  0.071859
    H   H2   0.051014  0.623825  0.423978  0.082104
    H   H3   0.948734  0.496971  0.344303  0.092085
    H   H4   0.051215  0.501304  0.658695  0.071950
    C   C9   0.248649  0.499561  0.501925  -0.125354
    C   C10  0.751378  0.498460  0.501384  -0.126748
    C   C11  0.027360  0.499398  0.587446  -0.247730
    C   C12  0.972644  0.498827  0.415533  -0.268693
    C   C13  0.081058  0.500150  0.502078  0.582524
    C   C14  0.918969  0.498065  0.500922  0.601607
    C   C15  0.172958  0.499835  0.501984  -0.316058
    C   C16  0.827069  0.498257  0.501231  -0.322315
    C   C17  0.499729  0.955165  0.582822  -0.154343
    C   C18  0.500225  0.042805  0.420516  -0.139325
    H   H5   0.499558  0.918724  0.644937  0.144879
    H   H6   0.500435  0.079246  0.358401  0.136041
    C   C19  0.500069  0.913111  0.500559  -0.025424
    C   C20  0.499880  0.084859  0.502779  -0.033094
    C   C21  0.500303  0.956485  0.418822  0.044456
    C   C22  0.499615  0.041485  0.584515  0.050173
    C   C23  0.500156  0.823571  0.500964  0.071690
    C   C24  0.499832  0.174398  0.502372  0.073191
    C   C25  0.499811  0.249531  0.502065  -0.365260
    C   C26  0.500200  0.748438  0.501267  -0.366015
    C   C27  0.552142  0.552029  0.953849  -0.164060
    C   C28  0.447929  0.445894  0.049481  -0.126122
    H   H7   0.592016  0.592667  0.914075  0.166275
    H   H8   0.408027  0.405283  0.089254  0.152596
    C   C29  0.499484  0.498453  0.907441  0.016391
    C   C30  0.500590  0.499468  0.095888  -0.018015
    C   C31  0.447025  0.445000  0.954761  0.015248
    C   C32  0.553073  0.552897  0.048569  0.054897
    C   C33  0.499863  0.498902  0.809198  0.145818
    C   C34  0.500183  0.499046  0.194132  0.167169
    N   N1   0.499920  0.498784  0.273285  -0.202436
    N   N2   0.500108  0.499182  0.730045  -0.189931
    C   C35  0.061501  0.356695  0.412049  0.243164
    O   O9   0.108088  0.380743  0.335742  -0.571452
    H   H9   0.008379  0.316792  0.389862  -0.042380
    H   H10  0.102076  0.320858  0.459575  0.015661
    H   H11  0.069696  0.371820  0.283350  0.364749
    C   C36  0.938529  0.641386  0.591208  0.275067
    O   O10  0.891823  0.689225  0.529919  -0.563550
    H   H12  0.991656  0.679018  0.617741  -0.049027
    H   H13  0.898048  0.622102  0.649193  0.007421
    H   H14  0.930139  0.734975  0.511902  0.358964
    C   C37  0.499248  0.088830  0.672842  0.323421
    O   O11  0.498754  0.034718  0.747459  -0.589154
    H   H15  0.442398  0.128737  0.676139  -0.029124
    H   H16  0.555929  0.128896  0.677033  0.026251
    H   H17  0.442955  0.043042  0.775933  0.356665
    C   C38  0.500658  0.909140  0.330495  0.330982
    O   O12  0.500606  0.963251  0.255875  -0.595751
    H   H18  0.443905  0.869145  0.326664  -0.031803
    H   H19  0.557438  0.869161  0.326836  0.029091
    H   H20  0.444932  0.955024  0.227036  0.359690
    C   C39  0.609595  0.610393  0.100842  0.316158
    O   O13  0.657753  0.659025  0.041739  -0.580294
    H   H21  0.652458  0.573256  0.144689  -0.017177
    H   H22  0.571405  0.652163  0.144774  0.033499
    H   H23  0.715979  0.638910  0.050724  0.362842
    C   C40  0.390517  0.387490  0.902486  0.335768
    O   O14  0.342754  0.338476  0.961588  -0.582986
    H   H24  0.428993  0.345910  0.858634  -0.030484
    H   H25  0.347472  0.424342  0.858561  0.040294
    H   H26  0.364337  0.281186  0.952435  0.362836
