# Generated by REPEAT Assigner based on pymatgen
data_DB0-m2_o2_o7_f0_nbo.sym.5_sqe
_audit_creation_date              2022-05-24
_audit_creation_method            REPEAT_Assigner
_cell_length_a                    30.097312
_cell_length_b                    30.097312
_cell_length_c                    35.194507
_cell_angle_alpha                 90.000000
_cell_angle_beta                  90.000000
_cell_angle_gamma                 90.000000
_cell_volume                      31880.880784
_symmetry_space_group_name_H-M    P1
_symmetry_Int_Tables_number       1
loop_
    _symmetry_equiv_pos_site_id
    _symmetry_equiv_pos_as_xyz
    1  x,y,z
loop_
    _atom_site_type_symbol
    _atom_site_label
    _atom_site_fract_x
    _atom_site_fract_y
    _atom_site_fract_z
    _atom_type_partial_charge
    O   O1    0.063326  0.463401  0.489631  -0.533562
    O   O2    0.463401  0.936674  0.489631  -0.533425
    O   O3    0.936674  0.536599  0.489631  -0.533444
    O   O4    0.536599  0.063326  0.489631  -0.533617
    O   O5    0.063326  0.536599  0.510369  -0.533445
    O   O6    0.463401  0.063326  0.510369  -0.533428
    O   O7    0.936674  0.463401  0.510369  -0.533485
    O   O8    0.536599  0.936674  0.510369  -0.533634
    O   O9    0.563326  0.963401  0.989631  -0.533492
    O   O10   0.963401  0.436674  0.989631  -0.533494
    O   O11   0.436674  0.036599  0.989631  -0.533629
    O   O12   0.036599  0.563326  0.989631  -0.533473
    O   O13   0.563326  0.036599  0.010369  -0.533612
    O   O14   0.963401  0.563326  0.010369  -0.533514
    O   O15   0.436674  0.963401  0.010369  -0.533466
    O   O16   0.036599  0.436674  0.010369  -0.533461
    C   C1    0.084287  0.500000  0.500000  0.565439
    C   C2    0.500000  0.915713  0.500000  0.565294
    C   C3    0.915713  0.500000  0.500000  0.565139
    C   C4    0.500000  0.084287  0.500000  0.565315
    C   C5    0.584287  0.000000  0.000000  0.565331
    C   C6    0.000000  0.415713  0.000000  0.565333
    C   C7    0.415713  0.000000  0.000000  0.565297
    C   C8    0.000000  0.584287  0.000000  0.565284
    O   O17   0.987719  0.463416  0.445896  -0.619888
    O   O18   0.463416  0.012281  0.445896  -0.619880
    O   O19   0.012281  0.536584  0.445896  -0.619884
    O   O20   0.536584  0.987719  0.445896  -0.619895
    O   O21   0.987719  0.536584  0.554104  -0.619847
    O   O22   0.463416  0.987719  0.554104  -0.619855
    O   O23   0.012281  0.463416  0.554104  -0.619870
    O   O24   0.536584  0.012281  0.554104  -0.619870
    O   O25   0.487719  0.963416  0.945896  -0.619890
    O   O26   0.963416  0.512281  0.945896  -0.619888
    O   O27   0.512281  0.036584  0.945896  -0.619875
    O   O28   0.036584  0.487719  0.945896  -0.619877
    O   O29   0.487719  0.036584  0.054104  -0.619876
    O   O30   0.963416  0.487719  0.054104  -0.619909
    O   O31   0.512281  0.963416  0.054104  -0.619881
    O   O32   0.036584  0.512281  0.054104  -0.619869
    C   C9    0.000000  0.500000  0.428034  0.721284
    C   C10   0.500000  0.000000  0.428034  0.721318
    C   C11   0.000000  0.500000  0.571966  0.721157
    C   C12   0.500000  0.000000  0.571966  0.721228
    C   C13   0.500000  0.000000  0.928034  0.721341
    C   C14   0.000000  0.500000  0.928034  0.721284
    C   C15   0.500000  0.000000  0.071966  0.721207
    C   C16   0.000000  0.500000  0.071966  0.721211
    Cu  Cu1   0.000000  0.456664  0.500000  0.948741
    Cu  Cu2   0.456664  0.000000  0.500000  0.948622
    Cu  Cu3   0.000000  0.543336  0.500000  0.948655
    Cu  Cu4   0.543336  0.000000  0.500000  0.948826
    Cu  Cu5   0.500000  0.956664  0.000000  0.948659
    Cu  Cu6   0.956664  0.500000  0.000000  0.948705
    Cu  Cu7   0.500000  0.043336  0.000000  0.948794
    Cu  Cu8   0.043336  0.500000  0.000000  0.948663
    C   C17   0.037368  0.513152  0.172578  -0.212125
    C   C18   0.513152  0.962632  0.172578  -0.212152
    C   C19   0.962632  0.486848  0.172578  -0.212164
    C   C20   0.486848  0.037368  0.172578  -0.212145
    C   C21   0.037368  0.486848  0.827422  -0.212133
    C   C22   0.513152  0.037368  0.827422  -0.212134
    C   C23   0.962632  0.513152  0.827422  -0.212138
    C   C24   0.486848  0.962632  0.827422  -0.212171
    C   C25   0.537368  0.013152  0.672578  -0.212184
    C   C26   0.013152  0.462632  0.672578  -0.212150
    C   C27   0.462632  0.986848  0.672579  -0.212140
    C   C28   0.986848  0.537368  0.672578  -0.212142
    C   C29   0.537368  0.986848  0.327422  -0.212147
    C   C30   0.013152  0.537368  0.327422  -0.212131
    C   C31   0.462632  0.013152  0.327422  -0.212155
    C   C32   0.986848  0.462632  0.327422  -0.212160
    H   H1    0.066683  0.523477  0.187964  0.137295
    H   H2    0.523477  0.933317  0.187964  0.137305
    H   H3    0.933317  0.476523  0.187964  0.137304
    H   H4    0.476523  0.066683  0.187964  0.137297
    H   H5    0.066683  0.476523  0.812036  0.137293
    H   H6    0.523477  0.066683  0.812036  0.137287
    H   H7    0.933317  0.523477  0.812036  0.137292
    H   H8    0.476523  0.933317  0.812036  0.137305
    H   H9    0.566683  0.023477  0.687964  0.137304
    H   H10   0.023477  0.433317  0.687964  0.137300
    H   H11   0.433317  0.976523  0.687964  0.137331
    H   H12   0.976523  0.566683  0.687964  0.137300
    H   H13   0.566683  0.976523  0.312036  0.137291
    H   H14   0.023477  0.566683  0.312036  0.137285
    H   H15   0.433317  0.023477  0.312036  0.137303
    H   H16   0.976523  0.433317  0.312036  0.137301
    C   C33   0.037454  0.513174  0.133414  -0.085086
    C   C34   0.513174  0.962546  0.133414  -0.085063
    C   C35   0.962546  0.486826  0.133414  -0.085051
    C   C36   0.486826  0.037454  0.133414  -0.085065
    C   C37   0.037454  0.486826  0.866586  -0.085053
    C   C38   0.513174  0.037454  0.866586  -0.085034
    C   C39   0.962546  0.513174  0.866586  -0.085059
    C   C40   0.486826  0.962546  0.866586  -0.085007
    C   C41   0.537454  0.013174  0.633414  -0.085032
    C   C42   0.013174  0.462546  0.633414  -0.085037
    C   C43   0.462546  0.986826  0.633414  -0.085127
    C   C44   0.986826  0.537454  0.633414  -0.085050
    C   C45   0.537454  0.986826  0.366586  -0.084992
    C   C46   0.013174  0.537454  0.366586  -0.085019
    C   C47   0.462545  0.013174  0.366586  -0.084955
    C   C48   0.986826  0.462546  0.366586  -0.085017
    H   H17   0.067147  0.523647  0.118674  0.116281
    H   H18   0.523646  0.932853  0.118674  0.116272
    H   H19   0.932853  0.476353  0.118674  0.116274
    H   H20   0.476353  0.067147  0.118674  0.116276
    H   H21   0.067147  0.476353  0.881326  0.116273
    H   H22   0.523647  0.067147  0.881326  0.116264
    H   H23   0.932853  0.523647  0.881326  0.116274
    H   H24   0.476353  0.932853  0.881326  0.116263
    H   H25   0.567147  0.023647  0.618674  0.116264
    H   H26   0.023647  0.432853  0.618674  0.116265
    H   H27   0.432853  0.976353  0.618674  0.116266
    H   H28   0.976353  0.567147  0.618674  0.116266
    H   H29   0.567147  0.976353  0.381326  0.116258
    H   H30   0.023646  0.567147  0.381326  0.116261
    H   H31   0.432853  0.023646  0.381326  0.116294
    H   H32   0.976353  0.432853  0.381326  0.116261
    C   C49   0.000000  0.500000  0.113602  0.014780
    C   C50   0.500000  0.000000  0.113602  0.014753
    C   C51   0.000000  0.500000  0.886398  0.014742
    C   C52   0.500000  0.000000  0.886398  0.014672
    C   C53   0.500000  0.000000  0.613602  0.014749
    C   C54   0.000000  0.500000  0.613602  0.014777
    C   C55   0.500000  0.000000  0.386398  0.014582
    C   C56   0.000000  0.500000  0.386398  0.014707
    C   C57   0.000000  0.500000  0.192148  0.289138
    C   C58   0.500000  0.000000  0.192148  0.289148
    C   C59   0.000000  0.500000  0.807852  0.289150
    C   C60   0.500000  0.000000  0.807852  0.289176
    C   C61   0.500000  0.000000  0.692148  0.289151
    C   C62   0.000000  0.500000  0.692148  0.289105
    C   C63   0.500000  0.000000  0.307852  0.289093
    C   C64   0.000000  0.500000  0.307852  0.289129
    C   C65   0.000000  0.500000  0.232891  -0.157264
    C   C66   0.500000  0.000000  0.232891  -0.157283
    C   C67   0.000000  0.500000  0.767109  -0.157294
    C   C68   0.500000  0.000000  0.767109  -0.157333
    C   C69   0.500000  0.000000  0.732891  -0.157175
    C   C70   0.000000  0.500000  0.732891  -0.157218
    C   C71   0.500000  0.000000  0.267109  -0.157220
    C   C72   0.000000  0.500000  0.267109  -0.157251
    C   C73   0.202272  0.519747  0.529291  -0.103291
    C   C74   0.519746  0.797727  0.529291  -0.103389
    C   C75   0.797727  0.480253  0.529291  -0.103265
    C   C76   0.480253  0.202272  0.529291  -0.103087
    C   C77   0.202272  0.480253  0.470709  -0.103210
    C   C78   0.519746  0.202272  0.470709  -0.103202
    C   C79   0.797727  0.519747  0.470709  -0.103357
    C   C80   0.480253  0.797728  0.470709  -0.103289
    C   C81   0.702272  0.019747  0.029291  -0.102975
    C   C82   0.019747  0.297728  0.029291  -0.103417
    C   C83   0.297728  0.980253  0.029291  -0.103108
    C   C84   0.980253  0.702272  0.029291  -0.103017
    C   C85   0.702272  0.980253  0.970709  -0.103079
    C   C86   0.019747  0.702272  0.970709  -0.103126
    C   C87   0.297728  0.019746  0.970709  -0.103359
    C   C88   0.980253  0.297728  0.970709  -0.103434
    H   H33   0.219297  0.536194  0.552339  0.103375
    H   H34   0.536194  0.780703  0.552339  0.103322
    H   H35   0.780703  0.463806  0.552339  0.103376
    H   H36   0.463806  0.219297  0.552339  0.103342
    H   H37   0.219297  0.463806  0.447661  0.103292
    H   H38   0.536194  0.219297  0.447661  0.103237
    H   H39   0.780703  0.536194  0.447661  0.103409
    H   H40   0.463806  0.780703  0.447661  0.103390
    H   H41   0.719297  0.036194  0.052339  0.103222
    H   H42   0.036194  0.280703  0.052339  0.103387
    H   H43   0.280703  0.963806  0.052339  0.103334
    H   H44   0.963806  0.719297  0.052339  0.103260
    H   H45   0.719297  0.963806  0.947661  0.103304
    H   H46   0.036194  0.719297  0.947661  0.103300
    H   H47   0.280703  0.036194  0.947661  0.103298
    H   H48   0.963806  0.280703  0.947661  0.103393
    C   C89   0.156487  0.519447  0.529603  -0.036926
    C   C90   0.519446  0.843513  0.529603  -0.036969
    C   C91   0.843513  0.480553  0.529603  -0.037216
    C   C92   0.480553  0.156487  0.529603  -0.037258
    C   C93   0.156487  0.480554  0.470397  -0.036948
    C   C94   0.519446  0.156487  0.470397  -0.037018
    C   C95   0.843513  0.519447  0.470397  -0.037056
    C   C96   0.480553  0.843513  0.470397  -0.037023
    C   C97   0.656487  0.019446  0.029603  -0.037254
    C   C98   0.019447  0.343513  0.029603  -0.036840
    C   C99   0.343513  0.980553  0.029603  -0.037296
    C   C100  0.980553  0.656487  0.029603  -0.037168
    C   C101  0.656487  0.980553  0.970397  -0.037047
    C   C102  0.019447  0.656487  0.970397  -0.036982
    C   C103  0.343513  0.019446  0.970397  -0.036978
    C   C104  0.980553  0.343513  0.970397  -0.036808
    C   C105  0.133099  0.500000  0.500000  0.119566
    C   C106  0.500000  0.866900  0.500000  0.119737
    C   C107  0.866900  0.500000  0.500000  0.119882
    C   C108  0.500000  0.133099  0.500000  0.119870
    C   C109  0.633100  0.000000  0.000000  0.119836
    C   C110  0.000000  0.366900  0.000000  0.119496
    C   C111  0.366900  0.000000  0.000000  0.119903
    C   C112  0.000000  0.633100  0.000000  0.119726
    C   C113  0.225668  0.500000  0.500000  0.031600
    C   C114  0.500000  0.774332  0.500000  0.031836
    C   C115  0.774332  0.500000  0.500000  0.031808
    C   C116  0.500000  0.225668  0.500000  0.031582
    C   C117  0.725668  0.000000  0.000000  0.031453
    C   C118  0.000000  0.274332  0.000000  0.031864
    C   C119  0.274332  0.000000  0.000000  0.031811
    C   C120  0.000000  0.725668  0.000000  0.031466
    C   C121  0.298085  0.502314  0.466181  -0.131896
    C   C122  0.502314  0.701915  0.466181  -0.131753
    C   C123  0.701915  0.497686  0.466181  -0.131897
    C   C124  0.497686  0.298085  0.466181  -0.131869
    C   C125  0.298085  0.497686  0.533819  -0.131900
    C   C126  0.502314  0.298085  0.533819  -0.131887
    C   C127  0.701915  0.502314  0.533819  -0.131892
    C   C128  0.497686  0.701915  0.533819  -0.131574
    C   C129  0.798085  0.002314  0.966181  -0.131874
    C   C130  0.002314  0.201915  0.966181  -0.131619
    C   C131  0.201915  0.997686  0.966181  -0.131555
    C   C132  0.997686  0.798085  0.966181  -0.131860
    C   C133  0.798085  0.997686  0.033819  -0.131843
    C   C134  0.002314  0.798085  0.033819  -0.131862
    C   C135  0.201915  0.002314  0.033819  -0.131658
    C   C136  0.997686  0.201915  0.033819  -0.131651
    H   H49   0.281111  0.505548  0.439296  0.111587
    H   H50   0.505548  0.718889  0.439296  0.111511
    H   H51   0.718889  0.494452  0.439296  0.111555
    H   H52   0.494452  0.281111  0.439296  0.111639
    H   H53   0.281111  0.494452  0.560704  0.111556
    H   H54   0.505548  0.281111  0.560704  0.111533
    H   H55   0.718889  0.505548  0.560704  0.111550
    H   H56   0.494452  0.718889  0.560704  0.111578
    H   H57   0.781111  0.005548  0.939296  0.111557
    H   H58   0.005548  0.218889  0.939296  0.111516
    H   H59   0.218889  0.994452  0.939296  0.111589
    H   H60   0.994452  0.781111  0.939296  0.111564
    H   H61   0.781111  0.994452  0.060704  0.111587
    H   H62   0.005548  0.781111  0.060704  0.111562
    H   H63   0.218889  0.005548  0.060704  0.111502
    H   H64   0.994452  0.218889  0.060704  0.111527
    C   C137  0.343873  0.501733  0.466180  -0.118904
    C   C138  0.501733  0.656127  0.466180  -0.119095
    C   C139  0.656126  0.498267  0.466180  -0.119027
    C   C140  0.498267  0.343873  0.466180  -0.118981
    C   C141  0.343873  0.498267  0.533820  -0.118875
    C   C142  0.501733  0.343873  0.533820  -0.118906
    C   C143  0.656126  0.501733  0.533820  -0.119030
    C   C144  0.498267  0.656127  0.533820  -0.119411
    C   C145  0.843873  0.001733  0.966180  -0.119030
    C   C146  0.001733  0.156127  0.966180  -0.119256
    C   C147  0.156127  0.998267  0.966180  -0.119364
    C   C148  0.998267  0.843873  0.966180  -0.119032
    C   C149  0.843873  0.998267  0.033820  -0.119069
    C   C150  0.001733  0.843873  0.033820  -0.119037
    C   C151  0.156127  0.001733  0.033820  -0.119212
    C   C152  0.998267  0.156127  0.033820  -0.119234
    H   H65   0.361315  0.503791  0.439402  0.127281
    H   H66   0.503791  0.638685  0.439402  0.127333
    H   H67   0.638685  0.496209  0.439402  0.127339
    H   H68   0.496209  0.361315  0.439402  0.127285
    H   H69   0.361315  0.496209  0.560598  0.127279
    H   H70   0.503791  0.361315  0.560598  0.127295
    H   H71   0.638685  0.503791  0.560598  0.127341
    H   H72   0.496209  0.638685  0.560598  0.127430
    H   H73   0.861315  0.003791  0.939402  0.127322
    H   H74   0.003791  0.138685  0.939402  0.127354
    H   H75   0.138685  0.996209  0.939402  0.127350
    H   H76   0.996209  0.861315  0.939402  0.127312
    H   H77   0.861315  0.996209  0.060598  0.127313
    H   H78   0.003791  0.861315  0.060598  0.127321
    H   H79   0.138685  0.003791  0.060598  0.127351
    H   H80   0.996209  0.138685  0.060598  0.127348
    C   C153  0.366981  0.500000  0.500000  -0.018765
    C   C154  0.500000  0.633019  0.500000  -0.018342
    C   C155  0.633019  0.500000  0.500000  -0.018555
    C   C156  0.500000  0.366981  0.500000  -0.018652
    C   C157  0.866981  0.000000  0.000000  -0.018426
    C   C158  0.000000  0.133019  0.000000  -0.018250
    C   C159  0.133019  0.000000  0.000000  -0.018182
    C   C160  0.000000  0.866981  0.000000  -0.018458
    C   C161  0.274675  0.500000  0.500000  0.117648
    C   C162  0.500000  0.725325  0.500000  0.117404
    C   C163  0.725325  0.500000  0.500000  0.117599
    C   C164  0.500000  0.274675  0.500000  0.117602
    C   C165  0.774675  0.000000  0.000000  0.117631
    C   C166  0.000000  0.225325  0.000000  0.117326
    C   C167  0.225325  0.000000  0.000000  0.117258
    C   C168  0.000000  0.774675  0.000000  0.117645
    O   O33   0.488360  0.563563  0.468550  -0.594637
    O   O34   0.563563  0.511640  0.468550  -0.594625
    O   O35   0.511640  0.436437  0.468550  -0.594593
    O   O36   0.436437  0.488360  0.468550  -0.594601
    O   O37   0.488360  0.436437  0.531450  -0.594625
    O   O38   0.563563  0.488360  0.531450  -0.594628
    O   O39   0.511640  0.563563  0.531450  -0.594627
    O   O40   0.436437  0.511640  0.531450  -0.594627
    O   O41   0.988360  0.063563  0.968550  -0.594578
    O   O42   0.063563  0.011640  0.968550  -0.594542
    O   O43   0.011640  0.936437  0.968550  -0.594586
    O   O44   0.936437  0.988360  0.968550  -0.594611
    O   O45   0.988360  0.936437  0.031450  -0.594637
    O   O46   0.063563  0.988360  0.031450  -0.594624
    O   O47   0.011640  0.063563  0.031450  -0.594603
    O   O48   0.936437  0.011640  0.031450  -0.594610
    C   C169  0.500000  0.584404  0.500000  0.684076
    C   C170  0.584404  0.500000  0.500000  0.684206
    C   C171  0.500000  0.415596  0.500000  0.684117
    C   C172  0.415596  0.500000  0.500000  0.684204
    C   C173  0.000000  0.084404  0.000000  0.683974
    C   C174  0.084404  0.000000  0.000000  0.683955
    C   C175  0.000000  0.915596  0.000000  0.684016
    C   C176  0.915596  0.000000  0.000000  0.683997
    Cu  Cu9   0.500000  0.500000  0.462838  0.954748
    Cu  Cu10  0.500000  0.500000  0.537162  0.954769
    Cu  Cu11  0.000000  0.000000  0.962838  0.954766
    Cu  Cu12  0.000000  0.000000  0.037162  0.954825
    Cl  Cl1   0.129461  0.541858  0.569419  -0.056388
    Cl  Cl2   0.541858  0.870539  0.569419  -0.056368
    Cl  Cl3   0.870539  0.458142  0.569419  -0.056287
    Cl  Cl4   0.458142  0.129461  0.569419  -0.056297
    Cl  Cl5   0.129461  0.458142  0.430581  -0.056381
    Cl  Cl6   0.541858  0.129461  0.430581  -0.056366
    Cl  Cl7   0.870539  0.541858  0.430581  -0.056381
    Cl  Cl8   0.458142  0.870539  0.430581  -0.056381
    Cl  Cl9   0.629461  0.041858  0.069419  -0.056251
    Cl  Cl10  0.041858  0.370539  0.069419  -0.056387
    Cl  Cl11  0.370539  0.958142  0.069419  -0.056266
    Cl  Cl12  0.958142  0.629461  0.069419  -0.056281
    Cl  Cl13  0.629461  0.958142  0.930581  -0.056390
    Cl  Cl14  0.041858  0.629461  0.930581  -0.056378
    Cl  Cl15  0.370539  0.041858  0.930581  -0.056365
    Cl  Cl16  0.958142  0.370539  0.930581  -0.056405
