# generated using pymatgen
data_Cu2H43C48N5O8
_symmetry_space_group_name_H-M   'P 1'
_cell_length_a   14.98059400
_cell_length_b   13.54650400
_cell_length_c   10.66901200
_cell_angle_alpha   90.00000000
_cell_angle_beta   89.99720500
_cell_angle_gamma   90.00000000
_symmetry_Int_Tables_number   1
_chemical_formula_structural   Cu2H43C48N5O8
_chemical_formula_sum   'Cu2 H43 C48 N5 O8'
_cell_volume   2165.11249668
_cell_formula_units_Z   1
loop_
 _symmetry_equiv_pos_site_id
 _symmetry_equiv_pos_as_xyz
  1  'x, y, z'
loop_
 _atom_site_type_symbol
 _atom_site_label
 _atom_site_symmetry_multiplicity
 _atom_site_fract_x
 _atom_site_fract_y
 _atom_site_fract_z
 _atom_site_occupancy
  Cu  Cu1  1  0.49820900  0.61203600  0.50535500  1
  Cu  Cu2  1  0.49674500  0.41458300  0.50675100  1
  H  H1  1  0.41838600  0.64623400  0.11275200  1
  H  H2  1  0.55206100  0.36580300  0.11006200  1
  H  H3  1  0.35452900  0.53307600  0.10932800  1
  H  H4  1  0.43113300  0.37147900  0.11086000  1
  H  H5  1  0.35530800  0.53678600  0.89917200  1
  H  H6  1  0.43012500  0.37218800  0.90219100  1
  H  H7  1  0.42057800  0.64880100  0.90297500  1
  H  H8  1  0.55099900  0.36503300  0.90156300  1
  H  H9  1  0.58654800  0.63772500  0.11158200  1
  H  H10  1  0.64120000  0.51872400  0.11025400  1
  H  H11  1  0.58718800  0.63865700  0.90174500  1
  H  H12  1  0.64088300  0.51933300  0.90006300  1
  H  H13  1  0.77784800  0.64787400  0.40885400  1
  H  H14  1  0.77565600  0.37300900  0.60061100  1
  H  H15  1  0.08323000  0.29990400  0.65991200  1
  H  H16  1  0.21899800  0.37543600  0.60178400  1
  H  H17  1  0.21671000  0.65386700  0.41612900  1
  H  H18  1  0.07811900  0.72917800  0.36074600  1
  H  H19  1  0.91505000  0.72674800  0.35851300  1
  H  H20  1  0.39594400  0.76848300  0.63707300  1
  H  H21  1  0.39339600  0.25591200  0.64001200  1
  H  H22  1  0.60059600  0.76501100  0.37242000  1
  H  H23  1  0.59347200  0.26269900  0.36747200  1
  H  H24  1  0.33537300  0.10154800  0.71570300  1
  H  H25  1  0.33790200  0.92093100  0.71675300  1
  H  H26  1  0.58697300  0.85614600  0.17050900  1
  H  H27  1  0.68848000  0.78366500  0.18814000  1
  H  H28  1  0.68757800  0.89095400  0.08897800  1
  H  H29  1  0.78183700  0.93573400  0.42499500  1
  H  H30  1  0.81735000  0.86450400  0.29131200  1
  H  H31  1  0.74065900  0.81251800  0.40362000  1
  H  H32  1  0.76624700  0.13145700  0.41303400  1
  H  H33  1  0.79052400  0.20332500  0.27470400  1
  H  H34  1  0.80264300  0.07124100  0.27048000  1
  H  H35  1  0.59840900  0.06342500  0.12057700  1
  H  H36  1  0.71686500  0.08026700  0.09298300  1
  H  H37  1  0.64266400  0.18496400  0.09436500  1
  H  H38  1  0.88632100  0.36206200  0.84057900  1
  H  H39  1  0.97818100  0.27585700  0.84624400  1
  H  H40  1  0.86435500  0.23137200  0.85468400  1
  H  H41  1  0.93510300  0.18218400  0.53087800  1
  H  H42  1  0.87998000  0.12808300  0.66472300  1
  H  H43  1  0.99630700  0.16008900  0.67479400  1
  C  C1  1  0.32604100  0.51449500  0.50699500  1
  C  C2  1  0.49727400  0.51299800  0.26521100  1
  C  C3  1  0.66910500  0.51179700  0.50639800  1
  C  C4  1  0.49744300  0.51344400  0.74696800  1
  C  C5  1  0.41679700  0.56935700  0.07702500  1
  C  C6  1  0.49298700  0.40766400  0.07711500  1
  C  C7  1  0.41754200  0.57098100  0.93505700  1
  C  C8  1  0.49254700  0.40798300  0.93521800  1
  C  C9  1  0.58229600  0.56075200  0.07696700  1
  C  C10  1  0.49733400  0.51281100  0.12511400  1
  C  C11  1  0.49747000  0.51347800  0.88701600  1
  C  C12  1  0.58237900  0.56128000  0.93498600  1
  C  C13  1  0.81326200  0.58827000  0.45360400  1
  C  C14  1  0.76688800  0.51084400  0.50624100  1
  C  C15  1  0.81297600  0.43303600  0.55931700  1
  C  C16  1  0.90562600  0.43349700  0.56182300  1
  C  C17  1  0.95150700  0.51162400  0.50870600  1
  C  C18  1  0.90521100  0.58864300  0.45458000  1
  C  C19  1  0.95265300  0.35680200  0.61746200  1
  C  C20  1  0.04516000  0.35833800  0.61635700  1
  C  C21  1  0.09036700  0.43570400  0.56160900  1
  C  C22  1  0.04367800  0.51291200  0.50919300  1
  C  C23  1  0.08933600  0.59131300  0.45703900  1
  C  C24  1  0.04281100  0.66794900  0.40281500  1
  C  C25  1  0.95088100  0.66646800  0.40137700  1
  C  C26  1  0.18256800  0.43598300  0.56019800  1
  C  C27  1  0.22839000  0.51463200  0.50869500  1
  C  C28  1  0.18143400  0.59273800  0.45812400  1
  C  C29  1  0.44174200  0.80907100  0.57809900  1
  C  C30  1  0.43919800  0.21621200  0.58039400  1
  C  C31  1  0.55706100  0.80849900  0.43004200  1
  C  C32  1  0.55145700  0.21920600  0.42836100  1
  C  C33  1  0.55923600  0.91145100  0.42719900  1
  C  C34  1  0.55497000  0.11694400  0.42709600  1
  C  C35  1  0.49984100  0.96228600  0.50268600  1
  C  C36  1  0.49853300  0.06417900  0.50345200  1
  C  C37  1  0.44145500  0.91074700  0.57883900  1
  C  C38  1  0.43967800  0.11421600  0.57971700  1
  C  C39  1  0.61886400  0.96530100  0.35123200  1
  C  C40  1  0.61432300  0.06812200  0.34975800  1
  C  C41  1  0.38166600  0.06257700  0.65566000  1
  C  C42  1  0.38285400  0.96090200  0.65561300  1
  C  C43  1  0.66081900  0.85906100  0.17695000  1
  C  C44  1  0.76041000  0.88063500  0.35428000  1
  C  C45  1  0.76235500  0.13261400  0.30920800  1
  C  C46  1  0.65660700  0.11215300  0.13768700  1
  C  C47  1  0.90903900  0.28742200  0.81212400  1
  C  C48  1  0.93110400  0.18238900  0.63467100  1
  N  N1  1  0.49964300  0.75970100  0.50536900  1
  N  N2  1  0.49597000  0.26688600  0.50702300  1
  N  N3  1  0.68790500  0.91995500  0.28092700  1
  N  N4  1  0.67046000  0.12488400  0.27043800  1
  N  N5  1  0.90599000  0.27929000  0.67766500  1
  O  O1  1  0.36847000  0.59905400  0.50146800  1
  O  O2  1  0.36709400  0.42926300  0.51132800  1
  O  O3  1  0.50126600  0.59800200  0.32368700  1
  O  O4  1  0.49352300  0.42836500  0.32445800  1
  O  O5  1  0.62793800  0.59706000  0.50124200  1
  O  O6  1  0.62642000  0.42758900  0.51117000  1
  O  O7  1  0.50143500  0.59819900  0.68806000  1
  O  O8  1  0.49365900  0.42852100  0.68864000  1
