# generated using pymatgen
data_CuH22C35(NO4)2
_symmetry_space_group_name_H-M   'P 1'
_cell_length_a   15.96916000
_cell_length_b   17.40028900
_cell_length_c   27.56100700
_cell_angle_alpha   89.99155500
_cell_angle_beta   92.98531300
_cell_angle_gamma   96.73185600
_symmetry_Int_Tables_number   1
_chemical_formula_structural   CuH22C35(NO4)2
_chemical_formula_sum   'Cu2 H44 C70 N4 O16'
_cell_volume   7595.06418933
_cell_formula_units_Z   2
loop_
 _symmetry_equiv_pos_site_id
 _symmetry_equiv_pos_as_xyz
  1  'x, y, z'
loop_
 _atom_site_type_symbol
 _atom_site_label
 _atom_site_symmetry_multiplicity
 _atom_site_fract_x
 _atom_site_fract_y
 _atom_site_fract_z
 _atom_site_occupancy
  Cu  Cu1  1  0.41787300  0.49545300  0.49763400  1
  Cu  Cu2  1  0.58674600  0.50583400  0.50246300  1
  H  H1  1  0.62680300  0.47023800  0.35228100  1
  H  H2  1  0.36992700  0.50853900  0.64740100  1
  H  H3  1  0.62960500  0.47038700  0.26416100  1
  H  H4  1  0.36611000  0.50964300  0.73520500  1
  H  H5  1  0.34642300  0.35908800  0.11778800  1
  H  H6  1  0.62657900  0.66503000  0.88223600  1
  H  H7  1  0.63016000  0.49135400  0.74797600  1
  H  H8  1  0.38286500  0.54102500  0.25329000  1
  H  H9  1  0.36769800  0.33723800  0.87663700  1
  H  H10  1  0.66180700  0.64413400  0.12433200  1
  H  H11  1  0.36835000  0.33518500  0.96175500  1
  H  H12  1  0.66129700  0.64595300  0.03921900  1
  H  H13  1  0.34182100  0.35700700  0.03255800  1
  H  H14  1  0.63025000  0.66764000  0.96737500  1
  H  H15  1  0.62411500  0.26456600  0.49748000  1
  H  H16  1  0.38274500  0.73512900  0.51155500  1
  H  H17  1  0.64797700  0.75180500  0.49161400  1
  H  H18  1  0.35441400  0.24840800  0.49702900  1
  H  H19  1  0.59639300  0.00640200  0.51629100  1
  H  H20  1  0.40880900  0.99268200  0.48352700  1
  H  H21  1  0.34682900  0.10873200  0.49533400  1
  H  H22  1  0.65681100  0.89138500  0.49590300  1
  H  H23  1  0.39078500  0.87452100  0.51431500  1
  H  H24  1  0.61593500  0.12590000  0.49431300  1
  H  H25  1  0.71200000  0.44228100  0.44445600  1
  H  H26  1  0.29196000  0.58440800  0.53978700  1
  H  H27  1  0.99115000  0.42859500  0.46523300  1
  H  H28  1  0.00967300  0.55946100  0.54092400  1
  H  H29  1  0.88339900  0.58086200  0.57528000  1
  H  H30  1  0.11916600  0.37840200  0.44796800  1
  H  H31  1  0.14187500  0.58307300  0.53541200  1
  H  H32  1  0.86175600  0.44368700  0.44550500  1
  H  H33  1  0.25379200  0.45221400  0.38937100  1
  H  H34  1  0.21108800  0.35157000  0.38000200  1
  H  H35  1  0.32255400  0.38122400  0.37469500  1
  H  H36  1  0.75653100  0.67896700  0.52849700  1
  H  H37  1  0.80393100  0.69251400  0.58977200  1
  H  H38  1  0.69338600  0.70219400  0.57793000  1
  H  H39  1  0.59662100  0.37193600  0.65765100  1
  H  H40  1  0.69876000  0.39309700  0.68957900  1
  H  H41  1  0.69030000  0.39071500  0.62374100  1
  H  H42  1  0.34437800  0.65530100  0.31667000  1
  H  H43  1  0.44932000  0.65095900  0.34401100  1
  H  H44  1  0.36132900  0.65308200  0.38208100  1
  C  C1  1  0.49472600  0.35208400  0.49848200  1
  C  C2  1  0.51029300  0.64896400  0.50085400  1
  C  C3  1  0.50201800  0.50310100  0.40675600  1
  C  C4  1  0.50259700  0.49805400  0.59347200  1
  C  C5  1  0.45032800  0.45151600  0.17582200  1
  C  C6  1  0.54208300  0.55827600  0.82453300  1
  C  C7  1  0.56099900  0.55221700  0.17814400  1
  C  C8  1  0.44990600  0.44349200  0.82243000  1
  C  C9  1  0.43595200  0.52460100  0.27516800  1
  C  C10  1  0.57271500  0.49385400  0.72579700  1
  C  C11  1  0.43455000  0.52655200  0.32519700  1
  C  C12  1  0.57546900  0.49161200  0.67585400  1
  C  C13  1  0.57265900  0.48602000  0.33106100  1
  C  C14  1  0.42749700  0.50283100  0.66882100  1
  C  C15  1  0.57431400  0.48572900  0.28113000  1
  C  C16  1  0.42496000  0.50330400  0.71873900  1
  C  C17  1  0.50548300  0.50393100  0.25298500  1
  C  C18  1  0.49763500  0.49902200  0.74744300  1
  C  C19  1  0.50363600  0.50146200  0.10119300  1
  C  C20  1  0.49732900  0.50138300  0.89928600  1
  C  C21  1  0.44870400  0.45031800  0.12559300  1
  C  C22  1  0.54371200  0.55910300  0.87476100  1
  C  C23  1  0.39153700  0.39884800  0.09969100  1
  C  C24  1  0.59098200  0.61797700  0.90049000  1
  C  C25  1  0.56008400  0.55273300  0.12791500  1
  C  C26  1  0.44984000  0.44342400  0.87267100  1
  C  C27  1  0.50236300  0.50483400  0.35348500  1
  C  C28  1  0.50244400  0.49723600  0.64685300  1
  C  C29  1  0.44920600  0.44413800  0.97378700  1
  C  C30  1  0.55534600  0.55592900  0.02676700  1
  C  C31  1  0.54997300  0.55873600  0.97594000  1
  C  C32  1  0.44699500  0.44706000  0.02448400  1
  C  C33  1  0.49879800  0.50143500  0.94982200  1
  C  C34  1  0.50199400  0.50147500  0.05066500  1
  C  C35  1  0.40360800  0.38471100  0.94621900  1
  C  C36  1  0.61361300  0.60584400  0.05453100  1
  C  C37  1  0.40397700  0.38459200  0.89642200  1
  C  C38  1  0.61565900  0.60420800  0.10435100  1
  C  C39  1  0.39044200  0.39717400  0.04988000  1
  C  C40  1  0.59406300  0.61807000  0.95032600  1
  C  C41  1  0.48978300  0.26709700  0.49775400  1
  C  C42  1  0.51488300  0.73335400  0.50125800  1
  C  C43  1  0.56260100  0.23104000  0.49755200  1
  C  C44  1  0.44308400  0.76899400  0.50703200  1
  C  C45  1  0.55795600  0.15129800  0.49660900  1
  C  C46  1  0.44760400  0.84870100  0.50807700  1
  C  C47  1  0.48037600  0.10629800  0.49650700  1
  C  C48  1  0.52443700  0.89352000  0.50353900  1
  C  C49  1  0.40802800  0.14255700  0.49631100  1
  C  C50  1  0.59607900  0.85734400  0.49875200  1
  C  C51  1  0.41240800  0.22211100  0.49703100  1
  C  C52  1  0.59121200  0.77798000  0.49679100  1
  C  C53  1  0.47085900  0.02095400  0.49454000  1
  C  C54  1  0.53411600  0.97870600  0.50568400  1
  C  C55  1  0.74982900  0.47359600  0.47295500  1
  C  C56  1  0.25412700  0.53970700  0.51855300  1
  C  C57  1  0.83603900  0.47372700  0.47428000  1
  C  C58  1  0.16746800  0.53782300  0.51677800  1
  C  C59  1  0.88564700  0.51255000  0.51127700  1
  C  C60  1  0.11687500  0.47947300  0.49173900  1
  C  C61  1  0.84647100  0.55083500  0.54562800  1
  C  C62  1  0.15626300  0.42528800  0.46775800  1
  C  C63  1  0.76032100  0.55208900  0.54234700  1
  C  C64  1  0.24358100  0.43076700  0.46818400  1
  C  C65  1  0.97862100  0.51765500  0.51500200  1
  C  C66  1  0.02340700  0.47332000  0.48891500  1
  C  C67  1  0.26608500  0.39122000  0.39454200  1
  C  C68  1  0.74598100  0.67012200  0.56768300  1
  C  C69  1  0.65959100  0.40632300  0.65690900  1
  C  C70  1  0.38115000  0.63142100  0.34715500  1
  N  N1  1  0.50612900  0.50215100  0.20126300  1
  N  N2  1  0.49575300  0.50066300  0.79915200  1
  N  N3  1  0.71284300  0.51394600  0.50580100  1
  N  N4  1  0.29159000  0.48728600  0.49400100  1
  O  O1  1  0.42428600  0.38408300  0.49605000  1
  O  O2  1  0.58085400  0.61741100  0.50154900  1
  O  O3  1  0.56896400  0.39304000  0.49897600  1
  O  O4  1  0.43595000  0.60839200  0.49758900  1
  O  O5  1  0.42959500  0.49493600  0.42751100  1
  O  O6  1  0.57454600  0.50070500  0.57251800  1
  O  O7  1  0.57441100  0.50458800  0.43154600  1
  O  O8  1  0.43001200  0.49280200  0.56852600  1
  O  O9  1  0.39691400  0.40119300  0.19957200  1
  O  O10  1  0.58602500  0.61578000  0.80075700  1
  O  O11  1  0.40579200  0.38531900  0.79667200  1
  O  O12  1  0.61516300  0.60325900  0.20412600  1
  O  O13  1  0.28075600  0.37637700  0.44383900  1
  O  O14  1  0.72389100  0.59151600  0.57698100  1
  O  O15  1  0.65106600  0.48526800  0.65596100  1
  O  O16  1  0.36627400  0.55066400  0.34618300  1
