# Generated by REPEAT Assigner based on pymatgen
data_DB0-m3_o7_o24_f0_nbo.sym.37
_audit_creation_date              2022-05-24
_audit_creation_method            REPEAT_Assigner
_cell_length_a                    41.098608
_cell_length_b                    35.568522
_cell_length_c                    21.661953
_cell_angle_alpha                 90.000000
_cell_angle_beta                  60.183793
_cell_angle_gamma                 90.000000
_cell_volume                      27474.040194
_symmetry_space_group_name_H-M    P1
_symmetry_Int_Tables_number       1
loop_
    _symmetry_equiv_pos_site_id
    _symmetry_equiv_pos_as_xyz
    1  x,y,z
loop_
    _atom_site_type_symbol
    _atom_site_label
    _atom_site_fract_x
    _atom_site_fract_y
    _atom_site_fract_z
    _atom_type_partial_charge
    C   C1    0.926338  0.499637  0.066009  0.861317
    C   C2    0.025871  0.526318  0.746770  0.431023
    C   C3    0.003007  0.501615  0.617606  0.386668
    C   C4    0.497392  0.001788  0.382184  0.394179
    C   C5    0.503007  0.001615  0.617606  0.386945
    C   C6    0.001067  0.428226  0.498777  0.934858
    C   C7    0.501067  0.928226  0.498777  0.934596
    C   C8    0.500041  0.575725  0.500929  0.570227
    C   C9    0.000041  0.075725  0.500929  0.570329
    C   C10   0.573354  0.501725  0.420505  0.893466
    C   C11   0.426400  0.502094  0.579433  0.899019
    C   C12   0.073354  0.001725  0.420505  0.893250
    C   C13   0.474080  0.026791  0.253845  0.420899
    C   C14   0.926400  0.002094  0.579433  0.899407
    C   C15   0.499713  0.428321  0.499064  0.747888
    C   C16   0.999713  0.928321  0.499064  0.747677
    C   C17   0.481737  0.328695  0.563262  -0.559282
    C   C18   0.517586  0.328413  0.436493  -0.552130
    C   C19   0.981737  0.828695  0.563262  -0.559124
    C   C20   0.017586  0.828413  0.436493  -0.552125
    C   C21   0.481537  0.367543  0.563332  0.409521
    C   C22   0.517831  0.367261  0.435785  0.402403
    C   C23   0.981537  0.867543  0.563332  0.409371
    C   C24   0.525871  0.026318  0.746770  0.430799
    C   C25   0.017831  0.867261  0.435785  0.402432
    C   C26   0.499691  0.387031  0.499398  -0.227744
    C   C27   0.999691  0.887031  0.499398  -0.227707
    C   C28   0.499648  0.309297  0.500035  0.536228
    C   C29   0.999648  0.809297  0.500035  0.536263
    C   C30   0.499606  0.269004  0.500358  -0.457338
    C   C31   0.999606  0.769004  0.500358  -0.457602
    C   C32   0.999574  0.735150  0.500584  0.321848
    C   C33   0.499574  0.235150  0.500584  0.321359
    C   C34   0.972859  0.675351  0.559493  0.452878
    C   C35   0.007775  0.533717  0.262605  -0.075685
    C   C36   0.026195  0.675242  0.442170  0.448813
    C   C37   0.472859  0.175351  0.559493  0.452488
    C   C38   0.526195  0.175242  0.442170  0.448429
    C   C39   0.972773  0.636511  0.559635  0.367522
    C   C40   0.026169  0.636405  0.442228  0.372893
    C   C41   0.472773  0.136511  0.559635  0.367637
    C   C42   0.526169  0.136405  0.442228  0.373055
    C   C43   0.999430  0.616834  0.500968  -0.588741
    C   C44   0.499430  0.116834  0.500968  -0.588864
    C   C45   0.999547  0.694744  0.500767  -0.613085
    C   C46   0.992223  0.533132  0.737805  -0.081058
    C   C47   0.499547  0.194744  0.500767  -0.612283
    C   C48   0.495785  0.675288  0.449542  0.516761
    C   C49   0.504658  0.675544  0.550588  0.522566
    C   C50   0.995785  0.175288  0.449542  0.516781
    C   C51   0.004658  0.175544  0.550588  0.522570
    C   C52   0.495831  0.636425  0.449731  -0.513121
    C   C53   0.504429  0.636685  0.551104  -0.515302
    C   C54   0.995831  0.136425  0.449731  -0.513128
    C   C55   0.004429  0.136685  0.551104  -0.515339
    C   C56   0.500092  0.616990  0.500588  0.313901
    C   C57   0.507775  0.033717  0.262605  -0.075371
    C   C58   0.000092  0.116990  0.500588  0.313844
    C   C59   0.500272  0.694747  0.499885  -0.326346
    C   C60   0.000272  0.194747  0.499885  -0.326334
    C   C61   0.500402  0.735117  0.499506  0.184017
    C   C62   0.000402  0.235117  0.499506  0.184011
    C   C63   0.000529  0.268988  0.499247  -0.330057
    C   C64   0.500529  0.768988  0.499247  -0.330052
    C   C65   0.976500  0.328680  0.483910  -0.565100
    C   C66   0.025033  0.328505  0.513978  -0.563348
    C   C67   0.476500  0.828680  0.483910  -0.565031
    C   C68   0.492223  0.033132  0.737805  -0.080783
    C   C69   0.525033  0.828505  0.513978  -0.563346
    C   C70   0.976575  0.367538  0.483516  0.456461
    C   C71   0.025224  0.367360  0.514151  0.457718
    C   C72   0.476575  0.867538  0.483516  0.456414
    C   C73   0.525224  0.867360  0.514151  0.457790
    C   C74   0.000965  0.387008  0.498782  -0.377446
    C   C75   0.500965  0.887008  0.498782  -0.377486
    C   C76   0.000697  0.309313  0.499010  0.498365
    C   C77   0.500697  0.809313  0.499010  0.498337
    C   C78   0.996541  0.501304  0.314784  0.635304
    C   C79   0.003807  0.500960  0.685053  0.645722
    C   C80   0.496541  0.001304  0.314784  0.634674
    C   C81   0.073514  0.500870  0.934340  0.862561
    C   C82   0.503807  0.000960  0.685053  0.645166
    C   C83   0.962845  0.494350  0.305299  -0.112379
    C   C84   0.037455  0.494109  0.694741  -0.129627
    C   C85   0.462845  0.994350  0.305299  -0.113331
    C   C86   0.537455  0.994109  0.694741  -0.129331
    C   C87   0.985649  0.468129  0.243868  0.050990
    C   C88   0.014750  0.467579  0.755665  0.049918
    C   C89   0.485649  0.968129  0.243868  0.052491
    C   C90   0.514750  0.967579  0.755665  0.049829
    C   C91   0.019291  0.475106  0.252671  0.322414
    C   C92   0.426338  0.999637  0.066009  0.861229
    C   C93   0.981155  0.474445  0.746667  0.331126
    C   C94   0.519291  0.975106  0.252671  0.322806
    C   C95   0.481155  0.974445  0.746667  0.331304
    C   C96   0.030502  0.507555  0.201304  0.309616
    C   C97   0.969594  0.506648  0.798605  0.309074
    C   C98   0.530502  0.007555  0.201304  0.309455
    C   C99   0.469594  0.006648  0.798605  0.308960
    C   C100  0.996863  0.500596  0.191710  0.283402
    C   C101  0.003183  0.499800  0.808401  0.274853
    C   C102  0.496863  0.000596  0.191710  0.281944
    C   C103  0.573514  0.000870  0.934340  0.862481
    C   C104  0.503183  0.999800  0.808401  0.274876
    C   C105  0.671592  0.498833  0.262313  0.403201
    C   C106  0.328128  0.503540  0.737585  0.404535
    C   C107  0.171592  0.998833  0.262313  0.403177
    C   C108  0.828128  0.003540  0.737585  0.404507
    C   C109  0.632804  0.499566  0.301730  0.304909
    C   C110  0.366911  0.504390  0.698087  0.294011
    C   C111  0.132804  0.999566  0.301730  0.304932
    C   C112  0.866911  0.004390  0.698087  0.293962
    C   C113  0.614708  0.501059  0.375773  -0.170409
    C   C114  0.997750  0.500822  0.122648  0.473666
    C   C115  0.385052  0.501541  0.624192  -0.156457
    C   C116  0.114708  0.001059  0.375773  -0.170296
    C   C117  0.885052  0.001541  0.624192  -0.156723
    C   C118  0.636214  0.501751  0.408780  -0.452721
    C   C119  0.363605  0.497936  0.591384  -0.473240
    C   C120  0.136214  0.001751  0.408780  -0.452795
    C   C121  0.863605  0.997936  0.591384  -0.473144
    C   C122  0.674938  0.501114  0.369171  0.490887
    C   C123  0.324885  0.497210  0.631044  0.508527
    C   C124  0.174938  0.001114  0.369171  0.490945
    C   C125  0.002145  0.499579  0.877602  0.495196
    C   C126  0.824885  0.997210  0.631044  0.508507
    C   C127  0.692641  0.499593  0.295997  -0.380795
    C   C128  0.307133  0.499924  0.704101  -0.387409
    C   C129  0.192641  0.999593  0.295997  -0.380831
    C   C130  0.807133  0.999924  0.704101  -0.387345
    C   C131  0.732986  0.498789  0.255326  0.144943
    C   C132  0.266793  0.499059  0.744854  0.148526
    C   C133  0.232986  0.998789  0.255326  0.144973
    C   C134  0.766793  0.999059  0.744854  0.148483
    C   C135  0.766794  0.498385  0.221190  -0.211132
    C   C136  0.497750  0.000822  0.122648  0.474080
    C   C137  0.232987  0.498664  0.779051  -0.215816
    C   C138  0.266794  0.998385  0.221190  -0.211143
    C   C139  0.732987  0.998664  0.779051  -0.215776
    C   C140  0.825777  0.530871  0.147525  -0.490430
    C   C141  0.174244  0.530309  0.857751  -0.491995
    C   C142  0.325777  0.030871  0.147525  -0.490409
    C   C143  0.674244  0.030309  0.857751  -0.491957
    C   C144  0.864447  0.531776  0.109485  0.600314
    C   C145  0.135584  0.531399  0.895889  0.592548
    C   C146  0.364447  0.031776  0.109485  0.600266
    C   C147  0.502145  0.999579  0.877602  0.495243
    C   C148  0.635584  0.031399  0.895889  0.592498
    C   C149  0.884950  0.499658  0.104434  -0.259558
    C   C150  0.114873  0.500449  0.896035  -0.252240
    C   C151  0.384950  0.999658  0.104434  -0.259482
    C   C152  0.614873  0.000449  0.896035  -0.252163
    C   C153  0.865902  0.466866  0.136944  -0.310551
    C   C154  0.133655  0.468513  0.858680  -0.326604
    C   C155  0.365902  0.966866  0.136944  -0.310587
    C   C156  0.633655  0.968513  0.858680  -0.326632
    C   C157  0.827088  0.466184  0.174929  0.291822
    C   C158  0.974080  0.526791  0.253845  0.420063
    C   C159  0.172466  0.467630  0.820568  0.300953
    C   C160  0.327088  0.966184  0.174929  0.291827
    C   C161  0.672466  0.967630  0.820568  0.300972
    C   C162  0.807087  0.498354  0.180512  0.207416
    C   C163  0.192698  0.498722  0.819829  0.210137
    C   C164  0.307087  0.998354  0.180512  0.207406
    C   C165  0.692698  0.998722  0.819829  0.210090
    C   C166  0.999328  0.575526  0.501015  1.033034
    C   C167  0.499328  0.075526  0.501015  1.032684
    C   C168  0.997392  0.501788  0.382184  0.393947
    H   H1    0.622787  0.502938  0.466083  0.219704
    H   H2    0.117891  0.444308  0.858240  0.201962
    H   H3    0.032524  0.400778  0.581074  0.241240
    H   H4    0.435929  0.868118  0.456793  0.262777
    H   H5    0.469447  0.901076  0.416530  0.236865
    H   H6    0.565856  0.867638  0.540915  0.265016
    H   H7    0.532524  0.900778  0.581074  0.241241
    H   H8    0.908224  0.483165  0.338522  0.277114
    H   H9    0.925235  0.461666  0.386012  0.331331
    H   H10   0.092129  0.483412  0.661816  0.282560
    H   H11   0.075479  0.461798  0.613844  0.334109
    H   H12   0.408224  0.983165  0.338522  0.277031
    H   H13   0.381440  0.941721  0.133608  0.195054
    H   H14   0.425235  0.961666  0.386012  0.331280
    H   H15   0.592129  0.983412  0.661816  0.282544
    H   H16   0.575479  0.961798  0.613844  0.334103
    H   H17   0.967301  0.415426  0.280048  0.263576
    H   H18   0.948354  0.434933  0.234119  0.340196
    H   H19   0.033655  0.415110  0.718675  0.265898
    H   H20   0.052100  0.434543  0.765547  0.338147
    H   H21   0.467301  0.915426  0.280048  0.263608
    H   H22   0.448354  0.934933  0.234119  0.340187
    H   H23   0.533655  0.915110  0.718675  0.265899
    H   H24   0.617891  0.944308  0.858240  0.201967
    H   H25   0.552100  0.934543  0.765547  0.338136
    H   H26   0.054730  0.431753  0.202663  0.343111
    H   H27   0.028986  0.427329  0.291954  0.324661
    H   H28   0.946025  0.430741  0.795656  0.347306
    H   H29   0.971970  0.426794  0.706307  0.324287
    H   H30   0.554730  0.931753  0.202663  0.342965
    H   H31   0.528986  0.927329  0.291954  0.324658
    H   H32   0.446025  0.930741  0.795656  0.347294
    H   H33   0.471970  0.926794  0.706307  0.324247
    H   H34   0.084921  0.519970  0.167452  0.319156
    H   H35   0.467577  0.313017  0.612459  0.201234
    H   H36   0.067721  0.539328  0.118405  0.350734
    H   H37   0.915145  0.518798  0.832261  0.324451
    H   H38   0.932049  0.537925  0.881985  0.352878
    H   H39   0.584921  0.019970  0.167452  0.319095
    H   H40   0.567721  0.039328  0.118405  0.350756
    H   H41   0.415145  0.018798  0.832261  0.324470
    H   H42   0.432049  0.037925  0.881985  0.352877
    H   H43   0.707005  0.520839  0.165941  0.354518
    H   H44   0.706166  0.472997  0.169449  0.364226
    H   H45   0.292479  0.530060  0.828912  0.355138
    H   H46   0.531722  0.312518  0.387552  0.199174
    H   H47   0.293681  0.482415  0.835272  0.358054
    H   H48   0.207005  0.020839  0.165941  0.354516
    H   H49   0.206166  0.972997  0.169449  0.364230
    H   H50   0.792479  0.030060  0.828912  0.355137
    H   H51   0.793681  0.982415  0.835272  0.358048
    H   H52   0.619901  0.521891  0.231187  0.293425
    H   H53   0.619049  0.474128  0.234839  0.291201
    H   H54   0.379457  0.533526  0.763198  0.293494
    H   H55   0.380873  0.485990  0.769737  0.291384
    H   H56   0.119901  0.021891  0.231187  0.293427
    H   H57   0.967577  0.813017  0.612459  0.201199
    H   H58   0.119049  0.974128  0.234839  0.291206
    H   H59   0.879457  0.033526  0.763198  0.293360
    H   H60   0.880873  0.985990  0.769737  0.291249
    H   H61   0.031722  0.812518  0.387552  0.199175
    H   H62   0.492354  0.621266  0.410180  0.183005
    H   H63   0.507847  0.621734  0.590921  0.180672
    H   H64   0.992354  0.121266  0.410180  0.183006
    H   H65   0.377081  0.495663  0.534188  0.225030
    H   H66   0.007847  0.121734  0.590921  0.180709
    H   H67   0.957839  0.312991  0.471790  0.209728
    H   H68   0.043565  0.312681  0.526243  0.208828
    H   H69   0.457839  0.812991  0.471790  0.209716
    H   H70   0.543565  0.812681  0.526243  0.208825
    H   H71   0.023803  0.587286  0.229696  0.324570
    H   H72   0.998451  0.581928  0.318840  0.384969
    H   H73   0.975784  0.586527  0.771508  0.322217
    H   H74   0.001261  0.581568  0.682290  0.383068
    H   H75   0.523803  0.087286  0.229696  0.324520
    H   H76   0.122787  0.002938  0.466083  0.219681
    H   H77   0.498451  0.081928  0.318840  0.384896
    H   H78   0.475784  0.086527  0.771508  0.322207
    H   H79   0.501261  0.081568  0.682290  0.383096
    H   H80   0.678949  0.501274  0.458529  0.303024
    H   H81   0.711209  0.527510  0.391091  0.284959
    H   H82   0.320980  0.490122  0.542305  0.303757
    H   H83   0.288451  0.518720  0.604176  0.284787
    H   H84   0.178949  0.001274  0.458529  0.303050
    H   H85   0.211209  0.027510  0.391091  0.284962
    H   H86   0.820980  0.990122  0.542305  0.303760
    H   H87   0.877081  0.995663  0.534188  0.225002
    H   H88   0.788451  0.018720  0.604176  0.284782
    H   H89   0.872917  0.572853  0.039712  0.295573
    H   H90   0.873994  0.586753  0.113367  0.306845
    H   H91   0.127311  0.568537  0.971939  0.302626
    H   H92   0.126390  0.586948  0.900812  0.306667
    H   H93   0.372917  0.072853  0.039712  0.295564
    H   H94   0.373994  0.086753  0.113367  0.306835
    H   H95   0.627311  0.068537  0.971939  0.302609
    H   H96   0.626390  0.086948  0.900812  0.306670
    H   H97   0.792813  0.423730  0.183892  0.278857
    H   H98   0.809915  0.555909  0.151604  0.153086
    H   H99   0.827085  0.411667  0.201280  0.308535
    H   H100  0.206448  0.423752  0.804892  0.280474
    H   H101  0.172065  0.414946  0.785994  0.303840
    H   H102  0.292813  0.923730  0.183892  0.278854
    H   H103  0.327085  0.911667  0.201280  0.308532
    H   H104  0.706448  0.923752  0.804892  0.280477
    H   H105  0.672065  0.914946  0.785994  0.303843
    H   H106  0.438729  0.400742  0.629332  0.288629
    H   H107  0.450655  0.368005  0.670741  0.271822
    H   H108  0.560668  0.400283  0.369259  0.294351
    H   H109  0.190284  0.554460  0.857481  0.153362
    H   H110  0.548729  0.367249  0.328374  0.274678
    H   H111  0.938729  0.900742  0.629332  0.288713
    H   H112  0.950655  0.868005  0.670741  0.271873
    H   H113  0.060668  0.900283  0.369259  0.294354
    H   H114  0.048729  0.867249  0.328374  0.274685
    H   H115  0.959241  0.712121  0.639616  0.376329
    H   H116  0.930016  0.712270  0.604981  0.368064
    H   H117  0.039929  0.711879  0.361799  0.377939
    H   H118  0.069125  0.712056  0.396501  0.368563
    H   H119  0.459241  0.212121  0.639616  0.376325
    H   H120  0.309915  0.055909  0.151604  0.153083
    H   H121  0.430016  0.212270  0.604981  0.368065
    H   H122  0.539929  0.211879  0.361799  0.377919
    H   H123  0.569125  0.212056  0.396501  0.368559
    H   H124  0.919217  0.624543  0.631804  0.304194
    H   H125  0.949281  0.625400  0.664245  0.285065
    H   H126  0.079697  0.624246  0.370203  0.304660
    H   H127  0.049689  0.625208  0.337647  0.285478
    H   H128  0.419217  0.124543  0.631804  0.304214
    H   H129  0.449281  0.125400  0.664245  0.285126
    H   H130  0.579697  0.124246  0.370203  0.304609
    H   H131  0.690284  0.054460  0.857481  0.153354
    H   H132  0.549689  0.125208  0.337647  0.285492
    H   H133  0.489799  0.676348  0.362417  0.329833
    H   H134  0.465555  0.709560  0.423749  0.289336
    H   H135  0.510634  0.677048  0.637708  0.331186
    H   H136  0.535074  0.709921  0.575746  0.288426
    H   H137  0.989799  0.176348  0.362417  0.329832
    H   H138  0.965555  0.209560  0.423749  0.289339
    H   H139  0.010634  0.177048  0.637708  0.331177
    H   H140  0.035074  0.209921  0.575746  0.288425
    H   H141  0.935800  0.567657  0.306514  0.322341
    H   H142  0.881440  0.441721  0.133608  0.195030
    H   H143  0.928053  0.542583  0.248899  0.368294
    H   H144  0.063841  0.567559  0.694968  0.320229
    H   H145  0.071707  0.542296  0.752231  0.367535
    H   H146  0.435800  0.067657  0.306514  0.322328
    H   H147  0.428053  0.042583  0.248899  0.368330
    H   H148  0.563841  0.067559  0.694968  0.320217
    H   H149  0.571707  0.042296  0.752231  0.367537
    H   H150  0.935929  0.368118  0.456793  0.262776
    H   H151  0.969447  0.401076  0.416530  0.236937
    H   H152  0.065856  0.367638  0.540915  0.265015
    N   N1    0.020119  0.570387  0.272101  -0.886416
    N   N2    0.117690  0.564262  0.936041  -0.829879
    N   N3    0.382537  0.065785  0.074653  -0.823144
    N   N4    0.617690  0.064262  0.936041  -0.829855
    N   N5    0.807556  0.432520  0.209056  -0.715720
    N   N6    0.191752  0.434924  0.781311  -0.713377
    N   N7    0.307556  0.932520  0.209056  -0.715716
    N   N8    0.691752  0.934924  0.781311  -0.713388
    N   N9    0.461425  0.387363  0.629048  -0.644027
    N   N10   0.537967  0.386796  0.369750  -0.652860
    N   N11   0.961425  0.887363  0.629048  -0.644156
    N   N12   0.979644  0.569782  0.728803  -0.878807
    N   N13   0.037967  0.886796  0.369750  -0.652890
    N   N14   0.945422  0.695244  0.620428  -1.004560
    N   N15   0.053691  0.695021  0.381130  -1.006916
    N   N16   0.445422  0.195244  0.620428  -1.004489
    N   N17   0.553691  0.195021  0.381130  -1.006831
    N   N18   0.945971  0.616881  0.621569  -0.701279
    N   N19   0.052928  0.616676  0.380395  -0.701816
    N   N20   0.445971  0.116881  0.621569  -0.701395
    N   N21   0.552928  0.116676  0.380395  -0.701772
    N   N22   0.491235  0.695501  0.397456  -0.782627
    N   N23   0.520119  0.070387  0.272101  -0.886374
    N   N24   0.509314  0.696021  0.602294  -0.784459
    N   N25   0.991235  0.195501  0.397456  -0.782633
    N   N26   0.009314  0.196021  0.602294  -0.784449
    N   N27   0.948740  0.555759  0.255746  -0.950922
    N   N28   0.050946  0.555405  0.745519  -0.949383
    N   N29   0.448740  0.055759  0.255746  -0.951064
    N   N30   0.550946  0.055405  0.745519  -0.949343
    N   N31   0.952536  0.387448  0.464882  -0.615899
    N   N32   0.049367  0.387089  0.532760  -0.624310
    N   N33   0.452536  0.887448  0.464882  -0.615875
    N   N34   0.479644  0.069782  0.728803  -0.878861
    N   N35   0.549367  0.887089  0.532760  -0.624333
    N   N36   0.924866  0.486979  0.361968  -0.817558
    N   N37   0.075552  0.487102  0.638201  -0.822945
    N   N38   0.424866  0.986979  0.361968  -0.817251
    N   N39   0.575552  0.987102  0.638201  -0.822943
    N   N40   0.973308  0.431292  0.235063  -0.839558
    N   N41   0.027310  0.430775  0.764055  -0.841435
    N   N42   0.473308  0.931292  0.235063  -0.839870
    N   N43   0.527310  0.930775  0.764055  -0.841413
    N   N44   0.044671  0.446174  0.250721  -0.913539
    N   N45   0.696859  0.501924  0.403571  -0.729158
    N   N46   0.956065  0.445401  0.747846  -0.919109
    N   N47   0.544671  0.946174  0.250721  -0.913510
    N   N48   0.456065  0.945401  0.747846  -0.919081
    N   N49   0.068386  0.514791  0.144203  -0.865776
    N   N50   0.931609  0.513523  0.855624  -0.877963
    N   N51   0.568386  0.014791  0.144203  -0.865650
    N   N52   0.431609  0.013523  0.855624  -0.877964
    N   N53   0.689737  0.497278  0.186576  -0.966790
    N   N54   0.309929  0.506489  0.813183  -0.958797
    N   N55   0.189737  0.997278  0.186576  -0.966785
    N   N56   0.303021  0.493552  0.596842  -0.734614
    N   N57   0.809929  0.006489  0.813183  -0.958783
    N   N58   0.612009  0.498699  0.265174  -0.717868
    N   N59   0.387654  0.508444  0.734367  -0.717110
    N   N60   0.112009  0.998699  0.265174  -0.717887
    N   N61   0.887654  0.008444  0.734367  -0.716648
    N   N62   0.196859  0.001924  0.403571  -0.729190
    N   N63   0.803021  0.993552  0.596842  -0.734611
    N   N64   0.882537  0.565785  0.074653  -0.823186
    O   O1    0.943854  0.467134  0.048834  -0.748550
    O   O2    0.000598  0.467053  0.907194  -0.654260
    O   O3    0.497251  0.968470  0.094291  -0.665408
    O   O4    0.500598  0.967053  0.907194  -0.654287
    O   O5    0.999467  0.533369  0.092922  -0.726315
    O   O6    0.002428  0.531966  0.906138  -0.751329
    O   O7    0.499467  0.033369  0.092922  -0.726290
    O   O8    0.502428  0.031966  0.906138  -0.751292
    O   O9    0.031625  0.557788  0.470591  -0.733094
    O   O10   0.966962  0.557948  0.531327  -0.717116
    O   O11   0.531625  0.057788  0.470591  -0.732946
    O   O12   0.055639  0.468569  0.948775  -0.765185
    O   O13   0.466962  0.057948  0.531327  -0.716661
    O   O14   0.030199  0.501119  0.378460  -0.720538
    O   O15   0.970210  0.502611  0.621319  -0.722013
    O   O16   0.530199  0.001119  0.378460  -0.720627
    O   O17   0.470210  0.002611  0.621319  -0.721908
    O   O18   0.965419  0.502630  0.442025  -0.683562
    O   O19   0.034978  0.500785  0.557766  -0.676388
    O   O20   0.465419  0.002630  0.442025  -0.683407
    O   O21   0.534978  0.000785  0.557766  -0.676481
    O   O22   0.033483  0.445718  0.468261  -0.725448
    O   O23   0.443854  0.967134  0.048834  -0.748533
    O   O24   0.968715  0.445874  0.529415  -0.741869
    O   O25   0.533483  0.945718  0.468261  -0.725349
    O   O26   0.468715  0.945874  0.529415  -0.741489
    O   O27   0.503983  0.558214  0.550060  -0.665918
    O   O28   0.496100  0.557923  0.452020  -0.682492
    O   O29   0.003983  0.058214  0.550060  -0.665892
    O   O30   0.996100  0.057923  0.452020  -0.682523
    O   O31   0.558775  0.502703  0.489897  -0.760712
    O   O32   0.440975  0.501156  0.510046  -0.767906
    O   O33   0.058775  0.002703  0.489897  -0.760546
    O   O34   0.555639  0.968569  0.948775  -0.765135
    O   O35   0.940975  0.001156  0.510046  -0.767994
    O   O36   0.552467  0.500960  0.390299  -0.705257
    O   O37   0.447284  0.502938  0.609650  -0.705576
    O   O38   0.052467  0.000960  0.390299  -0.705214
    O   O39   0.947284  0.002938  0.609650  -0.705884
    O   O40   0.503601  0.446112  0.548062  -0.709140
    O   O41   0.495824  0.445820  0.449835  -0.687271
    O   O42   0.003601  0.946112  0.548062  -0.708882
    O   O43   0.995824  0.945820  0.449835  -0.687187
    O   O44   0.944261  0.531845  0.051724  -0.658662
    O   O45   0.055988  0.533312  0.951222  -0.638798
    O   O46   0.444261  0.031845  0.051724  -0.658654
    O   O47   0.555988  0.033312  0.951222  -0.638811
    O   O48   0.997251  0.468470  0.094291  -0.665337
    Zn  Zn1   0.999842  0.457660  0.000119  1.324456
    Zn  Zn2   0.495901  0.502010  0.434320  1.304025
    Zn  Zn3   0.003852  0.002052  0.565670  1.303783
    Zn  Zn4   0.995901  0.002010  0.434320  1.304047
    Zn  Zn5   0.499842  0.957660  0.000119  1.324451
    Zn  Zn6   0.000024  0.542765  0.000167  1.322009
    Zn  Zn7   0.500024  0.042765  0.000167  1.321975
    Zn  Zn8   0.042684  0.501904  0.457922  1.341006
    Zn  Zn9   0.957710  0.501743  0.541878  1.343846
    Zn  Zn10  0.542684  0.001903  0.457922  1.341017
    Zn  Zn11  0.457710  0.001743  0.541878  1.343216
    Zn  Zn12  0.503852  0.502052  0.565670  1.303965
