# generated using pymatgen
data_ZnH4C15N3O4F3
_symmetry_space_group_name_H-M   'P 1'
_cell_length_a   13.46077400
_cell_length_b   8.54271700
_cell_length_c   15.00879300
_cell_angle_alpha   90.00000000
_cell_angle_beta   90.99756600
_cell_angle_gamma   90.00000000
_symmetry_Int_Tables_number   1
_chemical_formula_structural   ZnH4C15N3O4F3
_chemical_formula_sum   'Zn2 H8 C30 N6 O8 F6'
_cell_volume   1725.62328162
_cell_formula_units_Z   2
loop_
 _symmetry_equiv_pos_site_id
 _symmetry_equiv_pos_as_xyz
  1  'x, y, z'
loop_
 _atom_site_type_symbol
 _atom_site_label
 _atom_site_symmetry_multiplicity
 _atom_site_fract_x
 _atom_site_fract_y
 _atom_site_fract_z
 _atom_site_occupancy
  Zn  Zn1  1  0.88894700  0.50001000  0.50202100  1
  Zn  Zn2  1  0.11019100  0.50001000  0.49548700  1
  H  H1  1  0.03658700  0.00001900  0.56178200  1
  H  H2  1  0.98871100  0.25130500  0.79996800  1
  H  H3  1  0.98870700  0.74871700  0.79996300  1
  H  H4  1  0.00978400  0.25132200  0.19736700  1
  H  H5  1  0.00978400  0.74869300  0.19736300  1
  H  H6  1  0.96384500  0.00000000  0.43589700  1
  H  H7  1  0.41685600  0.50090200  0.64741300  1
  H  H8  1  0.75568700  0.49969000  0.64349400  1
  C  C1  1  0.00799100  0.13959000  0.67474400  1
  C  C2  1  0.00798700  0.86044000  0.67474000  1
  C  C3  1  0.99501200  0.14063900  0.76565900  1
  C  C4  1  0.99500800  0.85938400  0.76565600  1
  C  C5  1  0.99380600  0.00001000  0.81202100  1
  C  C6  1  0.02103600  0.00001600  0.63155700  1
  C  C7  1  0.00428100  0.00000800  0.08775500  1
  C  C8  1  0.99399800  0.00000900  0.90964300  1
  C  C9  1  0.00379400  0.14066900  0.23174300  1
  C  C10  1  0.00379500  0.85934400  0.23174000  1
  C  C11  1  0.99148600  0.13968700  0.32274600  1
  C  C12  1  0.99148500  0.86032200  0.32274300  1
  C  C13  1  0.97891800  0.00000300  0.36603700  1
  C  C14  1  0.00479000  0.00000700  0.18538600  1
  C  C15  1  0.00481700  0.71838200  0.62063900  1
  C  C16  1  0.00482100  0.28165200  0.62064600  1
  C  C17  1  0.99461600  0.71800000  0.37673600  1
  C  C18  1  0.99461900  0.28200600  0.37674300  1
  C  C19  1  0.29311600  0.49995700  0.41899500  1
  C  C20  1  0.28734900  0.50020700  0.57387800  1
  C  C21  1  0.38911800  0.50037000  0.58051900  1
  C  C22  1  0.44710300  0.50008500  0.50470000  1
  C  C23  1  0.39663000  0.49997700  0.42286500  1
  C  C24  1  0.61036900  0.49977700  0.58589000  1
  C  C25  1  0.55225300  0.50000400  0.50729900  1
  C  C26  1  0.60292900  0.50005500  0.42722800  1
  C  C27  1  0.55097300  0.50004200  0.34690200  1
  C  C28  1  0.44923000  0.49995400  0.34474500  1
  C  C29  1  0.71244400  0.49985200  0.58214000  1
  C  C30  1  0.70615000  0.50006600  0.42708700  1
  N  N1  1  0.99682100  0.86386800  0.95467000  1
  N  N2  1  0.99682200  0.13614900  0.95467000  1
  N  N3  1  0.00143900  0.86386800  0.04272700  1
  N  N4  1  0.00143900  0.13614900  0.04272800  1
  N  N5  1  0.24048900  0.50001300  0.49420400  1
  N  N6  1  0.75872300  0.50000900  0.50394600  1
  O  O1  1  0.08814100  0.66940000  0.58646300  1
  O  O2  1  0.08814700  0.33063700  0.58647400  1
  O  O3  1  0.91748000  0.66356400  0.59592800  1
  O  O4  1  0.91748300  0.33646100  0.59593000  1
  O  O5  1  0.91106100  0.66898500  0.41079500  1
  O  O6  1  0.91106300  0.33103400  0.41079600  1
  O  O7  1  0.08212500  0.66310600  0.40138500  1
  O  O8  1  0.08212800  0.33689400  0.40139600  1
  F  F1  1  0.57307100  0.49921100  0.66868800  1
  F  F2  1  0.24352300  0.49988000  0.33965000  1
  F  F3  1  0.23432900  0.50030000  0.64975100  1
  F  F4  1  0.75585600  0.50010700  0.34936500  1
  F  F5  1  0.59880900  0.50005600  0.26819900  1
  F  F6  1  0.40211800  0.49990600  0.26421400  1
