# Generated by REPEAT Assigner based on pymatgen
data_DB0-m2_o3_o15_f0_pcu.sym.23
_audit_creation_date              2022-05-24
_audit_creation_method            REPEAT_Assigner
_cell_length_a                    19.309075
_cell_length_b                    17.909892
_cell_length_c                    10.887515
_cell_angle_alpha                 90.000000
_cell_angle_beta                  90.010132
_cell_angle_gamma                 90.000000
_cell_volume                      3765.157988
_symmetry_space_group_name_H-M    P1
_symmetry_Int_Tables_number       1
loop_
    _symmetry_equiv_pos_site_id
    _symmetry_equiv_pos_as_xyz
    1  x,y,z
loop_
    _atom_site_type_symbol
    _atom_site_label
    _atom_site_fract_x
    _atom_site_fract_y
    _atom_site_fract_z
    _atom_type_partial_charge
    O   O1   0.401650  0.568575  0.499338  -0.609038
    O   O2   0.597442  0.430803  0.507949  -0.618737
    O   O3   0.602704  0.559196  0.504309  -0.621449
    O   O4   0.396303  0.440216  0.511007  -0.620237
    C   C1   0.366761  0.505969  0.505770  0.676818
    C   C2   0.632351  0.493473  0.506498  0.690326
    O   O5   0.505914  0.564146  0.327411  -0.601573
    O   O6   0.495171  0.435058  0.683724  -0.623363
    O   O7   0.503277  0.563220  0.684561  -0.635113
    O   O8   0.493758  0.436508  0.326559  -0.601268
    C   C3   0.499893  0.500397  0.269141  0.901489
    C   C4   0.498982  0.499087  0.741941  0.966677
    Cu  Cu1  0.502583  0.574346  0.506010  0.833547
    Cu  Cu2  0.496445  0.425047  0.504970  0.834863
    H   H1   0.703513  0.373149  0.117399  0.116841
    H   H2   0.290181  0.615970  0.893860  0.101304
    H   H3   0.705951  0.378159  0.892574  0.104002
    H   H4   0.291834  0.620341  0.118611  0.115576
    C   C5   0.389777  0.565476  0.132166  -0.317135
    C   C6   0.609765  0.435930  0.879060  -0.226893
    C   C7   0.387934  0.561513  0.880119  -0.233589
    C   C8   0.607980  0.432249  0.131025  -0.322190
    C   C9   0.334770  0.595614  0.069273  -0.076666
    C   C10  0.662824  0.402091  0.941993  -0.103861
    C   C11  0.333870  0.593335  0.943437  -0.097721
    C   C12  0.661601  0.399569  0.067783  -0.075193
    C   C13  0.444604  0.531979  0.941931  0.249918
    C   C14  0.553249  0.465885  0.069049  0.295259
    C   C15  0.445273  0.533401  0.069542  0.283342
    C   C16  0.553588  0.466539  0.941473  0.240491
    C   C17  0.499010  0.499175  0.877355  -0.532545
    C   C18  0.499737  0.500330  0.133600  -0.495217
    H   H5   0.386954  0.567108  0.230951  0.161194
    H   H6   0.614765  0.438135  0.780601  0.135880
    H   H7   0.383336  0.559731  0.781612  0.134585
    H   H8   0.611026  0.430541  0.229762  0.156532
    C   C19  0.744064  0.450781  0.422037  -0.238085
    C   C20  0.255487  0.550702  0.423051  -0.235445
    C   C21  0.255545  0.470277  0.597530  -0.079996
    C   C22  0.743408  0.529700  0.598188  -0.097232
    H   H9   0.716683  0.420167  0.351793  0.156741
    H   H10  0.282954  0.581623  0.353429  0.159834
    H   H11  0.283377  0.438910  0.666517  0.106643
    H   H12  0.715174  0.560365  0.667600  0.107539
    C   C23  0.815460  0.453566  0.419501  -0.060398
    C   C24  0.184113  0.549173  0.421054  -0.067979
    C   C25  0.184251  0.472490  0.600286  -0.170107
    C   C26  0.814761  0.528488  0.600546  -0.157690
    H   H13  0.842941  0.426272  0.345601  0.085137
    H   H14  0.156793  0.578020  0.348553  0.087644
    H   H15  0.157033  0.442922  0.672082  0.110387
    H   H16  0.841684  0.557937  0.672792  0.108373
    C   C27  0.851461  0.492200  0.509159  0.122349
    C   C28  0.147911  0.509946  0.509729  0.133923
    C   C29  0.707891  0.490554  0.509416  0.024935
    C   C30  0.291295  0.509412  0.509003  0.014492
    C   C31  0.960320  0.565845  0.501705  -0.195636
    C   C32  0.039250  0.436612  0.500867  -0.197391
    C   C33  0.031941  0.570425  0.506826  -0.219860
    C   C34  0.967649  0.431975  0.505922  -0.211711
    C   C35  0.071751  0.505793  0.505894  0.107326
    C   C36  0.927728  0.496619  0.505701  0.108198
    C   C37  0.471721  0.724944  0.591879  -0.096864
    C   C38  0.522903  0.273910  0.594093  -0.096042
    C   C39  0.540718  0.721874  0.415524  -0.051790
    C   C40  0.464428  0.277714  0.406364  -0.046486
    H   H17  0.443456  0.695994  0.662990  0.151917
    H   H18  0.547506  0.302242  0.669963  0.156180
    H   H19  0.568114  0.690451  0.346216  0.137297
    H   H20  0.440945  0.309125  0.332759  0.130084
    C   C41  0.471390  0.801984  0.589673  -0.127953
    C   C42  0.523732  0.196916  0.590323  -0.123062
    C   C43  0.540170  0.798867  0.408997  -0.144207
    C   C44  0.466579  0.200849  0.397791  -0.143143
    H   H21  0.443988  0.832510  0.660252  0.101163
    H   H22  0.547434  0.166131  0.664552  0.098053
    H   H23  0.566589  0.826536  0.334105  0.108549
    H   H24  0.446056  0.173569  0.317105  0.107455
    C   C45  0.505315  0.839788  0.496929  0.154705
    C   C46  0.495352  0.159447  0.491560  0.148147
    N   N1   0.507175  0.685987  0.506789  0.034149
    N   N2   0.491885  0.313340  0.504185  0.029804
    C   C47  0.563467  0.963465  0.496961  -0.212737
    C   C48  0.436672  0.035663  0.479718  -0.222230
    C   C49  0.439768  0.958255  0.477747  -0.200908
    C   C50  0.560784  0.040647  0.489969  -0.186146
    C   C51  0.497416  0.077215  0.486439  0.114576
    C   C52  0.502891  0.921917  0.490526  0.115937
    C   C53  0.919473  0.634971  0.491882  0.770364
    O   O9   0.922338  0.681781  0.573080  -0.537467
    C   C54  0.876257  0.649725  0.380758  -0.502262
    H   H25  0.881711  0.603274  0.314078  0.083141
    H   H26  0.893836  0.702260  0.336833  0.170643
    H   H27  0.821152  0.655656  0.407799  0.135069
    C   C55  0.080230  0.367487  0.490514  0.774199
    O   O10  0.078236  0.320934  0.572225  -0.536818
    C   C56  0.123125  0.352694  0.378964  -0.506284
    H   H28  0.118194  0.399590  0.313058  0.083048
    H   H29  0.104789  0.300682  0.334306  0.170090
    H   H30  0.178212  0.345789  0.405618  0.136591
    C   C57  0.064961  0.644338  0.512105  0.751791
    O   O11  0.059136  0.687477  0.425992  -0.530714
    C   C58  0.103828  0.668188  0.623815  -0.496778
    H   H31  0.101719  0.623643  0.694459  0.089711
    H   H32  0.079975  0.719689  0.661336  0.173617
    H   H33  0.158490  0.679784  0.599143  0.132395
    C   C59  0.934842  0.358015  0.511073  0.744885
    O   O12  0.940899  0.314878  0.425045  -0.530962
    C   C60  0.896908  0.333707  0.623403  -0.496522
    H   H34  0.900222  0.377680  0.694833  0.089963
    H   H35  0.920635  0.281648  0.659120  0.174326
    H   H36  0.841907  0.323003  0.600129  0.131952
    C   C61  0.630763  0.926340  0.512360  0.733692
    O   O13  0.674156  0.929656  0.431094  -0.519792
    C   C62  0.647881  0.887994  0.630232  -0.500177
    H   H37  0.604257  0.894266  0.695646  0.091908
    H   H38  0.694910  0.913703  0.670687  0.182065
    H   H39  0.657729  0.827905  0.613016  0.135723
    C   C63  0.368870  0.072802  0.470438  0.748460
    O   O14  0.333576  0.064439  0.378507  -0.525110
    C   C64  0.341267  0.118466  0.574155  -0.491968
    H   H40  0.377788  0.117040  0.652673  0.091930
    H   H41  0.290707  0.095262  0.603733  0.177246
    H   H42  0.333600  0.176948  0.543547  0.132428
    C   C65  0.375593  0.914997  0.463303  0.764402
    O   O15  0.329788  0.919893  0.539976  -0.532069
    C   C66  0.364528  0.867395  0.352530  -0.511545
    H   H43  0.409676  0.871650  0.290010  0.091609
    H   H44  0.317560  0.886839  0.303370  0.179744
    H   H45  0.357283  0.808496  0.381160  0.132166
    C   C67  0.625564  0.083534  0.483525  0.756951
    O   O16  0.666122  0.082645  0.569378  -0.526945
    C   C68  0.643193  0.126417  0.370180  -0.523397
    H   H46  0.601625  0.119625  0.300790  0.093976
    H   H47  0.692444  0.104943  0.331487  0.183111
    H   H48  0.649218  0.186363  0.393173  0.136321
