# generated using pymatgen
data_ZnH13C19NO5
_symmetry_space_group_name_H-M   'P 1'
_cell_length_a   15.20526000
_cell_length_b   14.03325000
_cell_length_c   10.79347200
_cell_angle_alpha   90.00000000
_cell_angle_beta   90.00615800
_cell_angle_gamma   90.00000000
_symmetry_Int_Tables_number   1
_chemical_formula_structural   ZnH13C19NO5
_chemical_formula_sum   'Zn2 H26 C38 N2 O10'
_cell_volume   2303.10256805
_cell_formula_units_Z   2
loop_
 _symmetry_equiv_pos_site_id
 _symmetry_equiv_pos_as_xyz
  1  'x, y, z'
loop_
 _atom_site_type_symbol
 _atom_site_label
 _atom_site_symmetry_multiplicity
 _atom_site_fract_x
 _atom_site_fract_y
 _atom_site_fract_z
 _atom_site_occupancy
  Zn  Zn1  1  0.50000000  0.60736400  0.50000000  1
  Zn  Zn2  1  0.49999900  0.39034200  0.50000000  1
  H  H1  1  0.42430000  0.64011100  0.07739600  1
  H  H2  1  0.57540600  0.35783800  0.92252300  1
  H  H3  1  0.57570300  0.64010900  0.92260300  1
  H  H4  1  0.42459100  0.35784000  0.07747700  1
  H  H5  1  0.06087600  0.64408000  0.43794400  1
  H  H6  1  0.93838000  0.35353100  0.43978000  1
  H  H7  1  0.93912400  0.64408000  0.56205600  1
  H  H8  1  0.06162000  0.35353100  0.56022000  1
  H  H9  1  0.21968900  0.64457000  0.43998500  1
  H  H10  1  0.77978500  0.35283700  0.44598100  1
  H  H11  1  0.78031100  0.64457000  0.56001500  1
  H  H12  1  0.22021500  0.35283700  0.55402000  1
  H  H13  1  0.43911800  0.06576900  0.32115400  1
  H  H14  1  0.62455200  0.93192000  0.59250600  1
  H  H15  1  0.56088200  0.06576900  0.67884500  1
  H  H16  1  0.37544800  0.93192000  0.40749400  1
  H  H17  1  0.43796400  0.23883400  0.32592100  1
  H  H18  1  0.62111900  0.75883500  0.59392900  1
  H  H19  1  0.56203600  0.23883400  0.67407800  1
  H  H20  1  0.37888100  0.75883500  0.40607100  1
  H  H21  1  0.34221900  0.63806400  0.83831500  1
  H  H22  1  0.23494400  0.61397400  0.90364500  1
  H  H23  1  0.26627800  0.56043200  0.75791900  1
  H  H24  1  0.65778400  0.63806000  0.16168500  1
  H  H25  1  0.76505800  0.61396800  0.09635400  1
  H  H26  1  0.73372400  0.56042600  0.24208000  1
  C  C1  1  0.32786300  0.49879300  0.49702400  1
  C  C2  1  0.67213700  0.49879300  0.50297600  1
  C  C3  1  0.50212600  0.49890800  0.25782200  1
  C  C4  1  0.49787400  0.49890800  0.74217800  1
  C  C5  1  0.45939200  0.57648300  0.04174800  1
  C  C6  1  0.54065000  0.42161400  0.95839400  1
  C  C7  1  0.54061000  0.57648200  0.95825200  1
  C  C8  1  0.45934800  0.42161500  0.04160600  1
  C  C9  1  0.41927800  0.49913300  0.96189600  1
  C  C10  1  0.58072200  0.49913100  0.03810400  1
  C  C11  1  0.49912200  0.49902500  0.88005100  1
  C  C12  1  0.50087900  0.49902500  0.11994900  1
  C  C13  1  0.09472000  0.58002100  0.46626700  1
  C  C14  1  0.90490800  0.41744600  0.46948300  1
  C  C15  1  0.90528000  0.58002100  0.53373300  1
  C  C16  1  0.09509200  0.41744600  0.53051700  1
  C  C17  1  0.18543000  0.58018800  0.46619900  1
  C  C18  1  0.81425500  0.41714300  0.47197900  1
  C  C19  1  0.81457000  0.58018800  0.53380100  1
  C  C20  1  0.18574500  0.41714300  0.52802100  1
  C  C21  1  0.23144900  0.49864400  0.49656300  1
  C  C22  1  0.76855100  0.49864400  0.50343700  1
  C  C23  1  0.04853600  0.49877400  0.49915000  1
  C  C24  1  0.95146400  0.49877400  0.50085000  1
  C  C25  1  0.46520500  0.10186900  0.40154400  1
  C  C26  1  0.56852200  0.89582300  0.55271700  1
  C  C27  1  0.53479500  0.10186900  0.59845600  1
  C  C28  1  0.43147800  0.89582300  0.44728300  1
  C  C29  1  0.46546500  0.20012600  0.40328800  1
  C  C30  1  0.56729400  0.79756600  0.55228000  1
  C  C31  1  0.53453500  0.20012600  0.59671100  1
  C  C32  1  0.43270600  0.79756600  0.44772000  1
  C  C33  1  0.50000000  0.05136400  0.50000000  1
  C  C34  1  0.50000000  0.94632800  0.50000000  1
  C  C35  1  0.32636000  0.49932400  0.91775900  1
  C  C36  1  0.29036500  0.58327500  0.85009100  1
  C  C37  1  0.67364000  0.49932000  0.08224100  1
  C  C38  1  0.70963600  0.58327000  0.14990900  1
  N  N1  1  0.50000000  0.24777100  0.50000000  1
  N  N2  1  0.50000000  0.74993300  0.50000000  1
  O  O1  1  0.36897800  0.58107400  0.49744200  1
  O  O2  1  0.63101400  0.41656400  0.50183000  1
  O  O3  1  0.63102200  0.58107400  0.50255800  1
  O  O4  1  0.36898600  0.41656400  0.49817000  1
  O  O5  1  0.50174900  0.58120100  0.31541800  1
  O  O6  1  0.49865200  0.41658100  0.68460000  1
  O  O7  1  0.49825100  0.58120100  0.68458200  1
  O  O8  1  0.50134900  0.41658100  0.31540000  1
  O  O9  1  0.27883400  0.43147500  0.93990900  1
  O  O10  1  0.72116400  0.43147000  0.06009100  1
