# generated using pymatgen
data_ZnH17C19NO4
_symmetry_space_group_name_H-M   'P 1'
_cell_length_a   14.19748800
_cell_length_b   8.55913400
_cell_length_c   15.05711300
_cell_angle_alpha   90.00000000
_cell_angle_beta   90.95924600
_cell_angle_gamma   90.00000000
_symmetry_Int_Tables_number   1
_chemical_formula_structural   ZnH17C19NO4
_chemical_formula_sum   'Zn2 H34 C38 N2 O8'
_cell_volume   1829.45687953
_cell_formula_units_Z   2
loop_
 _symmetry_equiv_pos_site_id
 _symmetry_equiv_pos_as_xyz
  1  'x, y, z'
loop_
 _atom_site_type_symbol
 _atom_site_label
 _atom_site_symmetry_multiplicity
 _atom_site_fract_x
 _atom_site_fract_y
 _atom_site_fract_z
 _atom_site_occupancy
  Zn  Zn1  1  0.89588200  0.49908900  0.51157900  1
  Zn  Zn2  1  0.10401900  0.50018800  0.48849200  1
  H  H1  1  0.04626600  0.99919400  0.55979100  1
  H  H2  1  0.95369900  0.99994900  0.44032900  1
  H  H3  1  0.00053300  0.24994700  0.79804600  1
  H  H4  1  0.99731900  0.25027300  0.20193300  1
  H  H5  1  0.00237700  0.74903200  0.79819900  1
  H  H6  1  0.99927600  0.74936300  0.20199000  1
  H  H7  1  0.91335700  0.79762600  0.91625100  1
  H  H8  1  0.08631500  0.20177200  0.08385300  1
  H  H9  1  0.91039000  0.79648300  0.07699300  1
  H  H10  1  0.08928600  0.20291700  0.92311400  1
  H  H11  1  0.40439800  0.31569200  0.58489100  1
  H  H12  1  0.59457300  0.31386900  0.41519600  1
  H  H13  1  0.56097400  0.28410400  0.57111000  1
  H  H14  1  0.43777900  0.28473200  0.42899600  1
  H  H15  1  0.58449700  0.50388000  0.36544400  1
  H  H16  1  0.41548100  0.50571300  0.63439900  1
  H  H17  1  0.42597700  0.44349400  0.35120600  1
  H  H18  1  0.57368100  0.44298500  0.64871500  1
  H  H19  1  0.59246800  0.74060600  0.46191700  1
  H  H20  1  0.40876800  0.74204700  0.53770200  1
  H  H21  1  0.53540500  0.93844800  0.74049000  1
  H  H22  1  0.65954300  0.94816200  0.71531800  1
  H  H23  1  0.58399000  0.11355200  0.69277300  1
  H  H24  1  0.62015300  0.96700500  0.55455800  1
  H  H25  1  0.49580300  0.96037100  0.57951900  1
  H  H26  1  0.51975000  0.70142100  0.65187100  1
  H  H27  1  0.64282500  0.71101600  0.62784500  1
  H  H28  1  0.46014400  0.93557900  0.25730600  1
  H  H29  1  0.33798700  0.95430700  0.28835300  1
  H  H30  1  0.41876200  0.11446100  0.30656900  1
  H  H31  1  0.38488000  0.96926200  0.44657600  1
  H  H32  1  0.50803500  0.95961100  0.41719600  1
  H  H33  1  0.48089500  0.70092000  0.34759800  1
  H  H34  1  0.35799400  0.71344500  0.37206600  1
  C  C1  1  0.02350200  0.13898000  0.67382000  1
  C  C2  1  0.97769600  0.13900400  0.32624700  1
  C  C3  1  0.00965900  0.13978700  0.76424000  1
  C  C4  1  0.99173400  0.13962700  0.23585700  1
  C  C5  1  0.00621400  0.99983600  0.81054300  1
  C  C6  1  0.99353600  0.99947900  0.18955100  1
  C  C7  1  0.00802400  0.85965500  0.76426000  1
  C  C8  1  0.99016100  0.85949900  0.23582500  1
  C  C9  1  0.02217600  0.86021300  0.67388100  1
  C  C10  1  0.97638200  0.86024800  0.32625100  1
  C  C11  1  0.03478700  0.99941700  0.63028700  1
  C  C12  1  0.96512600  0.99977500  0.36982500  1
  C  C13  1  0.95285200  0.88556000  0.95233400  1
  C  C14  1  0.04681400  0.11384700  0.04776800  1
  C  C15  1  0.95140100  0.88464900  0.04388700  1
  C  C16  1  0.04826600  0.11475700  0.95621400  1
  C  C17  1  0.99838100  0.99866100  0.09223000  1
  C  C18  1  0.00130500  0.00072300  0.90786800  1
  C  C19  1  0.01546700  0.71795300  0.62060300  1
  C  C20  1  0.98356200  0.71816500  0.37966600  1
  C  C21  1  0.98443200  0.28124000  0.37953100  1
  C  C22  1  0.01632800  0.28103400  0.62036100  1
  C  C23  1  0.54487400  0.40902800  0.58261900  1
  C  C24  1  0.45459400  0.40935300  0.41733900  1
  C  C25  1  0.56055200  0.42998000  0.42105200  1
  C  C26  1  0.43904300  0.43125600  0.57887900  1
  C  C27  1  0.58856600  0.50415400  0.50910900  1
  C  C28  1  0.41139000  0.50544200  0.49072100  1
  C  C29  1  0.44782200  0.67330500  0.48804300  1
  C  C30  1  0.55301800  0.67252600  0.51158800  1
  C  C31  1  0.30845900  0.50303600  0.48243400  1
  C  C32  1  0.69145800  0.50072200  0.51748700  1
  C  C33  1  0.57152900  0.74405300  0.60346900  1
  C  C34  1  0.56694700  0.92118500  0.60094500  1
  C  C35  1  0.58785200  0.98432800  0.69335300  1
  C  C36  1  0.42965300  0.74496600  0.39612000  1
  C  C37  1  0.43576400  0.92204400  0.39837600  1
  C  C38  1  0.41157700  0.98561200  0.30672500  1
  N  N1  1  0.22699700  0.50131900  0.47848800  1
  N  N2  1  0.77290600  0.49878400  0.52156500  1
  O  O1  1  0.09147600  0.66904000  0.58081800  1
  O  O2  1  0.90772800  0.66837600  0.41941000  1
  O  O3  1  0.93106500  0.66228800  0.60283300  1
  O  O4  1  0.06815500  0.66329300  0.39741200  1
  O  O5  1  0.90840400  0.33021900  0.41926300  1
  O  O6  1  0.09219700  0.33088200  0.58065900  1
  O  O7  1  0.06884400  0.33696000  0.39724900  1
  O  O8  1  0.93172400  0.33595900  0.60265500  1
