# generated using pymatgen
data_ZnH7C23N(ClO2)2
_symmetry_space_group_name_H-M   'P 1'
_cell_length_a   8.55534200
_cell_length_b   11.12683600
_cell_length_c   17.46929600
_cell_angle_alpha   90.55166400
_cell_angle_beta   92.64590500
_cell_angle_gamma   80.64776400
_symmetry_Int_Tables_number   1
_chemical_formula_structural   ZnH7C23N(ClO2)2
_chemical_formula_sum   'Zn2 H14 C46 N2 Cl4 O8'
_cell_volume   1639.11281776
_cell_formula_units_Z   2
loop_
 _symmetry_equiv_pos_site_id
 _symmetry_equiv_pos_as_xyz
  1  'x, y, z'
loop_
 _atom_site_type_symbol
 _atom_site_label
 _atom_site_symmetry_multiplicity
 _atom_site_fract_x
 _atom_site_fract_y
 _atom_site_fract_z
 _atom_site_occupancy
  Zn  Zn1  1  0.49559000  0.48894400  0.91489300  1
  Zn  Zn2  1  0.50441000  0.51105700  0.08510700  1
  H  H1  1  0.00280100  0.58288400  0.97119600  1
  H  H2  1  0.99719900  0.41711600  0.02880400  1
  H  H3  1  0.65187300  0.89120500  0.00619100  1
  H  H4  1  0.34812800  0.10879600  0.99380900  1
  H  H5  1  0.28305300  0.91233300  0.99309200  1
  H  H6  1  0.71694800  0.08766700  0.00690800  1
  H  H7  1  0.46015800  0.67046300  0.81149000  1
  H  H8  1  0.53984300  0.32953700  0.18851000  1
  H  H9  1  0.44131000  0.78628700  0.69834500  1
  H  H10  1  0.55869100  0.21371400  0.30165500  1
  H  H11  1  0.42587100  0.90424100  0.58491700  1
  H  H12  1  0.57412900  0.09575900  0.41508300  1
  H  H13  1  0.43184300  0.91879300  0.44781100  1
  H  H14  1  0.56815800  0.08120800  0.55218900  1
  C  C1  1  0.09163400  0.74759200  0.98828000  1
  C  C2  1  0.90836600  0.25240800  0.01172000  1
  C  C3  1  0.97239700  0.67894300  0.98101500  1
  C  C4  1  0.02760400  0.32105700  0.01898500  1
  C  C5  1  0.81724700  0.73002500  0.99074100  1
  C  C6  1  0.18275400  0.26997600  0.00925900  1
  C  C7  1  0.77499800  0.85260000  0.99997300  1
  C  C8  1  0.22500200  0.14740100  0.00002700  1
  C  C9  1  0.88892100  0.92555200  0.99912700  1
  C  C10  1  0.11108000  0.07444800  0.00087300  1
  C  C11  1  0.04806300  0.87378700  0.99543200  1
  C  C12  1  0.95193800  0.12621300  0.00456800  1
  C  C13  1  0.84113500  0.05015100  0.00342200  1
  C  C14  1  0.15886500  0.94984900  0.99657800  1
  C  C15  1  0.30185900  0.34708700  0.00542900  1
  C  C16  1  0.69814200  0.65291400  0.99457100  1
  C  C17  1  0.25571900  0.67796000  0.99196200  1
  C  C18  1  0.74428100  0.32204000  0.00803800  1
  C  C19  1  0.47272200  0.58713500  0.77845000  1
  C  C20  1  0.52727900  0.41286600  0.22155000  1
  C  C21  1  0.50636400  0.37385300  0.77511300  1
  C  C22  1  0.49363600  0.62614700  0.22488700  1
  C  C23  1  0.45648600  0.70361700  0.66459000  1
  C  C24  1  0.54351500  0.29638300  0.33541000  1
  C  C25  1  0.47348700  0.59213300  0.70013000  1
  C  C26  1  0.52651300  0.40786800  0.29987000  1
  C  C27  1  0.49273200  0.48629400  0.65783000  1
  C  C28  1  0.50726800  0.51370600  0.34217000  1
  C  C29  1  0.50912100  0.37497900  0.69490000  1
  C  C30  1  0.49087900  0.62502100  0.30510000  1
  C  C31  1  0.52899800  0.26873900  0.65085900  1
  C  C32  1  0.47100200  0.73126100  0.34914100  1
  C  C33  1  0.44233300  0.82170500  0.55106400  1
  C  C34  1  0.55766800  0.17829500  0.44893600  1
  C  C35  1  0.45939900  0.70997400  0.58616100  1
  C  C36  1  0.54060100  0.29002600  0.41383900  1
  C  C37  1  0.47967700  0.60488900  0.54302100  1
  C  C38  1  0.52032400  0.39511100  0.45697900  1
  C  C39  1  0.44599700  0.82918300  0.47268200  1
  C  C40  1  0.55400300  0.17081700  0.52731800  1
  C  C41  1  0.46699400  0.72418100  0.42843400  1
  C  C42  1  0.53300600  0.27581900  0.57156600  1
  C  C43  1  0.49610700  0.49287500  0.57892300  1
  C  C44  1  0.50389400  0.50712600  0.42107700  1
  C  C45  1  0.51645800  0.38788000  0.53586200  1
  C  C46  1  0.48354200  0.61212100  0.46413800  1
  N  N1  1  0.48977600  0.47955500  0.81455800  1
  N  N2  1  0.51022500  0.52044600  0.18544200  1
  Cl  Cl1  1  0.55015700  0.12406900  0.69310700  1
  Cl  Cl2  1  0.44984400  0.87593100  0.30689300  1
  Cl  Cl3  1  0.52573000  0.23926400  0.82854200  1
  Cl  Cl4  1  0.47427100  0.76073600  0.17145800  1
  O  O1  1  0.34956100  0.39398300  0.06934800  1
  O  O2  1  0.65044000  0.60601700  0.93065200  1
  O  O3  1  0.34944600  0.37050900  0.93782000  1
  O  O4  1  0.65055400  0.62949100  0.06218000  1
  O  O5  1  0.30944300  0.62289900  0.92900100  1
  O  O6  1  0.69055800  0.37710200  0.07099900  1
  O  O7  1  0.32103800  0.64556300  0.06014000  1
  O  O8  1  0.67896300  0.35443800  0.93986000  1
