data_DB0-m2_o11_o25_f0_pcu.sym.17_repeat
_audit_creation_date              2024-02-23
_audit_creation_method            'Materials Studio'
_symmetry_space_group_name_H-M    'P1'
_symmetry_Int_Tables_number       1
_symmetry_cell_setting            triclinic
loop_
_symmetry_equiv_pos_as_xyz
  x,y,z
_cell_length_a                    15.9241
_cell_length_b                    11.0621
_cell_length_c                    9.5293
_cell_angle_alpha                 90.0207
_cell_angle_beta                  90.0173
_cell_angle_gamma                 90.0035
loop_
_atom_site_label
_atom_site_type_symbol
_atom_site_fract_x
_atom_site_fract_y
_atom_site_fract_z
_atom_site_U_iso_or_equiv
_atom_site_adp_type
_atom_site_occupancy
O1     O     0.49964   0.32531   0.62280   0.00000  Uiso   1.00
O2     O     0.49912   0.32171   0.38075   0.00000  Uiso   1.00
C1     C     0.49804   0.26715   0.50290   0.00000  Uiso   1.00
O3     O     0.37465   0.50372   0.61349   0.00000  Uiso   1.00
O4     O     0.37825   0.49372   0.37163   0.00000  Uiso   1.00
C2     C     0.33729   0.49941   0.49166   0.00000  Uiso   1.00
Cu1    Cu    0.49617   0.50186   0.63827   0.00000  Uiso   1.00
Cu2    Cu    0.50076   0.49585   0.35709   0.00000  Uiso   1.00
O5     O     0.49798   0.67651   0.61398   0.00000  Uiso   1.00
O6     O     0.49925   0.67304   0.37392   0.00000  Uiso   1.00
O7     O     0.61859   0.50624   0.62378   0.00000  Uiso   1.00
O8     O     0.62228   0.49366   0.38279   0.00000  Uiso   1.00
C3     C     0.49731   0.73199   0.49294   0.00000  Uiso   1.00
C4     C     0.65946   0.50071   0.50449   0.00000  Uiso   1.00
C5     C     0.97197   0.40292   0.57011   0.00000  Uiso   1.00
C6     C     0.02544   0.40467   0.43913   0.00000  Uiso   1.00
H1     H     0.94762   0.32105   0.62385   0.00000  Uiso   1.00
H2     H     0.94465   0.48577   0.25831   0.00000  Uiso   1.00
C7     C     0.24690   0.49995   0.49168   0.00000  Uiso   1.00
C8     C     0.74935   0.50027   0.50553   0.00000  Uiso   1.00
C9     C     0.02665   0.50451   0.63038   0.00000  Uiso   1.00
C10    C     0.07941   0.50345   0.49735   0.00000  Uiso   1.00
C11    C     0.97093   0.59527   0.55759   0.00000  Uiso   1.00
C12    C     0.91686   0.49679   0.49963   0.00000  Uiso   1.00
C13    C     0.02407   0.59709   0.42633   0.00000  Uiso   1.00
C14    C     0.96935   0.49525   0.36660   0.00000  Uiso   1.00
C15    C     0.17113   0.50117   0.49323   0.00000  Uiso   1.00
C16    C     0.82495   0.49889   0.50406   0.00000  Uiso   1.00
H3     H     0.04523   0.68000   0.37075   0.00000  Uiso   1.00
H4     H     0.04699   0.51316   0.74136   0.00000  Uiso   1.00
C17    C     0.50383   0.93566   0.38231   0.00000  Uiso   1.00
C18    C     0.49564   0.86536   0.49642   0.00000  Uiso   1.00
H5     H     0.48803   0.90455   0.59871   0.00000  Uiso   1.00
C19    C     0.50157   0.06991   0.38768   0.00000  Uiso   1.00
C20    C     0.49851   0.13478   0.50636   0.00000  Uiso   1.00
H6     H     0.50290   0.11667   0.28723   0.00000  Uiso   1.00
H7     H     0.49829   0.09300   0.60879   0.00000  Uiso   1.00
C21    C     0.45736   0.42115   0.92054   0.00000  Uiso   1.00
N1     N     0.49234   0.50487   0.84797   0.00000  Uiso   1.00
H8     H     0.43011   0.34258   0.86942   0.00000  Uiso   1.00
H9     H     0.50143   0.58539   0.89939   0.00000  Uiso   1.00
C22    C     0.45006   0.43301   0.07420   0.00000  Uiso   1.00
N2     N     0.50366   0.49539   0.14692   0.00000  Uiso   1.00
H10    H     0.39891   0.38579   0.12500   0.00000  Uiso   1.00
H11    H     0.55703   0.52459   0.09589   0.00000  Uiso   1.00
O9     O     0.05831   0.30204   0.37461   0.00000  Uiso   1.00
H12    H     0.00832   0.25439   0.34713   0.00000  Uiso   1.00
O10    O     0.93894   0.69855   0.62238   0.00000  Uiso   1.00
H13    H     0.98916   0.74532   0.65095   0.00000  Uiso   1.00
O11    O     0.51054   0.88267   0.25327   0.00000  Uiso   1.00
H14    H     0.57167   0.87678   0.23608   0.00000  Uiso   1.00
