# Generated by REPEAT Assigner based on pymatgen
data_DB0-m3_o8_o24_f0_pcu.sym.25_sqe
_audit_creation_date              2022-05-24
_audit_creation_method            REPEAT_Assigner
_cell_length_a                    10.780413
_cell_length_b                    15.995413
_cell_length_c                    17.154260
_cell_angle_alpha                 89.117836
_cell_angle_beta                  90.005854
_cell_angle_gamma                 92.771306
_cell_volume                      2954.221644
_symmetry_space_group_name_H-M    P1
_symmetry_Int_Tables_number       1
loop_
    _symmetry_equiv_pos_site_id
    _symmetry_equiv_pos_as_xyz
    1  x,y,z
loop_
    _atom_site_type_symbol
    _atom_site_label
    _atom_site_fract_x
    _atom_site_fract_y
    _atom_site_fract_z
    _atom_type_partial_charge
    O   O1   0.492030  0.423651  0.610932  -0.698639
    O   O2   0.507757  0.578792  0.382208  -0.704441
    O   O3   0.503169  0.567778  0.614405  -0.651117
    O   O4   0.497243  0.434576  0.378725  -0.615767
    C   C1   0.496404  0.494131  0.649397  0.855943
    C   C2   0.503769  0.508295  0.343786  0.835450
    O   O5   0.679325  0.428812  0.496179  -0.651809
    O   O6   0.320690  0.573429  0.497214  -0.652947
    O   O7   0.690305  0.573276  0.499559  -0.671887
    O   O8   0.309728  0.429062  0.493444  -0.678731
    C   C3   0.742412  0.500874  0.498168  0.653066
    C   C4   0.257585  0.501394  0.495011  0.651980
    Zn  Zn1  0.492888  0.406018  0.494210  1.037475
    Zn  Zn2  0.507129  0.596338  0.498930  1.052268
    C   C5   0.954337  0.421901  0.495042  -0.053922
    C   C6   0.045633  0.580210  0.498250  -0.064634
    C   C7   0.038400  0.460894  0.556419  0.460843
    C   C8   0.961601  0.541235  0.436861  0.457548
    H   H1   0.915324  0.356445  0.496008  0.036860
    H   H2   0.084850  0.645569  0.497441  0.018256
    C   C9   0.119698  0.501886  0.494593  0.001170
    C   C10  0.880285  0.500263  0.498683  0.002549
    C   C11  0.036484  0.463931  0.431622  -0.249374
    C   C12  0.963499  0.538190  0.561663  -0.278047
    H   H3   0.069667  0.433929  0.378142  0.086549
    H   H4   0.930310  0.568208  0.615133  0.093205
    C   C13  0.496074  0.489598  0.735268  -0.384487
    C   C14  0.504351  0.512918  0.257972  -0.374634
    C   C15  0.476363  0.559235  0.780480  0.493145
    C   C16  0.529472  0.444200  0.212861  0.420561
    C   C17  0.482455  0.553205  0.860879  -0.410501
    C   C18  0.523542  0.450013  0.132446  -0.377805
    C   C19  0.504089  0.477211  0.897201  0.495137
    C   C20  0.496807  0.525089  0.096084  0.490866
    C   C21  0.520447  0.408042  0.852228  -0.397438
    C   C22  0.475647  0.593569  0.141006  -0.408852
    C   C23  0.516761  0.414008  0.772087  0.084171
    C   C24  0.479008  0.587700  0.221150  0.111705
    N   N1   0.509901  0.468119  0.979328  -0.209770
    N   N2   0.490917  0.534055  0.013954  -0.221598
    H   H5   0.541066  0.394420  0.099963  0.109282
    H   H6   0.469729  0.609512  0.893386  0.124679
    H   H7   0.537408  0.348601  0.880085  0.129231
    H   H8   0.454915  0.652313  0.113092  0.139839
    H   H9   0.532173  0.358694  0.738795  0.095563
    H   H10  0.459532  0.642347  0.254439  0.099014
    N   N3   0.516036  0.721406  0.502380  0.075865
    N   N4   0.483814  0.280964  0.490862  0.066119
    C   C25  0.422360  0.764567  0.472753  -0.256633
    C   C26  0.538108  0.236206  0.547293  -0.218328
    C   C27  0.422138  0.850721  0.478628  0.379057
    C   C28  0.530050  0.149623  0.547337  0.258717
    C   C29  0.523745  0.893665  0.512785  0.021375
    C   C30  0.470872  0.108522  0.485390  0.010523
    C   C31  0.617913  0.847517  0.543247  0.331243
    C   C32  0.415965  0.156186  0.428476  0.327110
    C   C33  0.613016  0.761511  0.537179  -0.335104
    C   C34  0.421772  0.242319  0.432576  -0.268827
    N   N5   0.535518  0.982169  0.519184  -0.122754
    N   N6   0.460868  0.020162  0.478193  -0.001031
    H   H11  0.586324  0.268201  0.594243  0.181542
    H   H12  0.344678  0.731502  0.445318  0.196098
    H   H13  0.687702  0.726190  0.560719  0.229485
    H   H14  0.376595  0.278957  0.388427  0.192505
    O   O9   0.089934  0.417253  0.618980  -0.481410
    C   C35  0.996721  0.404701  0.675255  0.482137
    H   H15  0.905877  0.388817  0.647633  -0.092185
    H   H16  0.990771  0.461667  0.710842  -0.068175
    C   C36  0.028989  0.332542  0.728450  -0.302639
    H   H17  0.119484  0.347315  0.757075  0.084659
    H   H18  0.955810  0.322468  0.773512  0.047212
    H   H19  0.035310  0.274989  0.693727  0.071372
    O   O10  0.910097  0.584890  0.374298  -0.466264
    C   C37  0.003357  0.597494  0.318061  0.444434
    H   H20  0.009315  0.540567  0.282420  -0.064227
    H   H21  0.094186  0.613331  0.345721  -0.083776
    C   C38  0.971157  0.669723  0.264932  -0.286975
    H   H22  0.964858  0.727237  0.299713  0.062216
    H   H23  0.044363  0.679829  0.219891  0.053584
    H   H24  0.880668  0.655009  0.236278  0.081758
    O   O11  0.719603  0.887596  0.576174  -0.361367
    C   C39  0.699758  0.882626  0.656662  0.277050
    H   H25  0.716149  0.818522  0.678591  -0.006880
    H   H26  0.603430  0.898781  0.670464  -0.012404
    C   C40  0.789618  0.943694  0.696661  -0.186705
    H   H27  0.776040  0.007959  0.674206  0.047857
    H   H28  0.772703  0.941103  0.760440  0.046814
    H   H29  0.886196  0.926686  0.684612  0.062406
    O   O12  0.351706  0.117606  0.369181  -0.394901
    C   C41  0.433085  0.120101  0.305719  0.412381
    H   H30  0.530488  0.119065  0.326330  -0.020766
    H   H31  0.420536  0.177808  0.270499  -0.025861
    C   C42  0.405399  0.044452  0.255504  -0.376969
    H   H32  0.308166  0.044949  0.234451  0.113447
    H   H33  0.469528  0.046452  0.204892  0.086979
    H   H34  0.418230  0.986548  0.290356  0.093188
    O   O13  0.559292  0.369691  0.246689  -0.358391
    C   C43  0.688804  0.368725  0.242921  0.368757
    H   H35  0.730804  0.431622  0.255907  -0.021909
    H   H36  0.717889  0.349700  0.184039  -0.045332
    C   C44  0.734387  0.306303  0.302309  -0.265148
    H   H37  0.694486  0.242951  0.288988  0.038282
    H   H38  0.837165  0.306077  0.299819  0.066078
    H   H39  0.705180  0.324019  0.361507  0.071117
    O   O14  0.452618  0.634988  0.746798  -0.404781
    C   C45  0.324055  0.641595  0.752265  0.322737
    H   H40  0.299413  0.664080  0.810839  -0.038961
    H   H41  0.275905  0.579928  0.741914  -0.022784
    C   C46  0.282094  0.703846  0.691567  -0.160479
    H   H42  0.304252  0.681608  0.632548  0.079520
    H   H43  0.180421  0.710088  0.696664  0.032676
    H   H44  0.330638  0.765555  0.701095  0.030832
    O   O15  0.580475  0.107439  0.608877  -0.387956
    C   C47  0.486334  0.098438  0.664947  0.505517
    H   H45  0.456828  0.031346  0.671683  -0.057176
    H   H46  0.404836  0.133885  0.647156  -0.065377
    C   C48  0.534605  0.130675  0.742324  -0.394520
    H   H47  0.565040  0.197616  0.735967  0.118170
    H   H48  0.459752  0.123802  0.786630  0.081662
    H   H49  0.614366  0.094119  0.761253  0.110515
    O   O16  0.322003  0.890615  0.449377  -0.467441
    C   C49  0.235263  0.890694  0.510048  0.548952
    H   H50  0.230867  0.954866  0.533101  -0.079516
    H   H51  0.261598  0.847949  0.558082  -0.120851
    C   C50  0.108547  0.862637  0.479369  -0.404162
    H   H52  0.112769  0.799246  0.454598  0.126827
    H   H53  0.040044  0.861205  0.527654  0.098874
    H   H54  0.079947  0.907064  0.433246  0.111361
