data_DB0-m29_o96_o1530_f0_pts.sym.102_repeat
_audit_creation_date              2024-02-24
_audit_creation_method            'Materials Studio'
_symmetry_space_group_name_H-M    'P1'
_symmetry_Int_Tables_number       1
_symmetry_cell_setting            triclinic
loop_
_symmetry_equiv_pos_as_xyz
  x,y,z
_cell_length_a                    17.2643
_cell_length_b                    14.2148
_cell_length_c                    19.0398
_cell_angle_alpha                 84.3145
_cell_angle_beta                  90.6132
_cell_angle_gamma                 115.9762
loop_
_atom_site_label
_atom_site_type_symbol
_atom_site_fract_x
_atom_site_fract_y
_atom_site_fract_z
_atom_site_U_iso_or_equiv
_atom_site_adp_type
_atom_site_occupancy
C1     C     0.20593   0.97928   0.11211   0.00000  Uiso   1.00
C2     C     0.14599   0.94510   0.16603   0.00000  Uiso   1.00
C3     C     0.07188   0.94579   0.13898   0.00000  Uiso   1.00
N1     N     0.08386   0.97605   0.06884   0.00000  Uiso   1.00
C4     C     0.16601   0.99589   0.05213   0.00000  Uiso   1.00
C5     C     0.00147   0.92720   0.17767   0.00000  Uiso   1.00
C6     C     0.92786   0.94423   0.15073   0.00000  Uiso   1.00
C7     C     0.87418   0.96757   0.19139   0.00000  Uiso   1.00
C8     C     0.81332   0.97576   0.14880   0.00000  Uiso   1.00
C9     C     0.83117   0.95786   0.08198   0.00000  Uiso   1.00
N2     N     0.90069   0.93717   0.08391   0.00000  Uiso   1.00
C10    C     0.78247   0.96177   0.01872   0.00000  Uiso   1.00
C11    C     0.81772   0.98743   0.95330   0.00000  Uiso   1.00
C12    C     0.77777   0.00370   0.89325   0.00000  Uiso   1.00
C13    C     0.83785   0.03808   0.83946   0.00000  Uiso   1.00
C14    C     0.91202   0.03799   0.86663   0.00000  Uiso   1.00
N3     N     0.90001   0.00772   0.93674   0.00000  Uiso   1.00
C15    C     0.98262   0.05746   0.82801   0.00000  Uiso   1.00
C16    C     0.05628   0.04070   0.85480   0.00000  Uiso   1.00
C17    C     0.11013   0.01825   0.81381   0.00000  Uiso   1.00
C18    C     0.17115   0.01006   0.85616   0.00000  Uiso   1.00
C19    C     0.15298   0.02673   0.92331   0.00000  Uiso   1.00
N4     N     0.08326   0.04698   0.92167   0.00000  Uiso   1.00
C20    C     0.20132   0.02176   0.98665   0.00000  Uiso   1.00
H1     H     0.00147   0.90847   0.23405   0.00000  Uiso   1.00
H2     H     0.71770   0.95333   0.02663   0.00000  Uiso   1.00
H3     H     0.98276   0.07666   0.77168   0.00000  Uiso   1.00
H4     H     0.26599   0.02987   0.97871   0.00000  Uiso   1.00
H5     H     0.92548   0.91344   0.04321   0.00000  Uiso   1.00
H6     H     0.05816   0.06991   0.96260   0.00000  Uiso   1.00
C21    C     0.10785   0.00318   0.74362   0.00000  Uiso   1.00
C22    C     0.17126   0.98153   0.71609   0.00000  Uiso   1.00
C23    C     0.23582   0.97547   0.75826   0.00000  Uiso   1.00
C24    C     0.23555   0.98878   0.82985   0.00000  Uiso   1.00
C25    C     0.28963   0.99502   0.12319   0.00000  Uiso   1.00
C26    C     0.30985   0.97101   0.19120   0.00000  Uiso   1.00
C27    C     0.24663   0.93053   0.24531   0.00000  Uiso   1.00
C28    C     0.16420   0.91885   0.23338   0.00000  Uiso   1.00
C29    C     0.87621   0.98318   0.26146   0.00000  Uiso   1.00
C30    C     0.81288   0.00549   0.28849   0.00000  Uiso   1.00
C31    C     0.74877   0.01215   0.24592   0.00000  Uiso   1.00
C32    C     0.74928   0.99823   0.17449   0.00000  Uiso   1.00
C33    C     0.69415   0.98827   0.88207   0.00000  Uiso   1.00
C34    C     0.67433   0.01265   0.81402   0.00000  Uiso   1.00
C35    C     0.73765   0.05266   0.75997   0.00000  Uiso   1.00
C36    C     0.81991   0.06419   0.77205   0.00000  Uiso   1.00
H7     H     0.05860   0.00818   0.71016   0.00000  Uiso   1.00
H8     H     0.28478   0.98412   0.86350   0.00000  Uiso   1.00
H9     H     0.33853   0.02667   0.08114   0.00000  Uiso   1.00
H10    H     0.26214   0.91270   0.29857   0.00000  Uiso   1.00
H11    H     0.11681   0.89054   0.27649   0.00000  Uiso   1.00
H12    H     0.92519   0.97798   0.29519   0.00000  Uiso   1.00
H13    H     0.70030   0.00300   0.14056   0.00000  Uiso   1.00
H14    H     0.64523   0.95723   0.92410   0.00000  Uiso   1.00
H15    H     0.72257   0.07083   0.70664   0.00000  Uiso   1.00
H16    H     0.86737   0.09256   0.72900   0.00000  Uiso   1.00
H17    H     0.17043   0.97127   0.66058   0.00000  Uiso   1.00
H18    H     0.81364   0.01631   0.34389   0.00000  Uiso   1.00
O1     O     0.61379   0.02825   0.24326   0.00000  Uiso   1.00
C37    C     0.67906   0.02750   0.27917   0.00000  Uiso   1.00
O2     O     0.48820   0.80430   0.33751   0.00000  Uiso   1.00
O3     O     0.67764   0.03053   0.34776   0.00000  Uiso   1.00
O4     O     0.50174   0.93422   0.40434   0.00000  Uiso   1.00
C38    C     0.48597   0.83613   0.39953   0.00000  Uiso   1.00
Fe1    Fe    0.52384   0.01827   0.31118   0.00000  Uiso   1.00
O5     O     0.40960   0.94439   0.26707   0.00000  Uiso   1.00
O6     O     0.46307   0.07891   0.17889   0.00000  Uiso   1.00
C39    C     0.39838   0.99482   0.20948   0.00000  Uiso   1.00
O7     O     0.56637   0.16894   0.33023   0.00000  Uiso   1.00
O8     O     0.42256   0.11228   0.34305   0.00000  Uiso   1.00
C40    C     0.50085   0.18407   0.35196   0.00000  Uiso   1.00
C41    C     0.48648   0.61755   0.52709   0.00000  Uiso   1.00
C42    C     0.48328   0.65776   0.59045   0.00000  Uiso   1.00
C43    C     0.49334   0.60833   0.65348   0.00000  Uiso   1.00
C44    C     0.50708   0.52016   0.65474   0.00000  Uiso   1.00
C45    C     0.50580   0.47570   0.59269   0.00000  Uiso   1.00
C46    C     0.49567   0.52342   0.52855   0.00000  Uiso   1.00
C47    C     0.51337   0.38237   0.59533   0.00000  Uiso   1.00
C48    C     0.50655   0.33097   0.53571   0.00000  Uiso   1.00
C49    C     0.50186   0.38099   0.47055   0.00000  Uiso   1.00
C50    C     0.49585   0.47573   0.46775   0.00000  Uiso   1.00
C51    C     0.50536   0.23134   0.53942   0.00000  Uiso   1.00
C52    C     0.51264   0.19261   0.47739   0.00000  Uiso   1.00
C53    C     0.51217   0.24379   0.41275   0.00000  Uiso   1.00
C54    C     0.50288   0.33570   0.40860   0.00000  Uiso   1.00
C55    C     0.48335   0.67501   0.46406   0.00000  Uiso   1.00
C56    C     0.47540   0.76718   0.46466   0.00000  Uiso   1.00
C57    C     0.46583   0.80080   0.52759   0.00000  Uiso   1.00
C58    C     0.47091   0.74822   0.59036   0.00000  Uiso   1.00
H19    H     0.49156   0.63809   0.70315   0.00000  Uiso   1.00
H20    H     0.51213   0.11637   0.47773   0.00000  Uiso   1.00
H21    H     0.49021   0.51029   0.41681   0.00000  Uiso   1.00
H22    H     0.52795   0.35184   0.64471   0.00000  Uiso   1.00
H23    H     0.49203   0.65458   0.41303   0.00000  Uiso   1.00
H24    H     0.46115   0.87398   0.52868   0.00000  Uiso   1.00
O9     O     0.57771   0.04412   0.73780   0.00000  Uiso   1.00
O10    O     0.52026   0.90945   0.82572   0.00000  Uiso   1.00
C59    C     0.58655   0.99197   0.79548   0.00000  Uiso   1.00
O11    O     0.41702   0.82891   0.66825   0.00000  Uiso   1.00
O12    O     0.55852   0.86637   0.66919   0.00000  Uiso   1.00
C60    C     0.47982   0.80473   0.65253   0.00000  Uiso   1.00
O13    O     0.45955   0.17308   0.66381   0.00000  Uiso   1.00
O14    O     0.37433   0.96938   0.75919   0.00000  Uiso   1.00
C61    C     0.30574   0.96115   0.72460   0.00000  Uiso   1.00
O15    O     0.49108   0.06804   0.60011   0.00000  Uiso   1.00
C62    C     0.48889   0.15830   0.60471   0.00000  Uiso   1.00
O16    O     0.30446   0.95206   0.65663   0.00000  Uiso   1.00
Fe2    Fe    0.46407   0.97839   0.69133   0.00000  Uiso   1.00
N5     N     0.51722   0.47297   0.72080   0.00000  Uiso   1.00
C63    C     0.60014   0.50767   0.73918   0.00000  Uiso   1.00
O17    O     0.65820   0.54814   0.69413   0.00000  Uiso   1.00
C64    C     0.62102   0.49683   0.81477   0.00000  Uiso   1.00
H25    H     0.47659   0.46848   0.76148   0.00000  Uiso   1.00
H26    H     0.59001   0.41256   0.83583   0.00000  Uiso   1.00
H27    H     0.59705   0.54155   0.84564   0.00000  Uiso   1.00
H28    H     0.69189   0.52841   0.81920   0.00000  Uiso   1.00
N6     N     0.49170   0.37940   0.34148   0.00000  Uiso   1.00
C65    C     0.56558   0.44513   0.30539   0.00000  Uiso   1.00
O18    O     0.63378   0.44506   0.32262   0.00000  Uiso   1.00
C66    C     0.56403   0.51862   0.24454   0.00000  Uiso   1.00
H29    H     0.44076   0.39825   0.33471   0.00000  Uiso   1.00
H30    H     0.53930   0.57241   0.26284   0.00000  Uiso   1.00
H31    H     0.52156   0.47292   0.20386   0.00000  Uiso   1.00
H32    H     0.63029   0.56542   0.22151   0.00000  Uiso   1.00
