# generated using pymatgen
data_Cd2H8C18O8F
_symmetry_space_group_name_H-M   'P 1'
_cell_length_a   12.61668900
_cell_length_b   12.73342600
_cell_length_c   12.51732400
_cell_angle_alpha   96.95823400
_cell_angle_beta   116.51349800
_cell_angle_gamma   116.02961600
_symmetry_Int_Tables_number   1
_chemical_formula_structural   Cd2H8C18O8F
_chemical_formula_sum   'Cd4 H16 C36 O16 F2'
_cell_volume   1485.93228984
_cell_formula_units_Z   2
loop_
 _symmetry_equiv_pos_site_id
 _symmetry_equiv_pos_as_xyz
  1  'x, y, z'
loop_
 _atom_site_type_symbol
 _atom_site_label
 _atom_site_symmetry_multiplicity
 _atom_site_fract_x
 _atom_site_fract_y
 _atom_site_fract_z
 _atom_site_occupancy
  Cd  Cd1  1  0.33239700  0.32030100  0.53376600  1
  Cd  Cd2  1  0.65613700  0.71157500  0.45798300  1
  Cd  Cd3  1  0.73108100  0.54929800  0.69394100  1
  Cd  Cd4  1  0.25759700  0.48269300  0.29814000  1
  H  H1  1  0.73383900  0.67736600  0.07592400  1
  H  H2  1  0.39637700  0.27746800  0.72666000  1
  H  H3  1  0.14885300  0.11437000  0.62864200  1
  H  H4  1  0.02274800  0.13953800  0.72173800  1
  H  H5  1  0.14640800  0.30742000  0.92190900  1
  H  H6  1  0.63649200  0.67561100  0.20601700  1
  H  H7  1  0.92941500  0.30640900  0.50391500  1
  H  H8  1  0.78594500  0.38721200  0.50097500  1
  H  H9  1  0.20480500  0.64609800  0.49265200  1
  H  H10  1  0.72640200  0.16771100  0.70180500  1
  H  H11  1  0.64617200  0.94591700  0.61892100  1
  H  H12  1  0.26243400  0.86429200  0.29046700  1
  H  H13  1  0.34267500  0.08606300  0.37332800  1
  H  H14  1  0.88240800  0.98440200  0.11742700  1
  H  H15  1  0.74787900  0.83518700  0.89317000  1
  H  H16  1  0.24561300  0.18826900  0.10323300  1
  C  C1  1  0.16271700  0.42205600  0.50024200  1
  C  C2  1  0.83787300  0.84506200  0.73472000  1
  C  C3  1  0.60158600  0.51218500  0.83635300  1
  C  C4  1  0.39728400  0.75388300  0.39889700  1
  C  C5  1  0.82611700  0.61026800  0.49159700  1
  C  C6  1  0.15144900  0.18549500  0.25727300  1
  C  C7  1  0.38448800  0.51160100  0.15225800  1
  C  C8  1  0.59145300  0.27808900  0.59334300  1
  C  C9  1  0.34354800  0.29175000  0.76929500  1
  C  C10  1  0.20417000  0.19723300  0.71475200  1
  C  C11  1  0.13412200  0.21112200  0.76718000  1
  C  C12  1  0.20754000  0.31016400  0.88330000  1
  C  C13  1  0.35034000  0.40624600  0.94225700  1
  C  C14  1  0.41351800  0.40070400  0.87653300  1
  C  C15  1  0.54826900  0.50130800  0.92042600  1
  C  C16  1  0.62800800  0.59867500  0.03981300  1
  C  C17  1  0.57210500  0.59842000  0.11258300  1
  C  C18  1  0.43279000  0.50569900  0.06467700  1
  C  C19  1  0.95922700  0.39913100  0.50117300  1
  C  C20  1  0.87902800  0.44555400  0.50120100  1
  C  C21  1  0.91508600  0.56358800  0.49738900  1
  C  C22  1  0.03188500  0.63463500  0.49273300  1
  C  C23  1  0.11153700  0.58780600  0.49218700  1
  C  C24  1  0.07503700  0.46968300  0.49550500  1
  C  C25  1  0.62424000  0.10173200  0.61111000  1
  C  C26  1  0.57964400  0.97605100  0.56338400  1
  C  C27  1  0.44976200  0.88943400  0.44769600  1
  C  C28  1  0.36459600  0.93026400  0.38116300  1
  C  C29  1  0.40919600  0.05593700  0.42888000  1
  C  C30  1  0.53905900  0.14255400  0.54457600  1
  C  C31  1  0.93257400  0.99706200  0.06481300  1
  C  C32  1  0.85757400  0.91207600  0.93914800  1
  C  C33  1  0.92137100  0.92748600  0.87174800  1
  C  C34  1  0.06181700  0.02484900  0.93237200  1
  C  C35  1  0.13505700  0.11283800  0.05609300  1
  C  C36  1  0.06975400  0.10000600  0.12188800  1
  O  O1  1  0.26455700  0.47779500  0.48293300  1
  O  O2  1  0.16894500  0.34087200  0.55430800  1
  O  O3  1  0.73219600  0.72851700  0.68843900  1
  O  O4  1  0.82964300  0.89331000  0.64594700  1
  O  O5  1  0.52501500  0.49803900  0.71673900  1
  O  O6  1  0.73791100  0.56829300  0.88296200  1
  O  O7  1  0.47198100  0.70831000  0.45481300  1
  O  O8  1  0.26011300  0.66630100  0.31738900  1
  O  O9  1  0.72409100  0.55411100  0.50890800  1
  O  O10  1  0.81933800  0.69112900  0.43702000  1
  O  O11  1  0.25615800  0.30305800  0.30313300  1
  O  O12  1  0.15902700  0.13830300  0.34631400  1
  O  O13  1  0.46326300  0.53351200  0.27468700  1
  O  O14  1  0.25019600  0.46380100  0.10913600  1
  O  O15  1  0.51671400  0.32356400  0.53718600  1
  O  O16  1  0.72862700  0.36572300  0.67485300  1
  F  F1  1  0.13031900  0.02958500  0.87336800  1
  F  F2  1  0.07139100  0.75181700  0.49129900  1
