# generated using pymatgen
data_FeH5C18NO8
_symmetry_space_group_name_H-M   'P 1'
_cell_length_a   13.43525800
_cell_length_b   12.44366500
_cell_length_c   13.18469300
_cell_angle_alpha   80.75278400
_cell_angle_beta   84.88120000
_cell_angle_gamma   110.09828700
_symmetry_Int_Tables_number   1
_chemical_formula_structural   FeH5C18NO8
_chemical_formula_sum   'Fe2 H10 C36 N2 O16'
_cell_volume   2018.17607914
_cell_formula_units_Z   2
loop_
 _symmetry_equiv_pos_site_id
 _symmetry_equiv_pos_as_xyz
  1  'x, y, z'
loop_
 _atom_site_type_symbol
 _atom_site_label
 _atom_site_symmetry_multiplicity
 _atom_site_fract_x
 _atom_site_fract_y
 _atom_site_fract_z
 _atom_site_occupancy
  Fe  Fe1  1  0.47891700  0.97025400  0.23051700  1
  Fe  Fe2  1  0.47487000  0.97834600  0.77699200  1
  H  H1  1  0.19270500  0.05388100  0.20529000  1
  H  H2  1  0.02974700  0.07163700  0.15937800  1
  H  H3  1  0.10424000  0.99974600  0.86023700  1
  H  H4  1  0.99942600  0.09143000  0.81448300  1
  H  H5  1  0.86613600  0.98712000  0.13721000  1
  H  H6  1  0.46164600  0.83452000  0.53570400  1
  H  H7  1  0.52790300  0.57344100  0.73258600  1
  H  H8  1  0.56670000  0.13869500  0.46310300  1
  H  H9  1  0.49492500  0.39157200  0.26429400  1
  H  H10  1  0.53728500  0.41024100  0.67371400  1
  C  C1  1  0.17361700  0.04254600  0.12885200  1
  C  C2  1  0.07956800  0.05123200  0.10255100  1
  C  C3  1  0.05182500  0.03556700  0.00589900  1
  C  C4  1  0.12425900  0.01707800  0.93480100  1
  C  C5  1  0.22190800  0.01463800  0.95884300  1
  C  C6  1  0.24557500  0.02517900  0.05813500  1
  C  C7  1  0.93304000  0.06212500  0.87733600  1
  C  C8  1  0.83325700  0.04808500  0.85133400  1
  C  C9  1  0.74396200  0.01416300  0.92783000  1
  C  C10  1  0.75879100  0.00267500  0.03228900  1
  C  C11  1  0.85870200  0.00819700  0.05650700  1
  C  C12  1  0.94644200  0.03571600  0.97972900  1
  C  C13  1  0.67567300  0.99224900  0.11944900  1
  C  C14  1  0.48601000  0.77016100  0.36206500  1
  C  C15  1  0.34435200  0.01954600  0.09297100  1
  C  C16  1  0.51788000  0.18997800  0.27813600  1
  C  C17  1  0.50322400  0.78219500  0.71914100  1
  C  C18  1  0.63693700  0.98453100  0.89603600  1
  C  C19  1  0.53475600  0.19863700  0.63676100  1
  C  C20  1  0.29694900  0.00167500  0.87723100  1
  C  C21  1  0.47554400  0.69671300  0.46457100  1
  C  C22  1  0.46863200  0.74961000  0.54780600  1
  C  C23  1  0.48712700  0.70615800  0.64349800  1
  C  C24  1  0.50935700  0.60520300  0.65813500  1
  C  C25  1  0.50755700  0.54491700  0.57804000  1
  C  C26  1  0.48954200  0.58895400  0.48070200  1
  C  C27  1  0.52480100  0.44059900  0.59665200  1
  C  C28  1  0.52944900  0.37994100  0.51781800  1
  C  C29  1  0.51017800  0.42307800  0.42051000  1
  C  C30  1  0.48324600  0.52223500  0.40426500  1
  C  C31  1  0.54634500  0.27358500  0.53432200  1
  C  C32  1  0.55469400  0.22102000  0.45101000  1
  C  C33  1  0.53571500  0.26386300  0.35531600  1
  C  C34  1  0.51124800  0.36287200  0.34054900  1
  C  C35  1  0.43380100  0.54360200  0.31436700  1
  C  C36  1  0.82492000  0.06409300  0.74245200  1
  N  N1  1  0.39360700  0.55992200  0.24230700  1
  N  N2  1  0.81888400  0.07723700  0.65462300  1
  O  O1  1  0.57563100  0.97374900  0.10654300  1
  O  O2  1  0.56322900  0.78283500  0.28775100  1
  O  O3  1  0.70416300  0.00865400  0.21006700  1
  O  O4  1  0.43248100  0.84094500  0.35414000  1
  O  O5  1  0.33715100  0.95728300  0.18555700  1
  O  O6  1  0.43848600  0.08890100  0.04060300  1
  O  O7  1  0.56653100  0.11466800  0.27731700  1
  O  O8  1  0.43423500  0.17822700  0.23090000  1
  O  O9  1  0.42433200  0.81579100  0.74875300  1
  O  O10  1  0.60204400  0.84643400  0.72492100  1
  O  O11  1  0.62205700  0.04883400  0.81376800  1
  O  O12  1  0.56072000  0.88420900  0.93971600  1
  O  O13  1  0.29204600  0.03671700  0.77914900  1
  O  O14  1  0.48655400  0.08529500  0.64420300  1
  O  O15  1  0.37078200  0.95906600  0.90091200  1
  O  O16  1  0.57659000  0.23975900  0.71510400  1
