# Generated by REPEAT Assigner based on pymatgen
data_DB0-m3_o160_o51_f0_fsc.sym.68
_audit_creation_date              2022-05-24
_audit_creation_method            REPEAT_Assigner
_cell_length_a                    8.539004
_cell_length_b                    13.147858
_cell_length_c                    13.424741
_cell_angle_alpha                 90.595859
_cell_angle_beta                  90.524633
_cell_angle_gamma                 93.494777
_cell_volume                      1504.233976
_symmetry_space_group_name_H-M    P1
_symmetry_Int_Tables_number       1
loop_
    _symmetry_equiv_pos_site_id
    _symmetry_equiv_pos_as_xyz
    1  x,y,z
loop_
    _atom_site_type_symbol
    _atom_site_label
    _atom_site_fract_x
    _atom_site_fract_y
    _atom_site_fract_z
    _atom_type_partial_charge
    C   C1   0.162022  0.701714  0.011020  0.046058
    C   C2   0.174272  0.805598  0.997969  -0.428900
    C   C3   0.040506  0.860149  0.998905  0.439028
    C   C4   0.893445  0.808476  0.001709  -0.360270
    H   H1   0.787007  0.847948  0.993361  0.156672
    C   C5   0.882987  0.704107  0.013722  0.029045
    C   C6   0.017344  0.653328  0.024762  -0.234782
    C   C7   0.059441  0.971804  0.993888  -0.426491
    C   C8   0.951377  0.031749  0.029167  -0.067029
    H   H2   0.166885  0.004808  0.962589  0.207567
    H   H3   0.843851  0.998751  0.060429  0.084866
    C   C9   0.836074  0.197832  0.022226  -0.327897
    C   C10  0.848071  0.301174  0.005585  0.104650
    C   C11  0.992575  0.349020  0.989593  -0.242133
    C   C12  0.127087  0.298844  0.002893  0.083573
    C   C13  0.116815  0.195040  0.018554  -0.274821
    H   H4   0.223347  0.156009  0.028522  0.105446
    C   C14  0.969903  0.143339  0.022555  0.233039
    H   H5   0.288655  0.844586  0.990610  0.199325
    H   H6   0.008593  0.573438  0.040149  0.168421
    H   H7   0.721818  0.159083  0.031136  0.128623
    H   H8   0.001123  0.428334  0.971599  0.088357
    O   O1   0.343920  0.605560  0.922400  -0.718479
    O   O2   0.350159  0.607029  0.094363  -0.770677
    C   C15  0.297824  0.639527  0.009066  0.893949
    O   O3   0.328246  0.395321  0.092371  -0.776852
    O   O4   0.332275  0.393983  0.920631  -0.646163
    C   C16  0.275694  0.360414  0.005465  0.835403
    O   O5   0.666332  0.397551  0.094003  -0.779990
    O   O6   0.660203  0.396230  0.922200  -0.633253
    C   C17  0.712446  0.363569  0.007413  0.832825
    O   O7   0.681717  0.607822  0.924050  -0.725620
    O   O8   0.677651  0.609265  0.095906  -0.758164
    C   C18  0.734217  0.642760  0.011015  0.871827
    Zn  Zn1  0.505552  0.500617  0.119395  1.128303
    Zn  Zn2  0.504575  0.502408  0.896958  0.952777
    C   C19  0.498282  0.414672  0.710868  -0.275744
    N   N1   0.504198  0.501438  0.766181  0.200563
    C   C20  0.510720  0.592245  0.720572  -0.269021
    C   C21  0.511523  0.598411  0.617949  -0.010678
    C   C22  0.505579  0.510277  0.559824  -0.306792
    C   C23  0.498852  0.418144  0.608400  0.692894
    C   C24  0.512795  0.598609  0.399909  -0.255046
    C   C25  0.506055  0.510294  0.455675  0.331987
    C   C26  0.499537  0.418028  0.404975  -0.063867
    C   C27  0.492905  0.328205  0.456837  0.251027
    N   N2   0.492723  0.329766  0.556774  -0.630193
    C   C28  0.512648  0.592535  0.297362  -0.104042
    N   N3   0.505972  0.501689  0.250007  0.178378
    C   C29  0.499538  0.414888  0.302100  -0.178580
    H   H9   0.515584  0.661624  0.764673  0.222196
    H   H10  0.494235  0.342461  0.262984  0.170811
    H   H11  0.487834  0.255977  0.417368  0.081522
    H   H12  0.516897  0.673578  0.587007  0.094057
    H   H13  0.518290  0.673695  0.432628  0.174734
    H   H14  0.517858  0.661930  0.254768  0.165045
    C   C30  0.491273  0.314026  0.756221  0.298079
    C   C31  0.347903  0.261735  0.769063  -0.158611
    C   C32  0.340889  0.163011  0.803141  -0.164027
    C   C33  0.477305  0.115244  0.821667  0.091316
    Br  Br1  0.467790  0.978525  0.868057  -0.141833
    C   C34  0.620607  0.165629  0.804341  -0.134926
    C   C35  0.627442  0.264286  0.770070  -0.178720
    H   H15  0.240789  0.298242  0.752427  0.118529
    H   H16  0.228365  0.122762  0.814326  0.131292
    H   H17  0.727574  0.127440  0.816649  0.129071
    H   H18  0.739799  0.302853  0.754335  0.122342
