# generated using pymatgen
data_ZnH5C15I2NO4
_symmetry_space_group_name_H-M   'P 1'
_cell_length_a   10.84836600
_cell_length_b   13.42609400
_cell_length_c   8.54637600
_cell_angle_alpha   90.00000000
_cell_angle_beta   90.01480300
_cell_angle_gamma   90.00000000
_symmetry_Int_Tables_number   1
_chemical_formula_structural   ZnH5C15I2NO4
_chemical_formula_sum   'Zn2 H10 C30 I4 N2 O8'
_cell_volume   1244.78972179
_cell_formula_units_Z   2
loop_
 _symmetry_equiv_pos_site_id
 _symmetry_equiv_pos_as_xyz
  1  'x, y, z'
loop_
 _atom_site_type_symbol
 _atom_site_label
 _atom_site_symmetry_multiplicity
 _atom_site_fract_x
 _atom_site_fract_y
 _atom_site_fract_z
 _atom_site_occupancy
  Zn  Zn1  1  0.91880300  0.88989100  0.45926300  1
  Zn  Zn2  1  0.90875200  0.10978300  0.45924800  1
  H  H1  1  0.52473800  0.99799300  0.57009900  1
  H  H2  1  0.30216600  0.00181400  0.57012000  1
  H  H3  1  0.32163000  0.98272400  0.21424300  1
  H  H4  1  0.50558300  0.01705600  0.21424200  1
  H  H5  1  0.82722000  0.96695300  0.95649700  1
  H  H6  1  0.99986400  0.03277200  0.95654200  1
  H  H7  1  0.61241100  0.59130500  0.45965400  1
  H  H8  1  0.60886000  0.41526900  0.45977300  1
  H  H9  1  0.11489900  0.42121400  0.45916000  1
  H  H10  1  0.11897800  0.57310200  0.45988200  1
  C  C1  1  0.47809100  0.00005600  0.96234300  1
  C  C2  1  0.54128500  0.99844400  0.82027000  1
  C  C3  1  0.47688600  0.99926400  0.68091800  1
  C  C4  1  0.35007500  0.00054000  0.68093000  1
  C  C5  1  0.28575000  0.00134200  0.82029700  1
  C  C6  1  0.34901700  0.99973400  0.96235100  1
  C  C7  1  0.15797000  0.00660200  0.81953900  1
  C  C8  1  0.09660500  0.01811400  0.95792200  1
  C  C9  1  0.15536000  0.00562900  0.09766900  1
  C  C10  1  0.28117200  0.99460800  0.10106600  1
  C  C11  1  0.54599400  0.00516400  0.10106600  1
  C  C12  1  0.67179900  0.99410600  0.09767600  1
  C  C13  1  0.73048300  0.98162700  0.95788900  1
  C  C14  1  0.66906400  0.99315200  0.81948000  1
  C  C15  1  0.08173500  0.00266400  0.67810000  1
  C  C16  1  0.74526200  0.99709400  0.67801200  1
  C  C17  1  0.74701100  0.99738300  0.23922900  1
  C  C18  1  0.08023900  0.00235000  0.23921000  1
  C  C19  1  0.80215200  0.29376000  0.45955100  1
  C  C20  1  0.81164500  0.70831000  0.45935800  1
  C  C21  1  0.01734000  0.28822100  0.45922000  1
  C  C22  1  0.02711900  0.70902300  0.45959200  1
  C  C23  1  0.02368900  0.39035400  0.45935700  1
  C  C24  1  0.02911200  0.60647400  0.45970100  1
  C  C25  1  0.91751500  0.44743300  0.45957200  1
  C  C26  1  0.92016100  0.55204000  0.45961600  1
  C  C27  1  0.80571900  0.39748800  0.45962900  1
  C  C28  1  0.81058900  0.60466600  0.45954100  1
  C  C29  1  0.69988500  0.55352500  0.45961900  1
  C  C30  1  0.69754100  0.45136200  0.45970500  1
  I  I1  1  0.18723400  0.21163200  0.45855800  1
  I  I2  1  0.19742100  0.78450500  0.45946900  1
  I  I3  1  0.64195400  0.78684800  0.45865400  1
  I  I4  1  0.63167700  0.21730800  0.45949700  1
  N  N1  1  0.90767700  0.24056300  0.45930400  1
  N  N2  1  0.91956000  0.75908400  0.45935300  1
  O  O1  1  0.03470700  0.08655700  0.62752300  1
  O  O2  1  0.04622100  0.91509400  0.62541200  1
  O  O3  1  0.79208300  0.91327100  0.62713000  1
  O  O4  1  0.78054300  0.08457500  0.62499100  1
  O  O5  1  0.79272200  0.91303600  0.29061300  1
  O  O6  1  0.78070300  0.08492100  0.29345900  1
  O  O7  1  0.03418100  0.08645900  0.29032200  1
  O  O8  1  0.04614800  0.91500700  0.29313200  1
