# Generated by REPEAT Assigner based on pymatgen
data_DB0-m2_o15_o22_f0_nbo.sym.105_sqe
_audit_creation_date              2022-05-24
_audit_creation_method            REPEAT_Assigner
_cell_length_a                    18.648386
_cell_length_b                    18.228392
_cell_length_c                    18.487933
_cell_angle_alpha                 108.642981
_cell_angle_beta                  110.006193
_cell_angle_gamma                 109.643328
_cell_volume                      4844.560639
_symmetry_space_group_name_H-M    P1
_symmetry_Int_Tables_number       1
loop_
    _symmetry_equiv_pos_site_id
    _symmetry_equiv_pos_as_xyz
    1  x,y,z
loop_
    _atom_site_type_symbol
    _atom_site_label
    _atom_site_fract_x
    _atom_site_fract_y
    _atom_site_fract_z
    _atom_type_partial_charge
    C   C1    0.405671  0.370785  0.507895  0.711333
    C   C2    0.839063  0.538506  0.809101  0.029074
    C   C3    0.417308  0.186780  0.446033  0.396672
    C   C4    0.401364  0.408051  0.084239  0.365234
    C   C5    0.208299  0.341598  0.363613  0.444465
    C   C6    0.974481  0.412636  0.294632  0.348100
    C   C7    0.289776  0.615354  0.139480  0.205769
    C   C8    0.354594  0.531131  0.041335  0.475370
    C   C9    0.800060  0.520596  0.367430  0.308644
    C   C10   0.473369  0.667689  0.373093  0.440469
    C   C11   0.622317  0.989214  0.542860  0.426876
    C   C12   0.789106  0.002749  0.569182  0.438665
    C   C13   0.876456  0.577901  0.757027  -0.089730
    C   C14   0.939791  0.815435  0.627203  0.380179
    C   C15   0.955999  0.669598  0.525398  0.327700
    C   C16   0.640616  0.527660  0.309216  0.456487
    C   C17   0.776304  0.367211  0.719615  0.629292
    C   C18   0.038188  0.073032  0.766885  0.496485
    C   C19   0.643830  0.548067  0.979676  0.373426
    C   C20   0.112891  0.655274  0.285594  0.514727
    C   C21   0.282974  0.820557  0.371070  0.332350
    C   C22   0.278879  0.984701  0.443411  0.297685
    C   C23   0.780861  0.759918  0.283410  0.542067
    C   C24   0.800515  0.591623  0.848938  0.129976
    C   C25   0.784157  0.509938  0.038092  0.496469
    C   C26   0.905347  0.520387  0.710745  0.606996
    C   C27   0.716721  0.667349  0.802843  0.550582
    C   C28   0.389649  0.409310  0.670724  -0.009818
    C   C29   0.364508  0.431044  0.732578  -0.142975
    C   C30   0.304157  0.364747  0.734411  0.019782
    C   C31   0.264438  0.277297  0.668699  -0.142093
    C   C32   0.265602  0.261985  0.590237  0.218301
    C   C33   0.335098  0.326120  0.593482  0.094618
    C   C34   0.198949  0.184410  0.509503  -0.289266
    C   C35   0.636617  0.525245  0.608264  0.318820
    C   C36   0.214109  0.164541  0.438410  0.277144
    C   C37   0.298713  0.213084  0.455452  0.168656
    C   C38   0.351574  0.302041  0.523329  -0.258843
    C   C39   0.151127  0.093594  0.352961  -0.039463
    C   C40   0.177565  0.062844  0.294469  -0.271959
    C   C41   0.265145  0.098843  0.319449  0.094647
    C   C42   0.327178  0.172146  0.402817  -0.202583
    C   C43   0.174368  0.392855  0.330009  -0.159259
    C   C44   0.103267  0.392961  0.337367  -0.063099
    C   C45   0.053160  0.418918  0.290005  -0.017499
    C   C46   0.585754  0.605210  0.452513  0.717164
    C   C47   0.074898  0.446884  0.235993  -0.093811
    C   C48   0.150578  0.455179  0.232744  -0.021679
    C   C49   0.201954  0.428827  0.281271  0.217710
    C   C50   0.175664  0.491961  0.183419  0.024741
    C   C51   0.248607  0.492819  0.176067  0.009129
    C   C52   0.289120  0.452301  0.212555  0.156462
    C   C53   0.276304  0.434225  0.275899  -0.326531
    C   C54   0.280150  0.528772  0.129516  0.191403
    C   C55   0.327822  0.499492  0.096651  -0.292805
    C   C56   0.356317  0.446424  0.122278  0.024281
    C   C57   0.354272  0.450869  0.351467  0.750119
    C   C58   0.343342  0.430197  0.185848  -0.053601
    C   C59   0.558417  0.750891  0.435074  -0.136791
    C   C60   0.555881  0.828849  0.461590  0.016990
    C   C61   0.631323  0.909864  0.508259  -0.107732
    C   C62   0.711104  0.913924  0.521992  -0.027341
    C   C63   0.715774  0.834666  0.495726  0.047502
    C   C64   0.639152  0.753366  0.458708  0.185455
    C   C65   0.795360  0.834499  0.510996  -0.277982
    C   C66   0.796182  0.754732  0.496965  0.338897
    C   C67   0.718019  0.675202  0.443172  0.260511
    C   C68   0.692090  0.439448  0.665942  0.147671
    C   C69   0.642246  0.674339  0.439631  -0.373105
    C   C70   0.873365  0.751698  0.532945  -0.181535
    C   C71   0.874664  0.674146  0.491668  -0.003483
    C   C72   0.797592  0.599078  0.419425  -0.037793
    C   C73   0.718299  0.598545  0.396275  -0.271615
    C   C74   0.035579  0.426619  0.895415  0.627586
    C   C75   0.903581  0.533405  0.882118  0.551687
    C   C76   0.975859  0.613829  0.112792  0.472553
    C   C77   0.111931  0.505497  0.121496  0.589878
    C   C78   0.966425  0.879862  0.373906  0.686678
    C   C79   0.757891  0.442982  0.745073  -0.423145
    C   C80   0.122070  0.118298  0.505057  0.552173
    C   C81   0.022982  0.139666  0.640680  0.508451
    C   C82   0.868144  0.903705  0.512488  0.672583
    C   C83   0.055552  0.436312  0.751516  -0.080018
    C   C84   0.055306  0.437422  0.677566  -0.203114
    C   C85   0.051737  0.367429  0.616665  -0.047344
    C   C86   0.047824  0.296123  0.629269  -0.127387
    C   C87   0.045754  0.292455  0.702733  0.131451
    C   C88   0.050993  0.364468  0.764583  0.188811
    C   C89   0.041433  0.219440  0.715615  -0.177024
    C   C90   0.801815  0.579730  0.686893  -0.165692
    C   C91   0.058885  0.227663  0.799619  0.147761
    C   C92   0.069840  0.304224  0.862170  0.079300
    C   C93   0.054992  0.365994  0.840784  -0.197486
    C   C94   0.067932  0.165153  0.826286  -0.195260
    C   C95   0.098861  0.185903  0.913443  -0.044170
    C   C96   0.114724  0.264008  0.974472  -0.135419
    C   C97   0.097594  0.320995  0.948151  -0.008897
    C   C98   0.118557  0.739270  0.290087  -0.024814
    C   C99   0.198502  0.819110  0.348150  -0.051240
    C   C100  0.197413  0.897207  0.385735  -0.083398
    C   C101  0.722029  0.582748  0.775516  -0.353157
    C   C102  0.118265  0.892761  0.371256  0.083689
    C   C103  0.038971  0.813881  0.310230  0.130405
    C   C104  0.039934  0.740860  0.259506  -0.102413
    C   C105  0.960148  0.808850  0.300380  -0.181117
    C   C106  0.880491  0.734685  0.226469  0.032639
    C   C107  0.882090  0.668219  0.163167  0.125607
    C   C108  0.963315  0.670196  0.181104  -0.016098
    C   C109  0.798600  0.725979  0.212071  -0.066585
    C   C110  0.726537  0.672417  0.128502  -0.131429
    C   C111  0.727855  0.611268  0.063764  -0.000233
    C   C112  0.713601  0.535136  0.683850  0.379286
    C   C113  0.801544  0.601077  0.084875  -0.131649
    C   C114  0.684697  0.381207  0.581932  0.327918
    C   C115  0.866140  0.684187  0.926634  0.289029
    C   C116  0.824235  0.668227  0.689778  0.466920
    C   C117  0.959593  0.667923  0.815406  0.339532
    C   C118  0.287968  0.058827  0.254328  0.370127
    C   C119  0.480627  0.469324  0.698604  0.426583
    C   C120  0.300594  0.388798  0.816337  0.319261
    C   C121  0.264159  0.211207  0.698236  0.397531
    C   C122  0.056400  0.060929  0.314385  0.513351
    Cu  Cu1   0.501875  0.427795  0.425488  0.884722
    Cu  Cu2   0.488252  0.548221  0.533752  0.913889
    Cu  Cu3   0.940774  0.448464  0.985081  0.962259
    Cu  Cu4   0.072707  0.593231  0.023427  0.883392
    Cu  Cu5   0.939582  0.023517  0.454358  0.879061
    Cu  Cu6   0.049610  0.996312  0.559714  0.833571
    H   H1    0.626487  0.405424  0.658889  0.064656
    H   H2    0.368986  0.391885  0.207912  0.128651
    H   H3    0.493873  0.827337  0.446077  0.083540
    H   H4    0.137978  0.279398  0.042498  0.081095
    H   H5    0.063690  0.494943  0.800416  0.103858
    H   H6    0.060414  0.494384  0.668659  0.161221
    H   H7    0.053887  0.369075  0.559485  0.106375
    H   H8    0.050195  0.246361  0.581413  0.090976
    H   H9    0.106599  0.138345  0.933725  0.148534
    H   H10   0.112632  0.382221  0.998219  0.054662
    H   H11   0.119454  0.954193  0.401975  -0.055583
    H   H12   0.721875  0.427163  0.779690  0.146778
    H   H13   0.664568  0.670113  0.115599  0.128925
    H   H14   0.740473  0.395341  0.571729  0.005231
    H   H15   0.886029  0.692577  0.992420  0.003827
    H   H16   0.811503  0.669786  0.628778  -0.049780
    H   H17   0.990493  0.700806  0.886450  0.077360
    H   H18   0.241379  0.991042  0.200270  0.005056
    H   H19   0.516496  0.442319  0.674900  -0.064693
    H   H20   0.350659  0.453505  0.873786  0.025404
    H   H21   0.249374  0.210715  0.749757  0.036830
    H   H22   0.010191  0.992048  0.262608  -0.043866
    H   H23   0.790553  0.539157  0.621295  -0.017492
    H   H24   0.443887  0.158591  0.408614  0.067479
    H   H25   0.406302  0.413084  0.029163  0.005141
    H   H26   0.236374  0.307690  0.333160  0.000022
    H   H27   0.958458  0.390534  0.337765  0.025464
    H   H28   0.280726  0.630281  0.085984  0.076781
    H   H29   0.419709  0.548583  0.050113  0.001795
    H   H30   0.749232  0.453581  0.343240  0.033107
    H   H31   0.468932  0.609674  0.326886  -0.005343
    H   H32   0.559244  0.984649  0.509596  0.019320
    H   H33   0.847818  0.020318  0.625715  -0.028403
    H   H34   0.664362  0.535019  0.772524  0.139857
    H   H35   0.004508  0.822779  0.657156  0.099820
    H   H36   0.953034  0.608785  0.524287  0.072622
    H   H37   0.628235  0.459807  0.280229  0.038648
    H   H38   0.806529  0.357547  0.679510  -0.065636
    H   H39   0.973560  0.033511  0.709574  0.034524
    H   H40   0.583463  0.544631  0.976132  0.023309
    H   H41   0.048756  0.599512  0.258835  -0.010658
    H   H42   0.288767  0.776251  0.321036  0.020127
    H   H43   0.336884  0.996291  0.437268  0.027876
    H   H44   0.818319  0.765793  0.346418  -0.067123
    H   H45   0.771521  0.557644  0.879988  -0.031300
    H   H46   0.762253  0.477861  0.968369  0.003897
    H   H47   0.927305  0.482794  0.737911  -0.090024
    H   H48   0.713395  0.693551  0.862441  -0.005457
    H   H49   0.403943  0.496920  0.789972  0.125720
    H   H50   0.128491  0.009457  0.227725  0.121060
    H   H51   0.081648  0.365774  0.374908  0.122414
    H   H52   0.031825  0.463841  0.198288  0.162720
    O   O1    0.453071  0.354653  0.472355  -0.457197
    O   O2    0.099011  0.509839  0.955705  -0.530802
    O   O3    0.870151  0.484049  0.913943  -0.517992
    O   O4    0.989535  0.577825  0.913009  -0.562298
    O   O5    0.945731  0.528144  0.089133  -0.460932
    O   O6    0.025672  0.653933  0.085216  -0.566444
    O   O7    0.032485  0.435386  0.061597  -0.593989
    O   O8    0.135052  0.585159  0.127189  -0.478680
    O   O9    0.943592  0.938178  0.361545  -0.559992
    O   O10   0.002453  0.886095  0.452400  -0.537512
    O   O11   0.047090  0.119443  0.477838  -0.422752
    O   O12   0.402074  0.445564  0.527833  -0.557406
    O   O13   0.132033  0.060604  0.530040  -0.336329
    O   O14   0.952492  0.104359  0.563286  -0.464001
    O   O15   0.079965  0.110860  0.650834  -0.466275
    O   O16   0.849213  0.923699  0.447917  -0.488143
    O   O17   0.950168  0.936458  0.572974  -0.472471
    O   O18   0.614442  0.314467  0.523723  -0.406302
    O   O19   0.893873  0.750258  0.918664  -0.379346
    O   O20   0.857211  0.737732  0.757427  -0.294845
    O   O21   0.999846  0.700636  0.783622  -0.402374
    O   O22   0.353164  0.103590  0.253947  -0.418682
    O   O23   0.619426  0.481896  0.526295  -0.549659
    O   O24   0.518515  0.547944  0.753903  -0.459755
    O   O25   0.239950  0.340030  0.819703  -0.332848
    O   O26   0.292369  0.163042  0.672627  -0.430320
    O   O27   0.029805  0.113696  0.328157  -0.457557
    O   O28   0.460131  0.223040  0.526399  -0.414051
    O   O29   0.430688  0.366091  0.111944  -0.420592
    O   O30   0.197326  0.329549  0.421049  -0.437167
    O   O31   0.926384  0.431504  0.249990  -0.376621
    O   O32   0.313558  0.674351  0.211441  -0.369414
    O   O33   0.302205  0.533219  0.981664  -0.456601
    O   O34   0.582561  0.550197  0.624772  -0.364798
    O   O35   0.858057  0.529917  0.348760  -0.330042
    O   O36   0.406005  0.664706  0.369918  -0.364463
    O   O37   0.679901  0.055614  0.613904  -0.375882
    O   O38   0.787856  0.057544  0.545132  -0.408674
    O   O39   0.919566  0.856632  0.675194  -0.436885
    O   O40   0.026297  0.731110  0.548017  -0.414658
    O   O41   0.590141  0.545807  0.266475  -0.403913
    O   O42   0.752947  0.311550  0.742035  -0.454522
    O   O43   0.081245  0.037979  0.787287  -0.435452
    O   O44   0.641158  0.505483  0.911901  -0.406970
    O   O45   0.548649  0.519757  0.395601  -0.523987
    O   O46   0.177788  0.651152  0.324220  -0.399188
    O   O47   0.344193  0.865267  0.447118  -0.333631
    O   O48   0.281806  0.046037  0.498540  -0.283066
    O   O49   0.717719  0.771316  0.269411  -0.490832
    O   O50   0.786173  0.466392  0.076221  -0.429619
    O   O51   0.918533  0.526599  0.652131  -0.468614
    O   O52   0.710915  0.704447  0.758486  -0.479976
    O   O53   0.576583  0.632116  0.522790  -0.526625
    O   O54   0.382323  0.392473  0.341492  -0.585775
    O   O55   0.395918  0.527255  0.425701  -0.549280
    O   O56   0.956682  0.391491  0.887162  -0.526420
