# Generated by REPEAT Assigner based on pymatgen
data_DB0-m2_o22_o23_f0_pcu.sym.37
_audit_creation_date              2022-05-24
_audit_creation_method            REPEAT_Assigner
_cell_length_a                    10.664599
_cell_length_b                    9.254410
_cell_length_c                    15.884669
_cell_angle_alpha                 90.000000
_cell_angle_beta                  89.991766
_cell_angle_gamma                 90.000000
_cell_volume                      1567.730503
_symmetry_space_group_name_H-M    P1
_symmetry_Int_Tables_number       1
loop_
    _symmetry_equiv_pos_site_id
    _symmetry_equiv_pos_as_xyz
    1  x,y,z
loop_
    _atom_site_type_symbol
    _atom_site_label
    _atom_site_fract_x
    _atom_site_fract_y
    _atom_site_fract_z
    _atom_type_partial_charge
    O   O1   0.321937  0.624189  0.502116  -0.619067
    O   O2   0.322058  0.375795  0.501673  -0.627259
    C   C1   0.263279  0.499930  0.499380  0.453645
    O   O3   0.508247  0.625121  0.377247  -0.651729
    O   O4   0.508048  0.376944  0.376647  -0.639013
    C   C2   0.504489  0.501311  0.337694  0.841703
    Cu  Cu1  0.504162  0.644998  0.499614  0.890501
    Cu  Cu2  0.504233  0.355102  0.498908  0.894813
    O   O5   0.686409  0.624346  0.502336  -0.625418
    O   O6   0.686399  0.375974  0.501305  -0.587776
    O   O7   0.508002  0.623419  0.621890  -0.641767
    O   O8   0.508366  0.374663  0.621294  -0.631205
    C   C3   0.745156  0.500121  0.499495  0.506916
    C   C4   0.504677  0.498761  0.660771  0.882072
    C   C5   0.429730  0.630081  0.045351  -0.191520
    C   C6   0.443868  0.365180  0.048418  -0.145097
    C   C7   0.429852  0.369928  0.952944  -0.178053
    C   C8   0.443900  0.634769  0.949861  -0.113923
    H   H1   0.348210  0.638175  0.922623  0.069166
    H   H2   0.329967  0.392876  0.939010  0.083393
    H   H3   0.329811  0.607178  0.059289  0.081017
    H   H4   0.348099  0.361673  0.075529  0.076860
    C   C9   0.505970  0.498135  0.751104  -0.251695
    C   C10  0.506885  0.503670  0.079218  0.564230
    C   C11  0.507040  0.496347  0.919150  0.506287
    C   C12  0.640929  0.486554  0.952201  0.008486
    C   C13  0.640844  0.513545  0.046247  -0.001145
    C   C14  0.506681  0.497470  0.826960  -0.263413
    C   C15  0.506396  0.502597  0.171443  -0.316445
    C   C16  0.505699  0.501946  0.247321  -0.194667
    H   H5   0.681367  0.621126  0.058853  -0.014817
    H   H6   0.702523  0.434806  0.078442  -0.000632
    H   H7   0.702632  0.565276  0.920023  -0.005997
    H   H8   0.681478  0.378963  0.939643  -0.011921
    C   C17  0.075253  0.577881  0.577152  -0.088453
    C   C18  0.075061  0.345339  0.500061  -0.070669
    H   H9   0.104343  0.692869  0.575167  0.020903
    H   H10  0.111812  0.285333  0.444849  0.025740
    H   H11  0.114443  0.526895  0.634597  0.004275
    H   H12  0.104739  0.290182  0.558786  0.026127
    C   C19  0.933363  0.570149  0.579900  -0.039350
    C   C20  0.933418  0.345543  0.495847  -0.176520
    H   H13  0.903708  0.505370  0.635173  0.005821
    H   H14  0.897194  0.281870  0.549783  0.047247
    H   H15  0.895140  0.681077  0.586060  0.005389
    H   H16  0.903435  0.294346  0.435993  0.039374
    H   H17  0.113461  0.686739  0.417826  0.037897
    H   H18  0.104696  0.514694  0.364544  0.010955
    H   H19  0.904279  0.698010  0.428999  0.003225
    H   H20  0.894088  0.536372  0.365627  0.008681
    C   C21  0.075092  0.575535  0.421306  -0.141603
    C   C22  0.123214  0.499726  0.499543  0.388112
    C   C23  0.885251  0.499834  0.499902  0.271978
    C   C24  0.933301  0.583237  0.424234  -0.023706
    C   C25  0.631268  0.081084  0.491558  -0.174434
    C   C26  0.631845  0.918197  0.502639  0.040238
    H   H21  0.693109  0.126078  0.541033  0.070908
    H   H22  0.677558  0.891095  0.563351  0.036037
    H   H23  0.669209  0.108832  0.428566  0.060365
    H   H24  0.686966  0.871743  0.450034  0.038480
    H   H25  0.520353  0.106540  0.631244  0.043084
    H   H26  0.474474  0.875670  0.633597  0.073359
    C   C27  0.454380  0.083306  0.579054  0.006465
    C   C28  0.437463  0.920673  0.574148  -0.136686
    C   C29  0.427681  0.079592  0.432434  -0.044565
    C   C30  0.444387  0.917339  0.426147  -0.042266
    N   N1   0.504667  0.138337  0.500190  0.174533
    N   N2   0.504490  0.861737  0.501716  0.152203
    H   H27  0.327509  0.104325  0.444276  0.030017
    H   H28  0.351505  0.865885  0.417149  0.043815
    H   H29  0.455143  0.126026  0.371052  0.052523
    H   H30  0.503549  0.894695  0.370321  0.051612
    H   H31  0.362756  0.134566  0.593060  0.032889
    H   H32  0.336195  0.894880  0.569171  0.065274
    C   C31  0.509285  0.232356  0.079768  0.601071
    O   O9   0.458251  0.158826  0.133399  -0.488727
    O   O10  0.626113  0.190768  0.049100  -0.516609
    H   H33  0.654692  0.098940  0.077852  0.367230
    C   C32  0.457945  0.773588  0.085194  0.562881
    O   O11  0.390172  0.876300  0.069699  -0.441112
    O   O12  0.556235  0.790745  0.141989  -0.508051
    H   H34  0.557847  0.893138  0.164187  0.386179
    C   C33  0.457932  0.226423  0.913043  0.563590
    O   O13  0.390042  0.123786  0.928508  -0.440515
    O   O14  0.556070  0.209272  0.856110  -0.508984
    H   H35  0.557595  0.106898  0.833883  0.387440
    C   C34  0.509398  0.767485  0.918448  0.601353
    O   O15  0.458623  0.840722  0.864575  -0.493056
    O   O16  0.626119  0.809134  0.949243  -0.513738
    H   H36  0.654985  0.900613  0.920264  0.365242
