# Generated by REPEAT Assigner based on pymatgen
data_DB0-m3_o49_o159_f0_fsc.sym.19_sqe
_audit_creation_date              2022-05-24
_audit_creation_method            REPEAT_Assigner
_cell_length_a                    8.578546
_cell_length_b                    10.793344
_cell_length_c                    13.393303
_cell_angle_alpha                 90.000000
_cell_angle_beta                  90.000000
_cell_angle_gamma                 90.000000
_cell_volume                      1240.101947
_symmetry_space_group_name_H-M    P1
_symmetry_Int_Tables_number       1
loop_
    _symmetry_equiv_pos_site_id
    _symmetry_equiv_pos_as_xyz
    1  x,y,z
loop_
    _atom_site_type_symbol
    _atom_site_label
    _atom_site_fract_x
    _atom_site_fract_y
    _atom_site_fract_z
    _atom_type_partial_charge
    C   C1   0.998199  0.682927  0.979666  -0.144344
    C   C2   0.859429  0.742856  0.995224  -0.120419
    C   C3   0.137886  0.744191  0.983851  -0.095236
    C   C4   0.859188  0.870393  0.005583  -0.016459
    C   C5   0.137802  0.872226  0.986790  -0.026690
    C   C6   0.721849  0.933724  0.021253  -0.055057
    C   C7   0.274549  0.937532  0.975086  -0.081596
    C   C8   0.720853  0.061252  0.023036  -0.173616
    C   C9   0.273551  0.065057  0.976804  -0.198754
    C   C10  0.998024  0.935325  0.997210  0.104561
    C   C11  0.997341  0.063464  0.000711  0.033455
    C   C12  0.857569  0.126566  0.011135  0.047565
    C   C13  0.136169  0.128398  0.992307  0.088446
    C   C14  0.857476  0.254614  0.013852  -0.166164
    C   C15  0.135886  0.255956  0.002474  -0.195705
    C   C16  0.997123  0.315920  0.017877  -0.091412
    H   H1   0.614525  0.884289  0.033197  0.078016
    H   H2   0.382158  0.889578  0.960548  0.091375
    H   H3   0.613273  0.109178  0.037768  0.093766
    H   H4   0.380914  0.114469  0.964924  0.119440
    H   H5   0.997830  0.585618  0.965875  0.135206
    H   H6   0.997471  0.413266  0.031492  0.129113
    O   O1   0.666189  0.364792  0.919333  -0.748499
    O   O2   0.660854  0.377991  0.091028  -0.751131
    O   O3   0.334292  0.365540  0.912925  -0.716993
    O   O4   0.325944  0.379618  0.084580  -0.731498
    C   C17  0.715605  0.330411  0.008138  0.941626
    C   C18  0.277327  0.332242  0.999990  0.898980
    O   O5   0.660617  0.633621  0.084807  -0.714748
    O   O6   0.669054  0.619465  0.913021  -0.753778
    O   O7   0.329596  0.634384  0.078406  -0.776148
    O   O8   0.335000  0.621231  0.906552  -0.749931
    C   C19  0.717989  0.666523  0.997703  0.880344
    C   C20  0.279748  0.668336  0.989544  0.925101
    Zn  Zn1  0.493327  0.506239  0.109514  1.049529
    Zn  Zn2  0.502008  0.492125  0.888130  1.047278
    C   C21  0.512698  0.597672  0.709473  -0.175252
    C   C22  0.491591  0.616684  0.293172  -0.189201
    N   N1   0.507946  0.488258  0.757290  0.140713
    N   N2   0.487408  0.511054  0.240323  0.135936
    C   C23  0.499374  0.382112  0.706066  -0.144989
    C   C24  0.486641  0.401033  0.286522  -0.111049
    C   C25  0.494707  0.383813  0.603481  -0.173738
    C   C26  0.490933  0.393719  0.388556  -0.205813
    C   C27  0.499754  0.495567  0.550992  0.042337
    C   C28  0.495354  0.500519  0.446513  0.062070
    C   C29  0.509779  0.604570  0.605486  0.165853
    C   C30  0.495055  0.614309  0.397649  0.165119
    C   C31  0.500171  0.724075  0.452725  -0.158737
    C   C32  0.514753  0.719024  0.556610  -0.176621
    H   H7   0.493428  0.294856  0.745455  0.158724
    H   H8   0.485218  0.316590  0.243209  0.150311
    H   H9   0.495921  0.701307  0.250906  0.214721
    H   H10  0.514689  0.678995  0.755609  0.210090
    H   H11  0.484670  0.294583  0.568937  0.142395
    H   H12  0.493054  0.301482  0.418148  0.153382
    C   C33  0.484373  0.846791  0.399862  0.088701
    C   C34  0.640496  0.887428  0.356907  0.119066
    C   C35  0.617087  0.997163  0.287933  -0.235048
    H   H13  0.542558  0.969739  0.223984  0.050842
    H   H14  0.560690  0.073953  0.329425  0.036280
    H   H15  0.731878  0.028636  0.259525  0.075622
    H   H16  0.720260  0.914777  0.418092  -0.012663
    H   H17  0.695929  0.810796  0.314927  -0.022331
    H   H18  0.394420  0.840996  0.340801  -0.015442
    H   H19  0.438410  0.920298  0.448953  0.035471
    C   C36  0.542028  0.835875  0.615774  0.092302
    C   C37  0.389577  0.883782  0.659313  0.142669
    C   C38  0.421413  0.994642  0.725652  -0.216702
    H   H20  0.498687  0.967024  0.788183  0.033342
    H   H21  0.478320  0.068750  0.681399  0.034374
    H   H22  0.309724  0.029858  0.756201  0.072957
    H   H23  0.309815  0.912131  0.598432  -0.027607
    H   H24  0.330677  0.810838  0.703529  -0.027290
    H   H25  0.629535  0.820034  0.675137  -0.010982
    H   H26  0.597149  0.909187  0.570505  0.024562
