# Generated by REPEAT Assigner based on pymatgen
data_DB0-m29_o88_o51_f0_pts.sym.54
_audit_creation_date              2022-05-24
_audit_creation_method            REPEAT_Assigner
_cell_length_a                    15.256779
_cell_length_b                    9.297302
_cell_length_c                    18.525875
_cell_angle_alpha                 90.136842
_cell_angle_beta                  103.772855
_cell_angle_gamma                 107.781667
_cell_volume                      2422.325688
_symmetry_space_group_name_H-M    P1
_symmetry_Int_Tables_number       1
loop_
    _symmetry_equiv_pos_site_id
    _symmetry_equiv_pos_as_xyz
    1  x,y,z
loop_
    _atom_site_type_symbol
    _atom_site_label
    _atom_site_fract_x
    _atom_site_fract_y
    _atom_site_fract_z
    _atom_type_partial_charge
    C   C1   0.803006  0.063701  0.130248  -0.084808
    H   H1   0.798584  0.077964  0.187057  0.132328
    C   C2   0.889041  0.070176  0.116832  -0.199441
    H   H2   0.951194  0.091800  0.163037  0.137040
    C   C3   0.894958  0.041499  0.045462  0.218142
    C   C4   0.815426  0.018198  0.986838  -0.196965
    H   H3   0.821529  0.008344  0.930407  0.131063
    C   C5   0.728586  0.012527  0.999495  0.090375
    C   C6   0.721857  0.029607  0.072516  -0.036399
    C   C7   0.986917  0.041275  0.033632  -0.186522
    C   C8   0.993331  0.962668  0.975412  -0.163149
    H   H4   0.050169  0.105612  0.074969  0.153381
    H   H5   0.929864  0.898124  0.934308  0.142868
    C   C9   0.089673  0.927200  0.892254  -0.185429
    H   H6   0.026927  0.903099  0.846425  0.125915
    C   C10  0.175066  0.930799  0.878451  -0.100776
    H   H7   0.178401  0.912147  0.821693  0.137847
    C   C11  0.256857  0.967337  0.935638  -0.005403
    C   C12  0.251536  0.990592  0.008499  0.031970
    C   C13  0.165408  0.987910  0.021585  -0.165496
    H   H8   0.160548  0.001695  0.078107  0.132836
    C   C14  0.085031  0.961269  0.963399  0.194629
    O   O1   0.518519  0.205554  0.805193  -0.622194
    C   C15  0.472327  0.213710  0.736616  0.682694
    O   O2   0.418392  0.117151  0.944740  -0.461081
    O   O3   0.414255  0.090888  0.695757  -0.597308
    O   O4   0.354241  0.910433  0.861663  -0.594929
    C   C16  0.347712  0.994173  0.916164  0.604343
    Fe  Fe1  0.480051  0.000468  0.840513  1.366416
    O   O5   0.567123  0.008527  0.941482  -0.376757
    O   O6   0.660817  0.987768  0.866943  -0.496516
    C   C17  0.648379  0.997904  0.934232  0.433948
    O   O7   0.484452  0.872254  0.754943  -0.382838
    O   O8   0.505217  0.724147  0.849875  -0.420484
    C   C18  0.499636  0.747080  0.779286  0.404565
    O   O9   0.492301  0.118550  0.252776  -0.456905
    O   O10  0.498725  0.279943  0.161648  -0.433404
    C   C19  0.493439  0.252744  0.230226  0.495859
    O   O11  0.409576  0.979750  0.066525  -0.418055
    O   O12  0.323917  0.035276  0.140314  -0.506511
    C   C20  0.332652  0.008034  0.073311  0.500845
    O   O13  0.560441  0.903291  0.314406  -0.552063
    O   O14  0.622866  0.083819  0.145656  -0.582225
    C   C21  0.630574  0.000235  0.091650  0.610499
    O   O15  0.461511  0.785891  0.203426  -0.602856
    C   C22  0.505400  0.779450  0.272895  0.615166
    O   O16  0.561401  0.874864  0.064042  -0.457921
    Fe  Fe2  0.497688  0.990756  0.167405  1.381923
    C   C23  0.500821  0.625560  0.728374  0.092736
    C   C24  0.507487  0.646421  0.655189  -0.164448
    C   C25  0.498479  0.523063  0.607777  0.127444
    C   C26  0.483029  0.380489  0.634096  -0.163704
    H   H9   0.478745  0.283657  0.599812  0.165934
    C   C27  0.482578  0.362196  0.707571  0.000684
    C   C28  0.491874  0.483905  0.754432  -0.143875
    C   C29  0.513649  0.546691  0.532210  -0.078066
    C   C30  0.475411  0.438010  0.475887  -0.175186
    C   C31  0.484733  0.349329  0.353047  -0.221077
    H   H10  0.478498  0.238791  0.373505  0.143022
    C   C32  0.490934  0.373196  0.280424  0.089723
    C   C33  0.495489  0.513735  0.254551  -0.193768
    C   C34  0.498773  0.631459  0.301435  0.093739
    C   C35  0.496431  0.609483  0.374438  -0.256899
    H   H11  0.495145  0.702070  0.409007  0.141093
    C   C36  0.487773  0.467490  0.400351  0.251707
    H   H12  0.488032  0.465212  0.811272  0.148937
    H   H13  0.499351  0.534149  0.197843  0.159367
    H   H14  0.560338  0.654596  0.522725  0.066921
    H   H15  0.431779  0.326215  0.483796  0.094768
    C   C37  0.529232  0.798327  0.628555  0.200939
    C   C38  0.471094  0.827988  0.565025  0.065643
    C   C39  0.496233  0.967799  0.536969  -0.311635
    C   C40  0.579585  0.078938  0.571822  0.388242
    O   O17  0.602902  0.212661  0.541252  -0.241045
    C   C41  0.684113  0.330636  0.570949  0.022418
    C   C42  0.637018  0.049968  0.636561  -0.176059
    C   C43  0.611598  0.910008  0.664520  -0.234718
    H   H16  0.406326  0.741157  0.536573  0.060622
    H   H17  0.450953  0.989842  0.486665  0.160475
    H   H18  0.686261  0.426703  0.535315  0.068278
    H   H19  0.747545  0.294871  0.572617  0.045516
    H   H20  0.684101  0.368396  0.627789  0.033974
    H   H21  0.702738  0.133263  0.665975  0.124225
    H   H22  0.657822  0.886648  0.713897  0.175856
