# Generated by REPEAT Assigner based on pymatgen
data_DB0-m29_o88_o143_f0_pts.sym.27
_audit_creation_date              2022-05-24
_audit_creation_method            REPEAT_Assigner
_cell_length_a                    15.513500
_cell_length_b                    17.020163
_cell_length_c                    11.644849
_cell_angle_alpha                 71.448814
_cell_angle_beta                  101.446487
_cell_angle_gamma                 109.452255
_cell_volume                      2733.825783
_symmetry_space_group_name_H-M    P1
_symmetry_Int_Tables_number       1
loop_
    _symmetry_equiv_pos_site_id
    _symmetry_equiv_pos_as_xyz
    1  x,y,z
loop_
    _atom_site_type_symbol
    _atom_site_label
    _atom_site_fract_x
    _atom_site_fract_y
    _atom_site_fract_z
    _atom_type_partial_charge
    C   C1   0.797523  0.969937  0.217023  0.424489
    C   C2   0.879327  0.965303  0.195356  -0.402388
    H   H1   0.932736  0.957088  0.269563  0.124536
    C   C3   0.893917  0.971861  0.079625  0.271544
    C   C4   0.824962  0.981392  0.985131  -0.276391
    H   H2   0.835894  0.983777  0.895258  0.175112
    C   C5   0.740858  0.983720  0.006089  -0.006986
    C   C6   0.727802  0.978331  0.123899  -0.134943
    C   C7   0.981940  0.964749  0.062145  -0.262692
    C   C8   0.024774  0.010683  0.962488  -0.047704
    H   H3   0.014014  0.922720  0.135603  0.162973
    H   H4   0.991886  0.050723  0.886762  0.117155
    C   C9   0.123698  0.991746  0.842061  -0.282081
    H   H5   0.065051  0.983566  0.774395  0.128044
    C   C10  0.207139  0.992297  0.818335  0.360661
    C   C11  0.283202  0.003888  0.902926  -0.127255
    C   C12  0.274863  0.013167  0.015135  -0.183611
    C   C13  0.191109  0.018585  0.034461  0.276730
    C   C14  0.114732  0.005047  0.948874  -0.014708
    O   O1   0.548831  0.115499  0.647737  -0.593587
    C   C15  0.491847  0.127174  0.548316  0.680889
    O   O2   0.437305  0.088384  0.859005  -0.540491
    O   O3   0.416010  0.065405  0.534598  -0.549198
    O   O4   0.382780  0.956714  0.821389  -0.600282
    C   C16  0.371969  0.014979  0.864483  0.733254
    Fe  Fe1  0.504620  0.998727  0.759436  1.397818
    O   O5   0.588326  0.995762  0.915098  -0.469624
    O   O6   0.684794  0.993348  0.794832  -0.512475
    C   C17  0.668780  0.991499  0.902289  0.569500
    O   O7   0.502080  0.923294  0.656294  -0.447755
    O   O8   0.498456  0.828221  0.843088  -0.488569
    C   C18  0.500587  0.845113  0.725444  0.548702
    O   O9   0.524777  0.084503  0.358359  -0.479240
    O   O10  0.506866  0.172210  0.169804  -0.463567
    C   C19  0.518103  0.160210  0.288130  0.634377
    O   O11  0.431932  0.011685  0.100544  -0.443673
    O   O12  0.335602  0.004988  0.226534  -0.432122
    C   C20  0.350870  0.012839  0.115995  0.611377
    O   O13  0.602841  0.932237  0.472932  -0.530650
    O   O14  0.636080  0.037328  0.198134  -0.623822
    C   C21  0.640545  0.975692  0.156653  0.725897
    O   O15  0.462403  0.890572  0.370116  -0.614686
    C   C22  0.522713  0.874410  0.464242  0.793946
    O   O16  0.569765  0.906527  0.158976  -0.533406
    Fe  Fe2  0.514605  0.005042  0.257441  1.378163
    C   C23  0.505544  0.788574  0.551486  -0.202407
    C   C24  0.502438  0.719932  0.509748  0.289895
    C   C25  0.494627  0.638364  0.589752  0.100374
    C   C26  0.488698  0.625768  0.710959  -0.153782
    H   H6   0.483560  0.562531  0.774174  0.148664
    C   C27  0.490323  0.693361  0.752769  -0.209166
    H   H7   0.485175  0.680598  0.848524  0.149857
    C   C28  0.499348  0.775588  0.674413  0.018316
    C   C29  0.418693  0.499494  0.534737  0.471695
    C   C30  0.423633  0.431811  0.497651  0.328476
    C   C31  0.507474  0.430100  0.475128  -0.259883
    C   C32  0.585504  0.496526  0.489591  -0.175617
    C   C33  0.580677  0.563550  0.527779  -0.069886
    C   C34  0.497443  0.565970  0.549475  -0.371527
    C   C35  0.531966  0.379871  0.311996  -0.541482
    H   H8   0.542110  0.445630  0.255058  0.181840
    C   C36  0.535621  0.315371  0.266486  0.470033
    C   C37  0.520114  0.230109  0.340030  -0.304394
    C   C38  0.506819  0.213253  0.461954  0.112716
    C   C39  0.505051  0.279105  0.505660  -0.429670
    H   H9   0.493498  0.265171  0.599562  0.198385
    C   C40  0.514371  0.361455  0.430216  0.527503
    H   H10  0.650961  0.495902  0.471547  0.119116
    H   H11  0.642513  0.614755  0.540153  0.133369
    N   N1   0.783393  0.962225  0.337724  -0.615825
    H   H12  0.834384  0.011989  0.367035  0.273774
    H   H13  0.792594  0.903247  0.393004  0.252167
    N   N2   0.557581  0.338116  0.144488  -0.572368
    H   H14  0.560327  0.402843  0.102701  0.276119
    H   H15  0.623324  0.332634  0.148907  0.276501
    N   N3   0.331251  0.500867  0.553776  -0.811875
    H   H16  0.332540  0.498840  0.644603  0.307959
    H   H17  0.319022  0.558361  0.497357  0.313085
    N   N4   0.340838  0.366273  0.478483  -0.793251
    H   H18  0.333413  0.363241  0.388751  0.309129
    H   H19  0.345253  0.306917  0.538154  0.310018
    N   N5   0.215579  0.984846  0.702962  -0.612016
    H   H20  0.195552  0.035029  0.636066  0.256471
    H   H21  0.169405  0.926176  0.692686  0.275413
    N   N6   0.187410  0.048547  0.134442  -0.546648
    H   H22  0.158157  0.099624  0.102773  0.275293
    H   H23  0.149913  0.998079  0.200035  0.291430
    N   N7   0.509248  0.734948  0.383735  -0.591982
    H   H24  0.569206  0.723374  0.374762  0.258690
    H   H25  0.452255  0.692370  0.348817  0.282229
