# Generated by REPEAT Assigner based on pymatgen
data_DB0-m29_o99_o52_f0_pts.sym.109
_audit_creation_date              2022-05-24
_audit_creation_method            REPEAT_Assigner
_cell_length_a                    16.024184
_cell_length_b                    9.352755
_cell_length_c                    19.945956
_cell_angle_alpha                 93.590449
_cell_angle_beta                  101.161465
_cell_angle_gamma                 97.163338
_cell_volume                      2898.291944
_symmetry_space_group_name_H-M    P1
_symmetry_Int_Tables_number       1
loop_
    _symmetry_equiv_pos_site_id
    _symmetry_equiv_pos_as_xyz
    1  x,y,z
loop_
    _atom_site_type_symbol
    _atom_site_label
    _atom_site_fract_x
    _atom_site_fract_y
    _atom_site_fract_z
    _atom_type_partial_charge
    C   C1   0.205996  0.996404  0.890281  -0.004998
    C   C2   0.125341  0.974214  0.907570  0.032670
    C   C3   0.119199  0.002016  0.975583  -0.101890
    C   C4   0.192542  0.039818  0.026355  0.115803
    C   C5   0.273082  0.030064  0.010889  -0.129076
    C   C6   0.279714  0.020719  0.942083  -0.096425
    C   C7   0.036342  0.993257  0.994288  0.068017
    C   C8   0.966640  0.985674  0.009359  -0.098089
    C   C9   0.815246  0.014044  0.980025  0.108617
    C   C10  0.731728  0.987190  0.991593  -0.232132
    C   C11  0.720660  0.954009  0.056812  0.037028
    C   C12  0.790108  0.928168  0.106128  -0.083707
    C   C13  0.870915  0.930072  0.089580  -0.156639
    C   C14  0.883061  0.975956  0.026803  0.078030
    O   O1   0.520668  0.178192  0.817410  -0.639989
    C   C15  0.468384  0.193015  0.759574  0.604147
    O   O2   0.414787  0.162564  0.938404  -0.525279
    O   O3   0.403609  0.091754  0.734047  -0.523645
    O   O4   0.385740  0.934660  0.885561  -0.571922
    C   C16  0.363953  0.038776  0.922747  0.781750
    Fe  Fe1  0.495485  0.992090  0.856454  1.454407
    O   O5   0.579921  0.998936  0.945566  -0.567788
    O   O6   0.664813  0.955238  0.870984  -0.559046
    C   C17  0.656782  0.985398  0.934384  0.643439
    O   O7   0.499416  0.850041  0.777848  -0.501992
    O   O8   0.537245  0.717958  0.866840  -0.383858
    C   C18  0.515986  0.725545  0.800404  0.508794
    O   O9   0.519218  0.172274  0.224833  -0.504573
    O   O10  0.443946  0.283196  0.140158  -0.419668
    C   C19  0.484340  0.286008  0.204072  0.468420
    O   O11  0.427159  0.036878  0.057026  -0.534323
    O   O12  0.334408  0.970693  0.124840  -0.552335
    C   C20  0.347720  0.016352  0.066427  0.660520
    O   O13  0.601630  0.909449  0.258059  -0.605823
    O   O14  0.621823  0.061309  0.113723  -0.612679
    C   C21  0.636697  0.950524  0.076184  0.814406
    O   O15  0.474448  0.844676  0.183033  -0.600182
    C   C22  0.530026  0.819850  0.237357  0.764798
    O   O16  0.579038  0.834798  0.059745  -0.490083
    Fe  Fe2  0.511486  0.026712  0.144726  1.426032
    C   C23  0.505643  0.593876  0.752376  -0.148665
    C   C24  0.520737  0.603403  0.686086  0.276069
    C   C25  0.505846  0.479926  0.640590  -0.687932
    C   C26  0.488599  0.343809  0.663248  0.117982
    C   C27  0.476551  0.333370  0.730200  -0.074092
    C   C28  0.477497  0.458430  0.772298  0.060743
    N   N1   0.560832  0.436727  0.535784  -0.250028
    N   N2   0.559219  0.452757  0.470172  -0.367827
    C   C29  0.502283  0.529285  0.435045  0.835707
    N   N3   0.446882  0.589196  0.467024  -0.179271
    N   N4   0.448604  0.573319  0.532642  -0.354999
    C   C30  0.504995  0.495829  0.567629  1.028334
    C   C31  0.512441  0.673540  0.335887  -0.030413
    C   C32  0.518441  0.680333  0.267304  -0.005963
    C   C33  0.513820  0.553387  0.225737  -0.207582
    C   C34  0.494628  0.419280  0.250239  0.021752
    C   C35  0.484571  0.412306  0.317720  0.114059
    C   C36  0.498177  0.539053  0.361280  -0.375940
    C   C37  0.215685  0.996504  0.816486  0.131529
    O   O17  0.262237  0.127106  0.806770  -0.532521
    H   H1   0.154441  0.983777  0.778927  0.033570
    H   H2   0.248920  0.905279  0.802815  0.086092
    H   H3   0.218886  0.194122  0.798390  0.346828
    C   C38  0.519852  0.808879  0.382894  0.142055
    O   O18  0.438855  0.829071  0.394406  -0.563973
    H   H4   0.547018  0.907436  0.362771  0.044239
    H   H5   0.563863  0.801269  0.432404  0.067338
    H   H6   0.413132  0.878428  0.354598  0.367152
    C   C39  0.537064  0.562635  0.156386  0.396334
    O   O19  0.464146  0.572043  0.106543  -0.458700
    H   H7   0.568075  0.469035  0.142122  0.000194
    H   H8   0.586005  0.656957  0.156698  -0.011382
    H   H9   0.416023  0.563472  0.131231  0.352023
    C   C40  0.453819  0.268980  0.341787  -0.021495
    O   O20  0.380583  0.201182  0.295758  -0.463618
    H   H10  0.436082  0.278736  0.392533  0.084772
    H   H11  0.504987  0.198573  0.346083  0.130768
    H   H12  0.332650  0.244281  0.309976  0.332242
    C   C41  0.045792  0.923432  0.853266  0.365648
    O   O21  0.055880  0.794680  0.818420  -0.613787
    H   H13  0.035181  0.007188  0.816764  -0.036264
    H   H14  0.986582  0.902391  0.873658  -0.012208
    H   H15  0.009657  0.782344  0.776783  0.362635
    C   C42  0.182375  0.097707  0.096050  0.131982
    O   O22  0.130085  0.206768  0.089290  -0.535122
    H   H16  0.244174  0.147685  0.128707  0.042495
    H   H17  0.153289  0.009409  0.122428  0.070824
    H   H18  0.169940  0.295937  0.088021  0.356562
    C   C43  0.835730  0.092567  0.920232  0.228160
    O   O23  0.901365  0.207740  0.943469  -0.588444
    H   H19  0.780745  0.140731  0.892998  0.032461
    H   H20  0.856109  0.017295  0.883346  0.016620
    H   H21  0.871576  0.288080  0.957070  0.364350
    C   C44  0.774503  0.895162  0.176034  0.212694
    O   O24  0.761140  0.020907  0.211396  -0.478017
    H   H22  0.827180  0.850233  0.208254  0.069476
    H   H23  0.717868  0.811531  0.171116  -0.039274
    H   H24  0.813489  0.046338  0.247785  0.336872
    C   C45  0.945298  0.890499  0.140266  0.477116
    O   O25  0.966967  0.993301  0.196794  -0.614275
    H   H25  0.003451  0.881441  0.119211  -0.068341
    H   H26  0.927681  0.781980  0.157017  -0.035313
    H   H27  0.000987  0.075720  0.181141  0.379602
    C   C46  0.441165  0.446544  0.836441  0.164016
    O   O26  0.382748  0.544725  0.838753  -0.541630
    H   H28  0.493244  0.466259  0.882849  0.109523
    H   H29  0.405334  0.338748  0.838401  0.057337
    H   H30  0.326774  0.490550  0.814784  0.347400
    C   C47  0.558216  0.743772  0.663733  -0.012537
    O   O27  0.492788  0.822611  0.637382  -0.327214
    H   H31  0.596909  0.725225  0.624434  0.027503
    H   H32  0.604070  0.808546  0.706904  0.094056
    H   H33  0.439052  0.763249  0.642332  0.293164
    C   C48  0.483403  0.211576  0.614767  0.248862
    O   O28  0.415414  0.209318  0.559035  -0.568326
    H   H34  0.474926  0.108825  0.638332  -0.000545
    H   H35  0.544404  0.211999  0.596481  0.023195
    H   H36  0.363953  0.169543  0.575996  0.352626
