# generated using pymatgen
data_FeH8C30I2(NO6)2
_symmetry_space_group_name_H-M   'P 1'
_cell_length_a   9.49329400
_cell_length_b   19.21473600
_cell_length_c   23.46244200
_cell_angle_alpha   107.05118300
_cell_angle_beta   84.18617400
_cell_angle_gamma   87.89710200
_symmetry_Int_Tables_number   1
_chemical_formula_structural   FeH8C30I2(NO6)2
_chemical_formula_sum   'Fe2 H16 C60 I4 N4 O24'
_cell_volume   4060.70674240
_cell_formula_units_Z   2
loop_
 _symmetry_equiv_pos_site_id
 _symmetry_equiv_pos_as_xyz
  1  'x, y, z'
loop_
 _atom_site_type_symbol
 _atom_site_label
 _atom_site_symmetry_multiplicity
 _atom_site_fract_x
 _atom_site_fract_y
 _atom_site_fract_z
 _atom_site_occupancy
  Fe  Fe1  1  0.47984600  0.99050600  0.38379600  1
  Fe  Fe2  1  0.51886800  0.99892400  0.61275900  1
  H  H1  1  0.77832000  0.16338900  0.09728300  1
  H  H2  1  0.78039500  0.16359800  0.99425900  1
  H  H3  1  0.21659600  0.86228200  0.90492500  1
  H  H4  1  0.21430000  0.86199000  0.00778300  1
  H  H5  1  0.21680000  0.01789100  0.77615300  1
  H  H6  1  0.76971600  0.00234100  0.79786400  1
  H  H7  1  0.77550800  0.00531500  0.22487000  1
  H  H8  1  0.22323300  0.02148300  0.20433100  1
  H  H9  1  0.01929300  0.99805100  0.36682300  1
  H  H10  1  0.20276100  0.64863900  0.51359600  1
  H  H11  1  0.33654400  0.55315200  0.53622000  1
  H  H12  1  0.65208500  0.44268800  0.47167100  1
  H  H13  1  0.24446600  0.22541000  0.46823600  1
  H  H14  1  0.31804700  0.37378300  0.63508100  1
  H  H15  1  0.72326500  0.76827400  0.53526400  1
  H  H16  1  0.72768300  0.61662900  0.36141100  1
  C  C1  1  0.07179300  0.95946400  0.10311200  1
  C  C2  1  0.91855600  0.06556000  0.13486900  1
  C  C3  1  0.91823500  0.06640800  0.07606200  1
  C  C4  1  0.99695200  0.01286900  0.03050200  1
  C  C5  1  0.07407000  0.95899200  0.04402700  1
  C  C6  1  0.84086200  0.12061300  0.06246800  1
  C  C7  1  0.84215000  0.12075700  0.00367100  1
  C  C8  1  0.92088600  0.06672700  0.95800200  1
  C  C9  1  0.99838200  0.01305900  0.97167400  1
  C  C10  1  0.07687400  0.95937200  0.92619400  1
  C  C11  1  0.15422100  0.90514900  0.93971700  1
  C  C12  1  0.15280600  0.90495600  0.99842600  1
  C  C13  1  0.92241900  0.06572800  0.89871600  1
  C  C14  1  0.07597900  0.95975100  0.86740100  1
  C  C15  1  0.11743400  0.01161200  0.75703100  1
  C  C16  1  0.11395100  0.00546800  0.69690300  1
  C  C17  1  0.98513700  0.99699700  0.67305300  1
  C  C18  1  0.86173900  0.99886900  0.71033100  1
  C  C19  1  0.86647600  0.00392900  0.76982900  1
  C  C20  1  0.99431300  0.00990600  0.79333500  1
  C  C21  1  0.87577100  0.00750600  0.24320100  1
  C  C22  1  0.88175600  0.00287600  0.30068000  1
  C  C23  1  0.01243300  0.00220100  0.32224300  1
  C  C24  1  0.13502200  0.00960800  0.28793900  1
  C  C25  1  0.12748300  0.01611300  0.23140600  1
  C  C26  1  0.99897300  0.01295800  0.20822500  1
  C  C27  1  0.75164100  0.99819700  0.33889200  1
  C  C28  1  0.57258000  0.85485300  0.38632400  1
  C  C29  1  0.27236500  0.01122400  0.31167900  1
  C  C30  1  0.37344200  0.10942300  0.47871400  1
  C  C31  1  0.74620100  0.56984800  0.46859400  1
  C  C32  1  0.93910100  0.64288400  0.48443100  1
  C  C33  1  0.01573900  0.58906700  0.49888500  1
  C  C34  1  0.95560700  0.52471600  0.49832800  1
  C  C35  1  0.81975200  0.51537100  0.48357100  1
  C  C36  1  0.15283400  0.59880500  0.51289200  1
  C  C37  1  0.22921200  0.54418800  0.52573800  1
  C  C38  1  0.16888400  0.47961400  0.52520300  1
  C  C39  1  0.03141000  0.46986400  0.51182500  1
  C  C40  1  0.97098800  0.40522300  0.51167300  1
  C  C41  1  0.83177600  0.39640000  0.49727800  1
  C  C42  1  0.75869500  0.45133000  0.48323400  1
  C  C43  1  0.24635000  0.42455100  0.53737500  1
  C  C44  1  0.05178700  0.35182800  0.52599800  1
  C  C45  1  0.28675300  0.23640000  0.51084600  1
  C  C46  1  0.35947700  0.18066900  0.52407700  1
  C  C47  1  0.41236800  0.19313000  0.57933100  1
  C  C48  1  0.40132400  0.26442400  0.61783900  1
  C  C49  1  0.32921900  0.31953300  0.60356300  1
  C  C50  1  0.26823800  0.30554800  0.55088400  1
  C  C51  1  0.70025000  0.75578900  0.48928600  1
  C  C52  1  0.64386400  0.81038500  0.46928000  1
  C  C53  1  0.61983400  0.79570300  0.40948900  1
  C  C54  1  0.64670000  0.72485400  0.37137800  1
  C  C55  1  0.70313800  0.67096400  0.39202800  1
  C  C56  1  0.73347400  0.68654400  0.45044100  1
  C  C57  1  0.72628400  0.99184700  0.68569400  1
  C  C58  1  0.61993300  0.88388500  0.51168500  1
  C  C59  1  0.24693400  0.00690400  0.65947900  1
  C  C60  1  0.46069300  0.13207900  0.60091700  1
  I  I1  1  0.71521300  0.30312800  0.49240300  1
  I  I2  1  0.49706600  0.29662000  0.69834200  1
  I  I3  1  0.59904900  0.69347200  0.28171200  1
  I  I4  1  0.97169200  0.96540700  0.57909200  1
  N  N1  1  0.99529800  0.01256700  0.14747300  1
  N  N2  1  0.99915700  0.01249100  0.85452100  1
  N  N3  1  0.80653300  0.63245100  0.46929100  1
  N  N4  1  0.18722800  0.36198300  0.53769200  1
  O  O1  1  0.14406400  0.90595800  0.11645700  1
  O  O2  1  0.84519600  0.11865100  0.17980800  1
  O  O3  1  0.84872900  0.11850700  0.88501000  1
  O  O4  1  0.14827300  0.90604100  0.82262300  1
  O  O5  1  0.62577200  0.99826000  0.31983000  1
  O  O6  1  0.62346200  0.85553600  0.33243900  1
  O  O7  1  0.76085000  0.99363700  0.39312400  1
  O  O8  1  0.49143200  0.91101100  0.42131600  1
  O  O9  1  0.29682000  0.97222100  0.34766400  1
  O  O10  1  0.36917000  0.05239100  0.29778700  1
  O  O11  1  0.49782400  0.08394500  0.44831500  1
  O  O12  1  0.25898200  0.07700700  0.46168900  1
  O  O13  1  0.61363200  0.56083200  0.45369200  1
  O  O14  1  0.99861200  0.70493000  0.48332300  1
  O  O15  1  0.38245000  0.43262200  0.54756200  1
  O  O16  1  0.99568700  0.29020300  0.53007600  1
  O  O17  1  0.69323800  0.03205800  0.65175300  1
  O  O18  1  0.63988300  0.94402400  0.69599100  1
  O  O19  1  0.51944800  0.89719600  0.55700100  1
  O  O20  1  0.69989600  0.93585900  0.50501000  1
  O  O21  1  0.44253400  0.13961200  0.65860400  1
  O  O22  1  0.37002400  0.99633500  0.67743800  1
  O  O23  1  0.50089700  0.06673000  0.56415400  1
  O  O24  1  0.24523400  0.02190700  0.60859100  1
