# generated using pymatgen
data_Zn2H31C35N2O8F9
_symmetry_space_group_name_H-M   'P 1'
_cell_length_a   9.59864900
_cell_length_b   10.78143100
_cell_length_c   17.46582200
_cell_angle_alpha   89.99981400
_cell_angle_beta   86.24258100
_cell_angle_gamma   90.06193000
_symmetry_Int_Tables_number   1
_chemical_formula_structural   Zn2H31C35N2O8F9
_chemical_formula_sum   'Zn2 H31 C35 N2 O8 F9'
_cell_volume   1803.60217087
_cell_formula_units_Z   1
loop_
 _symmetry_equiv_pos_site_id
 _symmetry_equiv_pos_as_xyz
  1  'x, y, z'
loop_
 _atom_site_type_symbol
 _atom_site_label
 _atom_site_symmetry_multiplicity
 _atom_site_fract_x
 _atom_site_fract_y
 _atom_site_fract_z
 _atom_site_occupancy
  Zn  Zn1  1  0.33701700  0.50566200  0.50075600  1
  Zn  Zn2  1  0.65425800  0.50428900  0.50194700  1
  H  H1  1  0.68797700  0.53018300  0.74300300  1
  H  H2  1  0.30308000  0.48305100  0.25954500  1
  H  H3  1  0.74907800  0.50123300  0.25366400  1
  H  H4  1  0.64803300  0.46275600  0.99600000  1
  H  H5  1  0.23325200  0.51162600  0.88861000  1
  H  H6  1  0.31214800  0.47750400  0.12240900  1
  H  H7  1  0.24219900  0.50828300  0.74906100  1
  H  H8  1  0.34321000  0.54956700  0.00657700  1
  H  H9  1  0.67893000  0.53629900  0.88025100  1
  H  H10  1  0.75807300  0.49871000  0.11412000  1
  H  H11  1  0.29173800  0.90420100  0.55360300  1
  H  H12  1  0.29015900  0.89506900  0.45147300  1
  H  H13  1  0.31287500  0.10223500  0.43792100  1
  H  H14  1  0.26971800  0.11058000  0.53900500  1
  H  H15  1  0.50520800  0.88335800  0.61988200  1
  H  H16  1  0.69540500  0.91017300  0.43292600  1
  H  H17  1  0.54922600  0.12572600  0.38303500  1
  H  H18  1  0.69489400  0.11317100  0.44171900  1
  H  H19  1  0.67214400  0.90044900  0.56886700  1
  H  H20  1  0.66220700  0.10326800  0.57862000  1
  H  H21  1  0.85849900  0.59818900  0.61246700  1
  H  H22  1  0.88522900  0.69192300  0.52888500  1
  H  H23  1  0.11220100  0.68922400  0.54850600  1
  H  H24  1  0.09565800  0.56438200  0.61574100  1
  H  H25  1  0.12836500  0.35209900  0.56887500  1
  H  H26  1  0.89782200  0.44862500  0.39016200  1
  H  H27  1  0.87109600  0.61201300  0.40610100  1
  H  H28  1  0.10187000  0.64547500  0.41474600  1
  H  H29  1  0.12652100  0.48925900  0.37976400  1
  H  H30  1  0.88626000  0.30879600  0.48956300  1
  H  H31  1  0.11265100  0.32318200  0.46846500  1
  C  C1  1  0.49886500  0.74764000  0.49616200  1
  C  C2  1  0.47374900  0.51367300  0.65151500  1
  C  C3  1  0.49225800  0.26205700  0.50550000  1
  C  C4  1  0.51734900  0.49700400  0.35120400  1
  C  C5  1  0.46580600  0.51741300  0.73568800  1
  C  C6  1  0.58706100  0.52484700  0.77404300  1
  C  C7  1  0.58184000  0.52667500  0.85304800  1
  C  C8  1  0.45473100  0.52003900  0.89515300  1
  C  C9  1  0.33350800  0.51538600  0.85666500  1
  C  C10  1  0.33867000  0.51348200  0.77750400  1
  C  C11  1  0.40935200  0.48622500  0.14958800  1
  C  C12  1  0.40409400  0.48770000  0.22858800  1
  C  C13  1  0.65256200  0.49703800  0.22520700  1
  C  C14  1  0.65775900  0.49558800  0.14603400  1
  C  C15  1  0.53653300  0.49206800  0.10750000  1
  C  C16  1  0.44302900  0.52194400  0.97978900  1
  C  C17  1  0.54826800  0.49043800  0.02284700  1
  C  C18  1  0.52536400  0.49387600  0.26700400  1
  C  C19  1  0.34773500  0.93341300  0.49903600  1
  C  C20  1  0.34667500  0.07368000  0.49479100  1
  C  C21  1  0.56102800  0.92881700  0.56988200  1
  C  C22  1  0.58621900  0.94146900  0.42854500  1
  C  C23  1  0.49777200  0.88650300  0.49671300  1
  C  C24  1  0.49289000  0.12307900  0.50474900  1
  C  C25  1  0.55350500  0.06926100  0.57691300  1
  C  C26  1  0.58608300  0.08205300  0.43546600  1
  C  C27  1  0.91121700  0.60127000  0.55424000  1
  C  C28  1  0.06868300  0.59483800  0.55812300  1
  C  C29  1  0.92239100  0.38141000  0.52859800  1
  C  C30  1  0.91977300  0.52730300  0.42846200  1
  C  C31  1  0.08008400  0.38555300  0.51685200  1
  C  C32  1  0.07695600  0.54655700  0.42659900  1
  C  C33  1  0.47712300  0.10543000  0.65364700  1
  C  C34  1  0.54445700  0.90294800  0.34864000  1
  C  C35  1  0.88399700  0.33463100  0.61088700  1
  N  N1  1  0.86254300  0.50140600  0.50640700  1
  N  N2  1  0.12865100  0.51064500  0.49971500  1
  O  O1  1  0.37809900  0.68996200  0.49764400  1
  O  O2  1  0.61938500  0.68950300  0.49727100  1
  O  O3  1  0.35807100  0.51100800  0.61544100  1
  O  O4  1  0.59772900  0.51247700  0.61558800  1
  O  O5  1  0.37279300  0.32060600  0.50447800  1
  O  O6  1  0.61226100  0.32006900  0.50481500  1
  O  O7  1  0.39278000  0.49969600  0.38696400  1
  O  O8  1  0.63361100  0.49924400  0.38719300  1
  F  F1  1  0.34591200  0.05243600  0.66229500  1
  F  F2  1  0.46444700  0.23255300  0.66038000  1
  F  F3  1  0.55462900  0.06360400  0.71242400  1
  F  F4  1  0.64237500  0.94975100  0.29459500  1
  F  F5  1  0.41504200  0.94923000  0.33333333  1
  F  F6  1  0.54316400  0.77547000  0.34128900  1
  F  F7  1  0.94003900  0.21730700  0.61772200  1
  F  F8  1  0.74255900  0.32349000  0.62588000  1
  F  F9  1  0.93691800  0.40896400  0.66644800  1
