# generated using pymatgen
data_Zn3H20(C17O7)2
_symmetry_space_group_name_H-M   'P 1'
_cell_length_a   23.79154500
_cell_length_b   31.09164300
_cell_length_c   19.44352500
_cell_angle_alpha   90.00000000
_cell_angle_beta   127.70995400
_cell_angle_gamma   90.00000000
_symmetry_Int_Tables_number   1
_chemical_formula_structural   Zn3H20(C17O7)2
_chemical_formula_sum   'Zn12 H80 C136 O56'
_cell_volume   11378.42606237
_cell_formula_units_Z   4
loop_
 _symmetry_equiv_pos_site_id
 _symmetry_equiv_pos_as_xyz
  1  'x, y, z'
loop_
 _atom_site_type_symbol
 _atom_site_label
 _atom_site_symmetry_multiplicity
 _atom_site_fract_x
 _atom_site_fract_y
 _atom_site_fract_z
 _atom_site_occupancy
  Zn  Zn1  1  0.71151900  0.71566600  0.93028200  1
  Zn  Zn2  1  0.28848100  0.28433100  0.06971700  1
  Zn  Zn3  1  0.28848100  0.71566600  0.06971800  1
  Zn  Zn4  1  0.71151900  0.28433100  0.93028300  1
  Zn  Zn5  1  0.21151900  0.21566600  0.93028200  1
  Zn  Zn6  1  0.78848100  0.78433100  0.06971700  1
  Zn  Zn7  1  0.78848100  0.21566600  0.06971800  1
  Zn  Zn8  1  0.21151900  0.78433100  0.93028300  1
  Zn  Zn9  1  0.94490000  0.49999800  0.51497900  1
  Zn  Zn10  1  0.05510000  0.49999800  0.48502100  1
  Zn  Zn11  1  0.44490000  0.99999800  0.51497900  1
  Zn  Zn12  1  0.55510000  0.99999800  0.48502100  1
  H  H1  1  0.56273000  0.82727400  0.76185000  1
  H  H2  1  0.43726900  0.17272100  0.23814600  1
  H  H3  1  0.43726900  0.82727600  0.23814600  1
  H  H4  1  0.56273100  0.17271900  0.76185900  1
  H  H5  1  0.06273000  0.32727400  0.76185000  1
  H  H6  1  0.93726900  0.67272100  0.23814600  1
  H  H7  1  0.93726900  0.32727600  0.23814600  1
  H  H8  1  0.06273100  0.67271900  0.76185900  1
  H  H9  1  0.80965800  0.83362800  0.90226300  1
  H  H10  1  0.19034200  0.16637000  0.09773900  1
  H  H11  1  0.19034200  0.83362500  0.09774000  1
  H  H12  1  0.80965700  0.16637300  0.90225700  1
  H  H13  1  0.30965800  0.33362800  0.90226300  1
  H  H14  1  0.69034200  0.66637000  0.09773900  1
  H  H15  1  0.69034200  0.33362500  0.09774000  1
  H  H16  1  0.30965700  0.66637300  0.90225700  1
  H  H17  1  0.88494300  0.87706200  0.88761000  1
  H  H18  1  0.11505700  0.12293800  0.11239700  1
  H  H19  1  0.11505800  0.87705700  0.11240000  1
  H  H20  1  0.88494100  0.12294400  0.88759300  1
  H  H21  1  0.38494300  0.37706200  0.88761000  1
  H  H22  1  0.61505700  0.62293800  0.11239700  1
  H  H23  1  0.61505800  0.37705700  0.11240000  1
  H  H24  1  0.38494100  0.62294400  0.88759300  1
  H  H25  1  0.71163600  0.95327000  0.69570300  1
  H  H26  1  0.28836300  0.04673000  0.30430200  1
  H  H27  1  0.28836300  0.95326600  0.30430300  1
  H  H28  1  0.71163700  0.04673300  0.69569200  1
  H  H29  1  0.21163600  0.45327000  0.69570300  1
  H  H30  1  0.78836300  0.54673000  0.30430200  1
  H  H31  1  0.78836300  0.45326600  0.30430300  1
  H  H32  1  0.21163700  0.54673300  0.69569200  1
  H  H33  1  0.51027500  0.88343900  0.65336200  1
  H  H34  1  0.48972400  0.11655600  0.34663400  1
  H  H35  1  0.48972400  0.88344000  0.34663400  1
  H  H36  1  0.51027700  0.11655400  0.65337000  1
  H  H37  1  0.01027500  0.38343900  0.65336200  1
  H  H38  1  0.98972400  0.61655600  0.34663400  1
  H  H39  1  0.98972400  0.38344100  0.34663400  1
  H  H40  1  0.01027700  0.61655400  0.65337000  1
  H  H41  1  0.80926400  0.89091500  0.68830600  1
  H  H42  1  0.90432400  0.89433900  0.77331300  1
  H  H43  1  0.90902200  0.96116900  0.70959200  1
  H  H44  1  0.86836400  0.91864500  0.62942000  1
  H  H45  1  0.81328700  0.95984400  0.62669400  1
  H  H46  1  0.09567900  0.10566200  0.22669900  1
  H  H47  1  0.19074000  0.10909000  0.31169900  1
  H  H48  1  0.18672700  0.04016200  0.37332400  1
  H  H49  1  0.13165300  0.08136200  0.37060300  1
  H  H50  1  0.09099100  0.03883500  0.29043500  1
  H  H51  1  0.19074100  0.89090400  0.31170100  1
  H  H52  1  0.09567900  0.89433200  0.22670300  1
  H  H53  1  0.09099500  0.96115900  0.29044300  1
  H  H54  1  0.13165800  0.91863100  0.37060900  1
  H  H55  1  0.18673100  0.95983100  0.37332900  1
  H  H56  1  0.90431800  0.10566900  0.77328400  1
  H  H57  1  0.80925500  0.10910000  0.68829500  1
  H  H58  1  0.81325400  0.04017400  0.62665300  1
  H  H59  1  0.86832500  0.08137500  0.62936800  1
  H  H60  1  0.90899100  0.03884600  0.70952900  1
  H  H61  1  0.30926400  0.39091500  0.68830600  1
  H  H62  1  0.40432400  0.39433900  0.77331300  1
  H  H63  1  0.40902200  0.46116900  0.70959300  1
  H  H64  1  0.36836400  0.41864500  0.62942000  1
  H  H65  1  0.31328700  0.45984400  0.62669400  1
  H  H66  1  0.59567900  0.60566200  0.22669900  1
  H  H67  1  0.69074000  0.60909000  0.31169900  1
  H  H68  1  0.68672700  0.54016200  0.37332400  1
  H  H69  1  0.63165300  0.58136200  0.37060300  1
  H  H70  1  0.59099100  0.53883500  0.29043500  1
  H  H71  1  0.69074100  0.39090400  0.31170100  1
  H  H72  1  0.59567900  0.39433200  0.22670300  1
  H  H73  1  0.59099500  0.46115900  0.29044300  1
  H  H74  1  0.63165800  0.41863100  0.37060900  1
  H  H75  1  0.68673100  0.45983100  0.37332900  1
  H  H76  1  0.40431800  0.60566900  0.77328400  1
  H  H77  1  0.30925500  0.60910000  0.68829500  1
  H  H78  1  0.31325400  0.54017400  0.62665300  1
  H  H79  1  0.36832500  0.58137500  0.62936800  1
  H  H80  1  0.40899100  0.53884600  0.70952900  1
  C  C1  1  0.69733700  0.80838200  0.87825200  1
  C  C2  1  0.30266200  0.19161400  0.12174700  1
  C  C3  1  0.30266200  0.80838300  0.12174800  1
  C  C4  1  0.69733800  0.19161400  0.87825300  1
  C  C5  1  0.19733700  0.30838200  0.87825200  1
  C  C6  1  0.80266200  0.69161400  0.12174700  1
  C  C7  1  0.80266200  0.30838300  0.12174800  1
  C  C8  1  0.19733800  0.69161400  0.87825300  1
  C  C9  1  0.63902600  0.75674000  0.99711500  1
  C  C10  1  0.36097400  0.24325700  0.00288500  1
  C  C11  1  0.36097400  0.75674000  0.00288600  1
  C  C12  1  0.63902600  0.24325700  0.99711500  1
  C  C13  1  0.13902600  0.25674000  0.99711500  1
  C  C14  1  0.86097400  0.74325700  0.00288500  1
  C  C15  1  0.86097400  0.25674000  0.00288600  1
  C  C16  1  0.13902600  0.74325700  0.99711500  1
  C  C17  1  0.57952400  0.75958900  0.99847300  1
  C  C18  1  0.42047500  0.24040800  0.00152600  1
  C  C19  1  0.42047600  0.75958900  0.00152700  1
  C  C20  1  0.57952400  0.24040800  0.99847400  1
  C  C21  1  0.07952400  0.25958900  0.99847300  1
  C  C22  1  0.92047500  0.74040800  0.00152600  1
  C  C23  1  0.92047600  0.25958900  0.00152700  1
  C  C24  1  0.07952400  0.74040800  0.99847400  1
  C  C25  1  0.52939900  0.76076100  0.99945900  1
  C  C26  1  0.47060100  0.23923600  0.00054100  1
  C  C27  1  0.47060100  0.76076100  0.00054100  1
  C  C28  1  0.52939900  0.23923500  0.99945900  1
  C  C29  1  0.02939900  0.26076100  0.99945900  1
  C  C30  1  0.97060100  0.73923600  0.00054100  1
  C  C31  1  0.97060100  0.26076100  0.00054100  1
  C  C32  1  0.02939900  0.73923500  0.99945900  1
  C  C33  1  0.78509600  0.85948400  0.85558000  1
  C  C34  1  0.21490400  0.14051400  0.14442300  1
  C  C35  1  0.21490400  0.85948100  0.14442500  1
  C  C36  1  0.78509500  0.14051700  0.85557200  1
  C  C37  1  0.28509600  0.35948400  0.85558000  1
  C  C38  1  0.71490400  0.64051400  0.14442300  1
  C  C39  1  0.71490400  0.35948100  0.14442500  1
  C  C40  1  0.28509500  0.64051700  0.85557200  1
  C  C41  1  0.82867700  0.88394600  0.84742700  1
  C  C42  1  0.17132300  0.11605300  0.15257900  1
  C  C43  1  0.17132400  0.88394200  0.15258100  1
  C  C44  1  0.82867600  0.11605700  0.84741400  1
  C  C45  1  0.32867700  0.38394600  0.84742700  1
  C  C46  1  0.67132300  0.61605300  0.15257900  1
  C  C47  1  0.67132400  0.38394200  0.15258100  1
  C  C48  1  0.32867600  0.61605700  0.84741400  1
  C  C49  1  0.80064100  0.91668100  0.78774300  1
  C  C50  1  0.19935900  0.08331900  0.21226300  1
  C  C51  1  0.19936000  0.91667600  0.21226600  1
  C  C52  1  0.80064000  0.08332400  0.78772800  1
  C  C53  1  0.30064100  0.41668100  0.78774300  1
  C  C54  1  0.69935900  0.58331900  0.21226300  1
  C  C55  1  0.69936000  0.41667600  0.21226600  1
  C  C56  1  0.30064000  0.58332400  0.78772800  1
  C  C57  1  0.72909500  0.92578700  0.73756900  1
  C  C58  1  0.27090500  0.07421100  0.26243500  1
  C  C59  1  0.27090500  0.92578400  0.26243700  1
  C  C60  1  0.72909500  0.07421500  0.73755900  1
  C  C61  1  0.22909500  0.42578700  0.73756900  1
  C  C62  1  0.77090500  0.57421100  0.26243500  1
  C  C63  1  0.77090500  0.42578400  0.26243700  1
  C  C64  1  0.22909500  0.57421500  0.73755900  1
  C  C65  1  0.68318500  0.90006900  0.74158600  1
  C  C66  1  0.31681500  0.09992800  0.25841600  1
  C  C67  1  0.31681500  0.90006800  0.25841700  1
  C  C68  1  0.68318500  0.09993000  0.74158100  1
  C  C69  1  0.18318500  0.40006900  0.74158600  1
  C  C70  1  0.81681500  0.59992800  0.25841600  1
  C  C71  1  0.81681500  0.40006800  0.25841700  1
  C  C72  1  0.18318500  0.59993000  0.74158100  1
  C  C73  1  0.71241400  0.86716900  0.80327500  1
  C  C74  1  0.28758600  0.13282800  0.19672700  1
  C  C75  1  0.28758600  0.86716800  0.19672800  1
  C  C76  1  0.71241400  0.13282900  0.80327100  1
  C  C77  1  0.21241400  0.36716900  0.80327500  1
  C  C78  1  0.78758600  0.63282800  0.19672700  1
  C  C79  1  0.78758600  0.36716800  0.19672800  1
  C  C80  1  0.21241400  0.63282900  0.80327100  1
  C  C81  1  0.66883100  0.84158100  0.81133600  1
  C  C82  1  0.33116900  0.15841600  0.18866400  1
  C  C83  1  0.33116900  0.84158100  0.18866400  1
  C  C84  1  0.66883100  0.15841600  0.81133700  1
  C  C85  1  0.16883100  0.34158100  0.81133600  1
  C  C86  1  0.83116900  0.65841600  0.18866400  1
  C  C87  1  0.83116900  0.34158100  0.18866400  1
  C  C88  1  0.16883100  0.65841600  0.81133700  1
  C  C89  1  0.59665600  0.84745300  0.75608400  1
  C  C90  1  0.40334300  0.15254200  0.24391300  1
  C  C91  1  0.40334300  0.84745400  0.24391300  1
  C  C92  1  0.59665700  0.15254100  0.75608900  1
  C  C93  1  0.09665600  0.34745300  0.75608400  1
  C  C94  1  0.90334300  0.65254200  0.24391300  1
  C  C95  1  0.90334300  0.34745400  0.24391300  1
  C  C96  1  0.09665700  0.65254100  0.75608900  1
  C  C97  1  0.56734300  0.87972500  0.69536500  1
  C  C98  1  0.43265600  0.12027100  0.30463200  1
  C  C99  1  0.43265600  0.87972600  0.30463300  1
  C  C100  1  0.56734400  0.12027000  0.69537000  1
  C  C101  1  0.06734300  0.37972500  0.69536500  1
  C  C102  1  0.93265600  0.62027100  0.30463200  1
  C  C103  1  0.93265600  0.37972600  0.30463300  1
  C  C104  1  0.06734400  0.62027000  0.69537000  1
  C  C105  1  0.60924000  0.90652200  0.68699700  1
  C  C106  1  0.39075900  0.09347500  0.31300300  1
  C  C107  1  0.39075900  0.90652100  0.31300400  1
  C  C108  1  0.60924000  0.09347500  0.68699600  1
  C  C109  1  0.10924000  0.40652200  0.68699700  1
  C  C110  1  0.89075900  0.59347500  0.31300300  1
  C  C111  1  0.89075900  0.40652100  0.31300400  1
  C  C112  1  0.10924000  0.59347500  0.68699600  1
  C  C113  1  0.07122500  0.55929400  0.62060700  1
  C  C114  1  0.92877500  0.44070300  0.37939300  1
  C  C115  1  0.92877500  0.55929300  0.37939300  1
  C  C116  1  0.07122500  0.44070300  0.62060700  1
  C  C117  1  0.57122500  0.05929400  0.62060700  1
  C  C118  1  0.42877500  0.94070300  0.37939300  1
  C  C119  1  0.42877500  0.05929300  0.37939300  1
  C  C120  1  0.57122500  0.94070300  0.62060700  1
  C  C121  1  0.85485800  0.91315800  0.72883800  1
  C  C122  1  0.86181800  0.94008100  0.66965800  1
  C  C123  1  0.14514700  0.08684500  0.27117400  1
  C  C124  1  0.13819500  0.05992400  0.33036200  1
  C  C125  1  0.14514800  0.91315000  0.27117700  1
  C  C126  1  0.13819800  0.94007000  0.33036900  1
  C  C127  1  0.85484700  0.08685400  0.72881200  1
  C  C128  1  0.86178900  0.05993500  0.66961100  1
  C  C129  1  0.35485800  0.41315800  0.72883800  1
  C  C130  1  0.36181800  0.44008100  0.66965800  1
  C  C131  1  0.64514700  0.58684500  0.27117400  1
  C  C132  1  0.63819500  0.55992400  0.33036200  1
  C  C133  1  0.64514800  0.41315000  0.27117700  1
  C  C134  1  0.63819800  0.44007000  0.33036900  1
  C  C135  1  0.35484700  0.58685400  0.72881200  1
  C  C136  1  0.36178900  0.55993500  0.66961100  1
  O  O1  1  0.67815500  0.76837600  0.85328200  1
  O  O2  1  0.32184500  0.23162000  0.14671800  1
  O  O3  1  0.32184500  0.76837600  0.14671800  1
  O  O4  1  0.67815500  0.23162000  0.85328200  1
  O  O5  1  0.17815500  0.26837600  0.85328200  1
  O  O6  1  0.82184500  0.73162000  0.14671800  1
  O  O7  1  0.82184500  0.26837600  0.14671800  1
  O  O8  1  0.17815500  0.73162000  0.85328200  1
  O  O9  1  0.74017800  0.82019000  0.96018400  1
  O  O10  1  0.25982200  0.17980700  0.03981600  1
  O  O11  1  0.25982200  0.82019000  0.03981600  1
  O  O12  1  0.74017800  0.17980600  0.96018400  1
  O  O13  1  0.24017800  0.32019000  0.96018400  1
  O  O14  1  0.75982200  0.67980700  0.03981600  1
  O  O15  1  0.75982200  0.32019000  0.03981600  1
  O  O16  1  0.24017800  0.67980600  0.96018400  1
  O  O17  1  0.63490000  0.72959900  0.94259100  1
  O  O18  1  0.36509900  0.27039700  0.05740900  1
  O  O19  1  0.36509900  0.72959900  0.05741000  1
  O  O20  1  0.63490100  0.27039700  0.94259100  1
  O  O21  1  0.13490000  0.22959900  0.94259100  1
  O  O22  1  0.86509900  0.77039700  0.05740900  1
  O  O23  1  0.86509900  0.22959900  0.05741000  1
  O  O24  1  0.13490100  0.77039700  0.94259100  1
  O  O25  1  0.69534900  0.78032600  0.05204200  1
  O  O26  1  0.30465100  0.21967100  0.94795700  1
  O  O27  1  0.30465100  0.78032600  0.94795800  1
  O  O28  1  0.69534900  0.21967100  0.05204300  1
  O  O29  1  0.19534900  0.28032600  0.05204200  1
  O  O30  1  0.80465100  0.71967100  0.94795700  1
  O  O31  1  0.80465100  0.28032600  0.94795800  1
  O  O32  1  0.19534900  0.71967100  0.05204300  1
  O  O33  1  0.01250200  0.54453400  0.60422800  1
  O  O34  1  0.98749800  0.45546300  0.39577300  1
  O  O35  1  0.98749700  0.54453400  0.39577200  1
  O  O36  1  0.01250200  0.45546300  0.60422800  1
  O  O37  1  0.51250200  0.04453400  0.60422800  1
  O  O38  1  0.48749800  0.95546300  0.39577300  1
  O  O39  1  0.48749700  0.04453400  0.39577200  1
  O  O40  1  0.51250200  0.95546300  0.60422800  1
  O  O41  1  0.09408000  0.54611100  0.57750700  1
  O  O42  1  0.90591900  0.45388600  0.42249300  1
  O  O43  1  0.90591900  0.54611100  0.42249300  1
  O  O44  1  0.09408000  0.45388600  0.57750800  1
  O  O45  1  0.59408000  0.04611100  0.57750700  1
  O  O46  1  0.40591900  0.95388600  0.42249300  1
  O  O47  1  0.40591900  0.04611100  0.42249300  1
  O  O48  1  0.59408000  0.95388600  0.57750800  1
  O  O49  1  0.84367700  0.93993200  0.77720900  1
  O  O50  1  0.15632400  0.06006900  0.22280100  1
  O  O51  1  0.15632400  0.93992500  0.22280400  1
  O  O52  1  0.84367500  0.06007600  0.77718600  1
  O  O53  1  0.34367700  0.43993200  0.77720900  1
  O  O54  1  0.65632400  0.56006900  0.22280100  1
  O  O55  1  0.65632400  0.43992500  0.22280400  1
  O  O56  1  0.34367500  0.56007600  0.77718600  1
