# generated using pymatgen
data_Cu6H33C54NO24
_symmetry_space_group_name_H-M   'P 1'
_cell_length_a   21.93262900
_cell_length_b   21.91928600
_cell_length_c   22.19690400
_cell_angle_alpha   60.43138800
_cell_angle_beta   119.57400800
_cell_angle_gamma   89.95997100
_symmetry_Int_Tables_number   1
_chemical_formula_structural   Cu6H33C54NO24
_chemical_formula_sum   'Cu6 H33 C54 N1 O24'
_cell_volume   7639.81280444
_cell_formula_units_Z   1
loop_
 _symmetry_equiv_pos_site_id
 _symmetry_equiv_pos_as_xyz
  1  'x, y, z'
loop_
 _atom_site_type_symbol
 _atom_site_label
 _atom_site_symmetry_multiplicity
 _atom_site_fract_x
 _atom_site_fract_y
 _atom_site_fract_z
 _atom_site_occupancy
  Cu  Cu1  1  0.50094000  0.44163200  0.49742500  1
  Cu  Cu2  1  0.50027100  0.55817800  0.50683000  1
  Cu  Cu3  1  0.06023800  0.00455400  0.49963800  1
  Cu  Cu4  1  0.94197300  0.99511100  0.50571700  1
  Cu  Cu5  1  0.95626700  0.53726000  0.41856500  1
  Cu  Cu6  1  0.04489700  0.46309000  0.58557500  1
  H  H1  1  0.37010000  0.78452600  0.05758800  1
  H  H2  1  0.32113200  0.73081200  0.95461600  1
  H  H3  1  0.22738000  0.89014900  0.94788400  1
  H  H4  1  0.18631900  0.78783100  0.05026700  1
  H  H5  1  0.13742300  0.73410900  0.94735500  1
  H  H6  1  0.28003900  0.62857800  0.05692400  1
  H  H7  1  0.75448200  0.49871800  0.39942800  1
  H  H8  1  0.83074300  0.47309800  0.57219500  1
  H  H9  1  0.65788200  0.46271800  0.42966700  1
  H  H10  1  0.71306700  0.54356300  0.51625600  1
  H  H11  1  0.62583200  0.31024200  0.94602600  1
  H  H12  1  0.68854300  0.15415700  0.05255800  1
  H  H13  1  0.80864300  0.32705200  0.95173900  1
  H  H14  1  0.87081200  0.16982500  0.05845400  1
  H  H15  1  0.73519000  0.16161900  0.95193000  1
  H  H16  1  0.24682200  0.50123300  0.60486700  1
  H  H17  1  0.17042300  0.52714100  0.43195100  1
  H  H18  1  0.34346700  0.53708400  0.57466600  1
  H  H19  1  0.28806800  0.45635600  0.48795300  1
  H  H20  1  0.00447100  0.64345500  0.60399000  1
  H  H21  1  0.96365600  0.74376400  0.42434700  1
  H  H22  1  0.96352500  0.77062500  0.57270400  1
  H  H23  1  0.04520400  0.80220500  0.48726300  1
  H  H24  1  0.99658400  0.35680700  0.40012200  1
  H  H25  1  0.03777300  0.25658200  0.57992600  1
  H  H26  1  0.03847600  0.22949600  0.43217900  1
  H  H27  1  0.95640200  0.19795500  0.51724200  1
  H  H28  1  0.65933000  0.41074300  0.95470900  1
  H  H29  1  0.73659800  0.42880100  0.94720800  1
  H  H30  1  0.72390100  0.43890400  0.01699000  1
  H  H31  1  0.85300900  0.29936900  0.17539900  1
  H  H32  1  0.84733000  0.37737000  0.08651900  1
  H  H33  1  0.87705800  0.28528200  0.11525500  1
  C  C1  1  0.61535400  0.50779600  0.49783900  1
  C  C2  1  0.41745700  0.58646300  0.34089000  1
  C  C3  1  0.38585700  0.49201900  0.50641800  1
  C  C4  1  0.58375900  0.41334500  0.66336400  1
  C  C5  1  0.29119000  0.74312100  0.97757300  1
  C  C6  1  0.31673300  0.77371100  0.03128700  1
  C  C7  1  0.37296500  0.63469300  0.25072300  1
  C  C8  1  0.13247200  0.87982300  0.75413900  1
  C  C9  1  0.26750700  0.68852700  0.03089200  1
  C  C10  1  0.29224100  0.71990000  0.08297100  1
  C  C11  1  0.19078500  0.74493200  0.97365500  1
  C  C12  1  0.21521800  0.79875600  0.92190700  1
  C  C13  1  0.21627000  0.77553700  0.02731000  1
  C  C14  1  0.23992000  0.83020000  0.97391700  1
  C  C15  1  0.33628300  0.67384300  0.17495300  1
  C  C16  1  0.17045100  0.84332300  0.82992300  1
  C  C17  1  0.75908900  0.49317000  0.45292800  1
  C  C18  1  0.82341500  0.48641800  0.51460500  1
  C  C19  1  0.69562400  0.48590000  0.45953500  1
  C  C20  1  0.68027700  0.51307000  0.49447400  1
  C  C21  1  0.71516300  0.19390000  0.02878200  1
  C  C22  1  0.68187200  0.27824100  0.97237900  1
  C  C23  1  0.62837700  0.36511900  0.75353300  1
  C  C24  1  0.86980700  0.11973900  0.25125900  1
  C  C25  1  0.74183200  0.19679800  0.97595400  1
  C  C26  1  0.70958100  0.28021700  0.92129200  1
  C  C27  1  0.81503100  0.20255100  0.03195600  1
  C  C28  1  0.78765800  0.20027400  0.08346600  1
  C  C29  1  0.78213300  0.28703900  0.97533900  1
  C  C30  1  0.75521200  0.28292100  0.02751000  1
  C  C31  1  0.66523700  0.32603700  0.82930900  1
  C  C32  1  0.83204300  0.15574800  0.17550000  1
  C  C33  1  0.24216600  0.50683400  0.55132300  1
  C  C34  1  0.17776900  0.51378800  0.48956000  1
  C  C35  1  0.30565600  0.51397000  0.54475500  1
  C  C36  1  0.32093400  0.48678300  0.50978800  1
  C  C37  1  0.01001200  0.88048300  0.50765900  1
  C  C38  1  0.08562600  0.92327500  0.66392500  1
  C  C39  1  0.99262600  0.11887900  0.49842400  1
  C  C40  1  0.91653000  0.07738300  0.34141500  1
  C  C41  1  0.98894700  0.62256000  0.49072100  1
  C  C42  1  0.88725900  0.49133800  0.50911700  1
  C  C43  1  0.01222300  0.37779200  0.51342300  1
  C  C44  1  0.11390900  0.50897900  0.49502500  1
  C  C45  1  0.99419700  0.69368300  0.54822400  1
  C  C46  1  0.98221200  0.69252800  0.48380000  1
  C  C47  1  0.98645800  0.76330800  0.54233300  1
  C  C48  1  0.01456400  0.81320000  0.50894400  1
  C  C49  1  0.00701100  0.30658900  0.45599400  1
  C  C50  1  0.01902300  0.30781200  0.52038900  1
  C  C51  1  0.01515700  0.23683400  0.46221800  1
  C  C52  1  0.98727300  0.18679500  0.49586600  1
  C  C53  1  0.71847800  0.40606400  0.99039800  1
  C  C54  1  0.83905400  0.32248200  0.11138000  1
  N  N1  1  0.76298100  0.32969000  0.05755000  1
  O  O1  1  0.58616200  0.45719000  0.49179600  1
  O  O2  1  0.58931600  0.55417500  0.50700800  1
  O  O3  1  0.43521700  0.51482700  0.37596800  1
  O  O4  1  0.43962500  0.61595100  0.38400500  1
  O  O5  1  0.41189400  0.44563600  0.49725000  1
  O  O6  1  0.41504800  0.54262300  0.51245600  1
  O  O7  1  0.56158900  0.38385800  0.62025000  1
  O  O8  1  0.56599200  0.48498200  0.62828600  1
  O  O9  1  0.05715500  0.91522600  0.50022900  1
  O  O10  1  0.95481700  0.90701500  0.50558000  1
  O  O11  1  0.11646900  0.94315900  0.62235800  1
  O  O12  1  0.01429100  0.93495000  0.62755700  1
  O  O13  1  0.04393600  0.09570700  0.49335100  1
  O  O14  1  0.94193900  0.08741300  0.49890300  1
  O  O15  1  0.98838100  0.06002000  0.37795000  1
  O  O16  1  0.88593400  0.05194900  0.38315300  1
  O  O17  1  0.95136400  0.62466200  0.42150900  1
  O  O18  1  0.03276200  0.56092100  0.56565800  1
  O  O19  1  0.87655400  0.52305200  0.43522600  1
  O  O20  1  0.95279700  0.46428600  0.57914000  1
  O  O21  1  0.96840500  0.43943000  0.43848000  1
  O  O22  1  0.04980100  0.37569000  0.58263200  1
  O  O23  1  0.04836600  0.53606500  0.42499700  1
  O  O24  1  0.12461000  0.47729300  0.56891200  1
