# Generated by REPEAT Assigner based on pymatgen
data_DB0-m2_o6_o17_f0_pcu.sym.5_sqe
_audit_creation_date              2022-05-24
_audit_creation_method            REPEAT_Assigner
_cell_length_a                    16.034670
_cell_length_b                    14.618833
_cell_length_c                    14.974676
_cell_angle_alpha                 90.000000
_cell_angle_beta                  89.999811
_cell_angle_gamma                 90.000000
_cell_volume                      3510.186199
_symmetry_space_group_name_H-M    P1
_symmetry_Int_Tables_number       1
loop_
    _symmetry_equiv_pos_site_id
    _symmetry_equiv_pos_as_xyz
    1  x,y,z
loop_
    _atom_site_type_symbol
    _atom_site_label
    _atom_site_fract_x
    _atom_site_fract_y
    _atom_site_fract_z
    _atom_type_partial_charge
    O   O1   0.378206  0.578909  0.497480  -0.629325
    O   O2   0.620419  0.421243  0.502590  -0.614647
    O   O3   0.620349  0.578752  0.509171  -0.608670
    O   O4   0.378282  0.421736  0.490726  -0.619345
    C   C1   0.339376  0.500375  0.492508  0.831715
    C   C2   0.659200  0.499948  0.507450  0.865237
    O   O5   0.507575  0.578745  0.370728  -0.603936
    O   O6   0.496179  0.421616  0.629502  -0.591134
    O   O7   0.496459  0.578819  0.629957  -0.598961
    O   O8   0.507466  0.421441  0.370287  -0.580444
    C   C3   0.508964  0.500177  0.328691  0.765787
    C   C4   0.490556  0.500137  0.671239  0.774962
    Cu  Cu1  0.499413  0.591704  0.500212  0.919698
    Cu  Cu2  0.499194  0.408614  0.499771  0.901524
    C   C5   0.535318  0.563959  0.813211  -0.223942
    C   C6   0.465379  0.435999  0.186753  -0.221399
    C   C7   0.487271  0.500374  0.769051  -0.225845
    C   C8   0.513396  0.499553  0.230922  -0.229008
    C   C9   0.439597  0.438134  0.817783  0.225467
    C   C10  0.561635  0.561269  0.182183  0.236744
    C   C11  0.447298  0.436013  0.910696  -0.054658
    C   C12  0.553893  0.563467  0.089269  -0.068312
    C   C13  0.497134  0.499765  0.953830  0.031851
    C   C14  0.503958  0.499817  0.046124  0.029298
    C   C15  0.539855  0.564055  0.904789  0.202076
    C   C16  0.461131  0.435625  0.095175  0.208843
    C   C17  0.405655  0.371042  0.961545  -0.095458
    C   C18  0.595481  0.628488  0.038444  -0.088542
    C   C19  0.412470  0.371434  0.052959  -0.283901
    C   C20  0.588532  0.628230  0.947032  -0.280301
    H   H1   0.571692  0.612841  0.775621  0.150728
    H   H2   0.428748  0.387439  0.224466  0.141712
    H   H3   0.367882  0.317889  0.932286  0.111966
    H   H4   0.633143  0.681698  0.067779  0.110324
    H   H5   0.379167  0.320666  0.091454  0.139227
    H   H6   0.621704  0.679129  0.908569  0.135994
    H   H7   0.075797  0.645987  0.496975  0.143075
    H   H8   0.922773  0.354379  0.503031  0.140936
    H   H9   0.922505  0.645795  0.503773  0.137651
    H   H10  0.076066  0.354568  0.496232  0.139674
    C   C21  0.956248  0.581808  0.502175  -0.174015
    C   C22  0.042323  0.418558  0.497832  -0.181901
    C   C23  0.042177  0.581915  0.498247  -0.180772
    C   C24  0.956395  0.418452  0.501760  -0.172357
    C   C25  0.913347  0.500078  0.503975  0.242182
    C   C26  0.085227  0.500286  0.496019  0.262997
    C   C27  0.823870  0.499990  0.506731  -0.069897
    C   C28  0.174704  0.500361  0.493253  -0.103661
    C   C29  0.249861  0.500375  0.492077  -0.234783
    C   C30  0.748712  0.499957  0.507893  -0.281374
    H   H11  0.592557  0.084583  0.601107  0.157968
    H   H12  0.406031  0.915738  0.398954  0.157319
    H   H13  0.405808  0.084022  0.398748  0.165967
    H   H14  0.592783  0.916298  0.601315  0.166785
    C   C31  0.551699  0.953155  0.556816  -0.191802
    C   C32  0.446897  0.047169  0.443240  -0.189551
    C   C33  0.447010  0.952838  0.443374  -0.156829
    C   C34  0.551585  0.047485  0.556681  -0.156303
    C   C35  0.499418  0.905829  0.500157  0.250291
    C   C36  0.499180  0.094495  0.499895  0.247184
    C   C37  0.499535  0.807668  0.500285  0.048928
    C   C38  0.499081  0.192653  0.499750  0.052406
    N   N1   0.499054  0.271800  0.499668  -0.139986
    N   N2   0.499577  0.728520  0.500353  -0.137395
    C   C39  0.375850  0.378578  0.772481  -0.356299
    H   H15  0.362770  0.399387  0.702957  0.121130
    H   H16  0.396762  0.306250  0.773319  0.093724
    H   H17  0.315087  0.385016  0.807301  0.084235
    C   C40  0.626241  0.619721  0.227403  -0.344285
    H   H18  0.640229  0.597208  0.296227  0.123946
    H   H19  0.686520  0.613633  0.191578  0.079526
    H   H20  0.605633  0.692153  0.228227  0.089959
