# Generated by REPEAT Assigner based on pymatgen
data_DB0-m3_o1_o17_f0_nbo.sym.20_sqe
_audit_creation_date              2022-05-24
_audit_creation_method            REPEAT_Assigner
_cell_length_a                    21.816748
_cell_length_b                    21.816876
_cell_length_c                    30.127152
_cell_angle_alpha                 90.000000
_cell_angle_beta                  90.000000
_cell_angle_gamma                 90.000000
_cell_volume                      14339.719161
_symmetry_space_group_name_H-M    P1
_symmetry_Int_Tables_number       1
loop_
    _symmetry_equiv_pos_site_id
    _symmetry_equiv_pos_as_xyz
    1  x,y,z
loop_
    _atom_site_type_symbol
    _atom_site_label
    _atom_site_fract_x
    _atom_site_fract_y
    _atom_site_fract_z
    _atom_type_partial_charge
    C   C1    0.498457  0.119877  0.499684  0.631494
    C   C2    0.186940  0.500921  0.500406  0.439560
    C   C3    0.001360  0.498997  0.227007  0.014357
    C   C4    0.001209  0.498801  0.272971  0.016442
    C   C5    0.500934  0.999276  0.272988  0.013883
    C   C6    0.999228  0.500702  0.727006  0.010931
    C   C7    0.498744  0.001170  0.727026  0.011954
    C   C8    0.420981  0.924459  0.773133  -0.128974
    C   C9    0.922146  0.578469  0.772784  -0.132608
    C   C10   0.576855  0.078262  0.772488  -0.131346
    C   C11   0.075997  0.422639  0.772797  -0.129765
    C   C12   0.422795  0.075973  0.227218  -0.131823
    C   C13   0.501090  0.813228  0.500533  0.437307
    C   C14   0.924447  0.421086  0.226882  -0.131205
    C   C15   0.578752  0.922285  0.227192  -0.129542
    C   C16   0.078280  0.576897  0.227494  -0.130742
    C   C17   0.923238  0.421950  0.272483  -0.129365
    C   C18   0.424013  0.077180  0.272815  -0.129583
    C   C19   0.079181  0.575651  0.273097  -0.128511
    C   C20   0.577852  0.921374  0.272799  -0.130009
    C   C21   0.921324  0.577638  0.727176  -0.131287
    C   C22   0.421786  0.923290  0.727530  -0.132458
    C   C23   0.077137  0.423771  0.727196  -0.131830
    C   C24   0.813323  0.498619  0.499517  0.434855
    C   C25   0.575697  0.079056  0.726883  -0.129745
    C   C26   0.550886  0.218322  0.487276  -0.549346
    C   C27   0.218612  0.448715  0.488442  -0.553258
    C   C28   0.448353  0.781554  0.489858  -0.563883
    C   C29   0.781855  0.551404  0.488654  -0.553273
    C   C30   0.553685  0.781405  0.511331  -0.566481
    C   C31   0.218764  0.552968  0.512509  -0.555421
    C   C32   0.446611  0.218862  0.511289  -0.565064
    C   C33   0.781296  0.446067  0.510110  -0.568697
    C   C34   0.053984  0.718675  0.989337  -0.563977
    C   C35   0.001408  0.686772  0.000062  0.434722
    C   C36   0.718590  0.946773  0.988007  -0.564484
    C   C37   0.946886  0.281217  0.988096  -0.563310
    C   C38   0.281123  0.053685  0.989308  -0.562152
    C   C39   0.051170  0.281595  0.012093  -0.552401
    C   C40   0.718435  0.051544  0.010842  -0.562963
    C   C41   0.948613  0.718364  0.010713  -0.560301
    C   C42   0.281681  0.948882  0.012117  -0.547395
    C   C43   0.606215  0.306483  0.427356  0.287780
    C   C44   0.646007  0.357313  0.408939  -0.263014
    C   C45   0.307433  0.393446  0.429031  0.297000
    C   C46   0.686776  0.999082  0.999488  0.442317
    C   C47   0.358561  0.353814  0.410867  -0.270982
    C   C48   0.391233  0.692377  0.431478  0.295831
    C   C49   0.350567  0.641493  0.414178  -0.271679
    C   C50   0.693245  0.608550  0.429759  0.282030
    C   C51   0.642805  0.649612  0.412268  -0.258576
    C   C52   0.610276  0.692157  0.570050  0.280796
    C   C53   0.651260  0.641550  0.587373  -0.256652
    C   C54   0.307426  0.607706  0.572333  0.289346
    C   C55   0.358472  0.647284  0.590675  -0.260765
    C   C56   0.391810  0.308184  0.570542  0.296542
    C   C57   0.998962  0.313153  0.999981  0.440861
    C   C58   0.352363  0.359533  0.588588  -0.268065
    C   C59   0.691489  0.389454  0.568287  0.291193
    C   C60   0.640407  0.348896  0.585408  -0.266435
    C   C61   0.110699  0.807839  0.930670  0.287093
    C   C62   0.151706  0.858432  0.913346  -0.260755
    C   C63   0.807298  0.891078  0.928631  0.281187
    C   C64   0.858026  0.850749  0.910692  -0.253505
    C   C65   0.892078  0.191756  0.928875  0.290455
    C   C66   0.852453  0.140487  0.910921  -0.263186
    C   C67   0.191354  0.109282  0.930642  0.298144
    C   C68   0.313159  0.001397  0.000580  0.432880
    C   C69   0.139880  0.148983  0.913088  -0.275868
    C   C70   0.106504  0.193575  0.072037  0.293846
    C   C71   0.146136  0.142680  0.090543  -0.266936
    C   C72   0.807168  0.107745  0.069870  0.292740
    C   C73   0.858046  0.147962  0.087723  -0.263001
    C   C74   0.891409  0.807650  0.069032  0.288301
    C   C75   0.850601  0.858482  0.086233  -0.266014
    C   C76   0.193062  0.892761  0.071466  0.285652
    C   C77   0.142152  0.852642  0.089385  -0.265783
    C   C78   0.633353  0.035155  0.871196  0.378011
    C   C79   0.498349  0.000456  0.586794  0.777557
    C   C80   0.686354  0.073719  0.887674  -0.299557
    C   C81   0.032414  0.366310  0.871476  0.368699
    C   C82   0.071056  0.313295  0.887840  -0.305480
    C   C83   0.365421  0.968080  0.872041  0.370968
    C   C84   0.312349  0.929368  0.888216  -0.303542
    C   C85   0.965265  0.634219  0.871722  0.378534
    C   C86   0.926591  0.687282  0.887954  -0.294554
    C   C87   0.634561  0.965814  0.128328  0.384119
    C   C88   0.687766  0.927368  0.112047  -0.308702
    C   C89   0.034853  0.633522  0.128850  0.385356
    C   C90   0.999723  0.501160  0.586775  0.780691
    C   C91   0.073406  0.686828  0.112876  -0.302792
    C   C92   0.366343  0.031942  0.128649  0.374756
    C   C93   0.312617  0.070586  0.113544  -0.309689
    C   C94   0.968439  0.365375  0.128093  0.375183
    C   C95   0.929774  0.311813  0.112716  -0.314547
    C   C96   0.134915  0.531605  0.371884  0.375447
    C   C97   0.188330  0.570185  0.387637  -0.312421
    C   C98   0.534432  0.865513  0.371679  0.384833
    C   C99   0.572997  0.812264  0.387736  -0.303865
    C   C100  0.866715  0.465405  0.371139  0.385390
    C   C101  0.501353  0.999704  0.413290  0.774631
    C   C102  0.813196  0.426845  0.386727  -0.302350
    C   C103  0.468048  0.133665  0.371364  0.374254
    C   C104  0.429412  0.187285  0.386675  -0.313426
    C   C105  0.133537  0.467424  0.628562  0.369065
    C   C106  0.186703  0.428753  0.612494  -0.306929
    C   C107  0.532091  0.134632  0.627981  0.370059
    C   C108  0.570756  0.187579  0.611533  -0.305560
    C   C109  0.865633  0.534596  0.628196  0.378347
    C   C110  0.812738  0.573248  0.611654  -0.295786
    C   C111  0.464835  0.866744  0.628820  0.377707
    C   C112  0.119972  0.501085  0.500277  0.629982
    C   C113  0.000620  0.498315  0.413271  0.774032
    C   C114  0.426156  0.813683  0.612588  -0.293195
    C   C115  0.001724  0.499655  0.086706  0.772880
    C   C116  0.500306  0.998741  0.086723  0.775048
    C   C117  0.998682  0.500179  0.913202  0.777719
    C   C118  0.499583  0.001773  0.913221  0.777649
    C   C119  0.550523  0.281465  0.485570  0.350650
    C   C120  0.281779  0.449165  0.487083  0.353401
    C   C121  0.448753  0.718389  0.488486  0.362676
    C   C122  0.718714  0.551126  0.486951  0.351121
    C   C123  0.553017  0.718256  0.512917  0.363567
    C   C124  0.501241  0.880194  0.500381  0.624878
    C   C125  0.281912  0.552212  0.514132  0.354604
    C   C126  0.447449  0.282032  0.512563  0.367016
    C   C127  0.718126  0.446855  0.511365  0.363661
    C   C128  0.053206  0.781827  0.987710  0.360268
    C   C129  0.781738  0.947507  0.986343  0.361993
    C   C130  0.947604  0.218048  0.986871  0.365439
    C   C131  0.217954  0.052882  0.988102  0.359188
    C   C132  0.050687  0.218451  0.013849  0.353840
    C   C133  0.781601  0.051098  0.012277  0.362246
    C   C134  0.948897  0.781526  0.012041  0.358647
    C   C135  0.880288  0.498401  0.499751  0.625220
    C   C136  0.218536  0.949180  0.013751  0.345741
    C   C137  0.499130  0.313359  0.498997  -0.110163
    C   C138  0.313456  0.500626  0.500653  -0.104544
    C   C139  0.500832  0.686722  0.500730  -0.100588
    C   C140  0.686821  0.499142  0.499086  -0.094973
    C   C141  0.000911  0.813275  0.999772  -0.096550
    C   C142  0.813288  0.999361  0.999275  -0.105710
    C   C143  0.999198  0.186640  0.000505  -0.111189
    C   C144  0.186654  0.000879  0.000991  -0.095222
    C   C145  0.380247  0.500472  0.500804  0.559875
    C   C146  0.001589  0.619805  0.000072  0.626172
    C   C147  0.500677  0.619945  0.500855  0.551067
    C   C148  0.620045  0.499471  0.498923  0.550496
    C   C149  0.499468  0.380149  0.498864  0.561702
    C   C150  0.880087  0.999506  0.999152  0.554014
    C   C151  0.999349  0.119851  0.000803  0.561582
    C   C152  0.119884  0.000544  0.001129  0.554576
    C   C153  0.000573  0.880050  0.999488  0.550982
    C   C154  0.540364  0.037972  0.841738  0.122789
    C   C155  0.035232  0.459216  0.841875  0.122811
    C   C156  0.458086  0.965230  0.842058  0.127603
    C   C157  0.619819  0.998913  0.999645  0.623031
    C   C158  0.962465  0.541472  0.841881  0.125177
    C   C159  0.541772  0.962643  0.158099  0.127543
    C   C160  0.037878  0.540506  0.158253  0.129776
    C   C161  0.459294  0.035180  0.158135  0.130197
    C   C162  0.965257  0.458103  0.157948  0.130284
    C   C163  0.042178  0.534816  0.342033  0.130302
    C   C164  0.537477  0.958298  0.341901  0.129862
    C   C165  0.959715  0.462263  0.341722  0.129731
    C   C166  0.464860  0.040705  0.341888  0.129074
    C   C167  0.040604  0.464552  0.658112  0.124154
    C   C168  0.998806  0.380121  0.999854  0.630961
    C   C169  0.534917  0.041958  0.657955  0.124358
    C   C170  0.958354  0.537326  0.658086  0.124826
    C   C171  0.462120  0.959729  0.658282  0.124105
    C   C172  0.499320  0.001686  0.864749  -0.166945
    C   C173  0.998779  0.500280  0.864729  -0.167017
    C   C174  0.500438  0.998826  0.135230  -0.178056
    C   C175  0.001635  0.499406  0.135213  -0.177979
    C   C176  0.000861  0.498448  0.364765  -0.177968
    C   C177  0.501249  0.999580  0.364782  -0.178410
    C   C178  0.999563  0.501020  0.635248  -0.168830
    C   C179  0.380135  0.001604  0.000319  0.635163
    C   C180  0.498451  0.000728  0.635267  -0.166811
    C   C181  0.459479  0.963451  0.796111  0.023170
    C   C182  0.960983  0.540004  0.795929  0.029745
    C   C183  0.538558  0.039439  0.795790  0.027093
    C   C184  0.036996  0.460948  0.795932  0.027879
    C   C185  0.461118  0.036997  0.204074  0.026325
    C   C186  0.963452  0.459560  0.203894  0.024407
    C   C187  0.540271  0.961115  0.204053  0.025555
    C   C188  0.039410  0.538637  0.204199  0.024569
    C   C189  0.961555  0.460764  0.295777  0.024023
    C   C190  0.498643  0.186844  0.499416  0.439592
    C   C191  0.463033  0.038890  0.295949  0.025389
    C   C192  0.040697  0.536656  0.296086  0.022140
    C   C193  0.538992  0.959812  0.295948  0.025340
    C   C194  0.959788  0.538791  0.704039  0.029397
    C   C195  0.460642  0.961553  0.704228  0.028672
    C   C196  0.038836  0.462771  0.704053  0.028225
    C   C197  0.536685  0.040579  0.703904  0.025775
    C   C198  0.498920  0.001361  0.772990  0.014642
    C   C199  0.999064  0.500547  0.772970  0.010675
    C   C200  0.500773  0.999127  0.227024  0.013579
    H   H1    0.389971  0.894060  0.790348  0.107291
    H   H2    0.393602  0.108318  0.289899  0.106990
    H   H3    0.856441  0.193322  0.071150  0.083179
    H   H4    0.852094  0.154041  0.124006  0.052331
    H   H5    0.902872  0.126025  0.081178  0.076228
    H   H6    0.937297  0.811581  0.084620  -0.024304
    H   H7    0.870467  0.762985  0.077881  -0.029300
    H   H8    0.805312  0.856013  0.069616  0.083847
    H   H9    0.844467  0.853269  0.122571  0.053963
    H   H10   0.872080  0.903390  0.079189  0.079118
    H   H11   0.189647  0.938965  0.086623  -0.021392
    H   H12   0.237689  0.871668  0.080229  -0.028369
    H   H13   0.110232  0.606021  0.290300  0.106023
    H   H14   0.143812  0.807186  0.072952  0.084130
    H   H15   0.148025  0.846779  0.125693  0.053823
    H   H16   0.097330  0.874529  0.082712  0.077424
    H   H17   0.646856  0.012667  0.839692  -0.045878
    H   H18   0.623167  0.999641  0.896418  -0.054862
    H   H19   0.672742  0.097587  0.918635  0.092519
    H   H20   0.726349  0.043759  0.894482  0.053009
    H   H21   0.698750  0.108066  0.862074  0.077476
    H   H22   0.009850  0.352869  0.839987  -0.043337
    H   H23   0.996963  0.376430  0.896759  -0.051678
    H   H24   0.608382  0.890348  0.289878  0.107912
    H   H25   0.094991  0.326849  0.918788  0.088990
    H   H26   0.041145  0.273261  0.894637  0.054070
    H   H27   0.105351  0.300985  0.862182  0.081780
    H   H28   0.352001  0.990993  0.840680  -0.044005
    H   H29   0.375630  0.003250  0.897509  -0.052778
    H   H30   0.325899  0.905059  0.919011  0.089935
    H   H31   0.272388  0.959285  0.895220  0.053124
    H   H32   0.299930  0.895386  0.862368  0.081037
    H   H33   0.988146  0.647676  0.840356  -0.046285
    H   H34   0.000464  0.623979  0.897163  -0.055302
    H   H35   0.890323  0.608180  0.710084  0.109271
    H   H36   0.902313  0.673699  0.918754  0.092373
    H   H37   0.956536  0.727220  0.894967  0.051377
    H   H38   0.892587  0.699747  0.862133  0.075889
    H   H39   0.647943  0.988690  0.159713  -0.048082
    H   H40   0.624165  0.001015  0.102920  -0.055717
    H   H41   0.674262  0.903079  0.081234  0.093979
    H   H42   0.727587  0.957472  0.105043  0.053407
    H   H43   0.700379  0.893375  0.137838  0.080521
    H   H44   0.011909  0.646642  0.160266  -0.048167
    H   H45   0.999709  0.623398  0.103342  -0.056750
    H   H46   0.391229  0.892164  0.710571  0.110407
    H   H47   0.097800  0.673554  0.082054  0.093759
    H   H48   0.043362  0.726732  0.105985  0.052209
    H   H49   0.107313  0.699196  0.138789  0.077750
    H   H50   0.353837  0.008306  0.159928  -0.044505
    H   H51   0.376215  0.997357  0.102695  -0.053934
    H   H52   0.325270  0.095627  0.082858  0.091824
    H   H53   0.272713  0.040521  0.106705  0.054897
    H   H54   0.300562  0.103939  0.139907  0.081223
    H   H55   0.992013  0.352580  0.159335  -0.044643
    H   H56   0.003077  0.375438  0.102213  -0.053395
    H   H57   0.108264  0.393349  0.710113  0.108330
    H   H58   0.904844  0.324723  0.082037  0.091816
    H   H59   0.959808  0.271922  0.105770  0.055920
    H   H60   0.896325  0.299603  0.138977  0.083388
    H   H61   0.147940  0.508347  0.340568  -0.045084
    H   H62   0.124731  0.496713  0.397559  -0.053333
    H   H63   0.175184  0.594822  0.418387  0.090341
    H   H64   0.228205  0.540130  0.394583  0.054263
    H   H65   0.200683  0.603885  0.361581  0.083533
    H   H66   0.511369  0.852239  0.340342  -0.048364
    H   H67   0.499384  0.875806  0.397220  -0.056431
    H   H68   0.606123  0.110040  0.709667  0.107124
    H   H69   0.597503  0.825685  0.418478  0.094112
    H   H70   0.542945  0.772421  0.394793  0.052352
    H   H71   0.606808  0.799729  0.361800  0.078575
    H   H72   0.853864  0.488701  0.339800  -0.048048
    H   H73   0.876775  0.500268  0.396861  -0.056984
    H   H74   0.826193  0.402123  0.417474  0.094145
    H   H75   0.773325  0.456930  0.393624  0.052703
    H   H76   0.800917  0.393220  0.360601  0.077146
    H   H77   0.491489  0.146310  0.340038  -0.044550
    H   H78   0.502794  0.123760  0.397200  -0.053406
    H   H79   0.592066  0.193848  0.478199  0.214571
    H   H80   0.404606  0.174519  0.417438  0.091747
    H   H81   0.459452  0.227227  0.393454  0.055889
    H   H82   0.395857  0.199342  0.360448  0.082907
    H   H83   0.146759  0.490206  0.660018  -0.042779
    H   H84   0.123518  0.502703  0.603133  -0.052525
    H   H85   0.173376  0.404623  0.581574  0.090163
    H   H86   0.226744  0.458673  0.605741  0.055334
    H   H87   0.198892  0.394623  0.638297  0.081402
    H   H88   0.509421  0.148229  0.659395  -0.043820
    H   H89   0.496725  0.124357  0.602669  -0.052061
    H   H90   0.194277  0.407511  0.479228  0.214636
    H   H91   0.594791  0.173875  0.580661  0.089139
    H   H92   0.540846  0.227562  0.604579  0.053822
    H   H93   0.604967  0.200042  0.637211  0.081976
    H   H94   0.851943  0.511952  0.659599  -0.046808
    H   H95   0.875969  0.499211  0.602912  -0.054799
    H   H96   0.826558  0.597310  0.580821  0.091931
    H   H97   0.772798  0.543320  0.604604  0.051231
    H   H98   0.800157  0.607435  0.637319  0.077005
    H   H99   0.487524  0.853371  0.660277  -0.046002
    H   H100  0.500187  0.876823  0.603456  -0.055223
    H   H101  0.406757  0.805883  0.481603  0.216582
    H   H102  0.402065  0.827187  0.581693  0.091948
    H   H103  0.456069  0.773665  0.605741  0.051582
    H   H104  0.391994  0.801378  0.638340  0.075153
    H   H105  0.891612  0.609484  0.789870  0.109928
    H   H106  0.806335  0.592955  0.480513  0.214955
    H   H107  0.595383  0.805611  0.519506  0.215250
    H   H108  0.194559  0.594285  0.521636  0.213322
    H   H109  0.405251  0.194797  0.520510  0.214861
    H   H110  0.805353  0.404320  0.518386  0.215688
    H   H111  0.095736  0.694528  0.981220  0.214826
    H   H112  0.694350  0.905288  0.979332  0.214194
    H   H113  0.905564  0.305339  0.978864  0.214394
    H   H114  0.305147  0.095253  0.980534  0.215056
    H   H115  0.092393  0.306012  0.021148  0.214595
    H   H116  0.607996  0.108802  0.789447  0.109966
    H   H117  0.694065  0.092917  0.019604  0.215868
    H   H118  0.907041  0.693980  0.018947  0.216327
    H   H119  0.306127  0.907507  0.020757  0.214463
    H   H120  0.559823  0.309634  0.412472  -0.020567
    H   H121  0.627331  0.261835  0.418682  -0.029391
    H   H122  0.691572  0.356072  0.425234  0.083006
    H   H123  0.651661  0.350963  0.372655  0.053151
    H   H124  0.623978  0.402136  0.415356  0.074903
    H   H125  0.310563  0.439835  0.414139  -0.021616
    H   H126  0.262935  0.372172  0.420157  -0.030994
    H   H127  0.106421  0.391520  0.789886  0.107662
    H   H128  0.357328  0.308246  0.427160  0.085461
    H   H129  0.352571  0.348131  0.374554  0.053562
    H   H130  0.403241  0.376000  0.417500  0.077690
    H   H131  0.437109  0.688680  0.415840  -0.025465
    H   H132  0.370119  0.737009  0.422759  -0.030989
    H   H133  0.305357  0.643602  0.430936  0.086224
    H   H134  0.344209  0.646973  0.377882  0.054121
    H   H135  0.372302  0.596634  0.420959  0.080895
    H   H136  0.689259  0.562677  0.414157  -0.023432
    H   H137  0.738102  0.629276  0.421155  -0.028090
    H   H138  0.391623  0.106357  0.210143  0.107822
    H   H139  0.645238  0.694841  0.428974  0.081034
    H   H140  0.648526  0.655828  0.375978  0.052862
    H   H141  0.597711  0.628305  0.418964  0.076972
    H   H142  0.564401  0.688160  0.585647  -0.025158
    H   H143  0.631084  0.736926  0.578788  -0.026694
    H   H144  0.696499  0.644062  0.570689  0.080209
    H   H145  0.657459  0.647005  0.623686  0.052288
    H   H146  0.629917  0.596526  0.580494  0.077865
    H   H147  0.310425  0.561296  0.587205  -0.023646
    H   H148  0.262894  0.629010  0.581080  -0.028671
    H   H149  0.894036  0.390074  0.209679  0.107024
    H   H150  0.357331  0.692865  0.574402  0.081879
    H   H151  0.352280  0.652928  0.626974  0.052499
    H   H152  0.403190  0.625102  0.584152  0.075246
    H   H153  0.438188  0.311155  0.585471  -0.024029
    H   H154  0.370324  0.263807  0.579466  -0.030334
    H   H155  0.306809  0.358406  0.572273  0.084759
    H   H156  0.346622  0.353704  0.624910  0.052935
    H   H157  0.374723  0.404103  0.581872  0.077620
    H   H158  0.687823  0.435321  0.583941  -0.025867
    H   H159  0.736017  0.368213  0.577125  -0.028960
    H   H160  0.609802  0.891789  0.210104  0.107486
    H   H161  0.642543  0.303691  0.568649  0.084148
    H   H162  0.645632  0.342517  0.621722  0.052967
    H   H163  0.595636  0.370718  0.578466  0.080710
    H   H164  0.064901  0.811704  0.914936  -0.026141
    H   H165  0.131625  0.763071  0.922082  -0.027917
    H   H166  0.196818  0.856152  0.930229  0.081623
    H   H167  0.158212  0.852750  0.877080  0.052355
    H   H168  0.130196  0.903446  0.919968  0.079131
    H   H169  0.810728  0.937205  0.913354  -0.023884
    H   H170  0.762604  0.870012  0.920018  -0.027220
    H   H171  0.108808  0.608049  0.210534  0.108852
    H   H172  0.856283  0.805370  0.927228  0.079301
    H   H173  0.852000  0.844756  0.874408  0.051503
    H   H174  0.902942  0.872515  0.917235  0.074913
    H   H175  0.938486  0.188491  0.914030  -0.022971
    H   H176  0.870828  0.236185  0.919790  -0.029118
    H   H177  0.806794  0.142045  0.927061  0.082895
    H   H178  0.847004  0.146022  0.874551  0.052555
    H   H179  0.874486  0.095839  0.917940  0.076456
    H   H180  0.188205  0.063098  0.915423  -0.024886
    H   H181  0.235682  0.130824  0.921659  -0.029869
    H   H182  0.892074  0.391435  0.289443  0.108769
    H   H183  0.141319  0.194411  0.929571  0.087384
    H   H184  0.145269  0.154987  0.876753  0.054311
    H   H185  0.095345  0.126669  0.920010  0.081970
    H   H186  0.060147  0.190708  0.087009  -0.021781
    H   H187  0.127847  0.238175  0.080547  -0.030685
    H   H188  0.191587  0.143491  0.074065  0.084636
    H   H189  0.152100  0.149332  0.126772  0.053216
    H   H190  0.123789  0.097935  0.084441  0.075671
    H   H191  0.810534  0.061625  0.085168  -0.023238
    H   H192  0.762546  0.128923  0.078536  -0.030878
    O   O1    0.445545  0.091436  0.501216  -0.664694
    O   O2    0.591125  0.051754  0.999375  -0.677935
    O   O3    0.051621  0.408802  0.001256  -0.681596
    O   O4    0.408848  0.948803  0.001587  -0.683691
    O   O5    0.945895  0.408570  0.998436  -0.665271
    O   O6    0.591392  0.945960  0.000086  -0.662233
    O   O7    0.054535  0.591355  0.000442  -0.662243
    O   O8    0.408565  0.054524  0.998822  -0.665904
    O   O9    0.445387  0.000800  0.566236  -0.663100
    O   O10   0.000274  0.554137  0.566240  -0.664899
    O   O11   0.551260  0.999916  0.566128  -0.678855
    O   O12   0.091533  0.554001  0.501678  -0.665549
    O   O13   0.999361  0.448265  0.566088  -0.679324
    O   O14   0.448491  0.001846  0.433973  -0.677517
    O   O15   0.998324  0.445394  0.433823  -0.662454
    O   O16   0.554260  0.997613  0.433873  -0.662819
    O   O17   0.002590  0.551161  0.433984  -0.677969
    O   O18   0.948858  0.497668  0.066020  -0.677194
    O   O19   0.498146  0.051615  0.066059  -0.677431
    O   O20   0.054626  0.501904  0.066126  -0.662078
    O   O21   0.502415  0.945845  0.066124  -0.663686
    O   O22   0.945723  0.499677  0.933763  -0.663708
    O   O23   0.554183  0.908643  0.499898  -0.662098
    O   O24   0.500126  0.948850  0.933869  -0.679160
    O   O25   0.051596  0.500567  0.933864  -0.678823
    O   O26   0.499223  0.054725  0.933796  -0.663538
    O   O27   0.408871  0.497638  0.462584  -0.592588
    O   O28   0.500448  0.591346  0.462573  -0.589176
    O   O29   0.591805  0.499767  0.460533  -0.572417
    O   O30   0.502533  0.408413  0.460544  -0.574379
    O   O31   0.408505  0.503238  0.539138  -0.574191
    O   O32   0.496874  0.408766  0.537096  -0.592573
    O   O33   0.591413  0.499485  0.537192  -0.591112
    O   O34   0.908721  0.445445  0.499400  -0.661878
    O   O35   0.500671  0.591669  0.539232  -0.572999
    O   O36   0.908379  0.996591  0.960837  -0.573174
    O   O37   0.996748  0.091065  0.962640  -0.591371
    O   O38   0.091284  0.000388  0.962849  -0.591925
    O   O39   0.000578  0.908153  0.961043  -0.574879
    O   O40   0.908687  0.002497  0.037376  -0.590932
    O   O41   0.000280  0.908817  0.037702  -0.587500
    O   O42   0.091618  0.000381  0.039508  -0.573457
    O   O43   0.002360  0.091759  0.039194  -0.575106
    O   O44   0.602436  0.312424  0.473446  -0.293815
    O   O45   0.448395  0.908879  0.500686  -0.677999
    O   O46   0.312945  0.397291  0.475146  -0.296171
    O   O47   0.396482  0.687202  0.477544  -0.295422
    O   O48   0.687747  0.603445  0.475812  -0.289432
    O   O49   0.605151  0.686931  0.523982  -0.289899
    O   O50   0.313221  0.603923  0.526234  -0.293695
    O   O51   0.395753  0.313548  0.524422  -0.297447
    O   O52   0.686579  0.394763  0.522211  -0.292481
    O   O53   0.105319  0.813243  0.976713  -0.292195
    O   O54   0.813040  0.895592  0.974700  -0.290220
    O   O55   0.895855  0.186624  0.975015  -0.294807
    O   O56   0.091280  0.448278  0.498810  -0.681264
    O   O57   0.186398  0.104767  0.976758  -0.295644
    O   O58   0.102550  0.187399  0.025969  -0.295999
    O   O59   0.812758  0.103158  0.023793  -0.295317
    O   O60   0.896563  0.812623  0.022950  -0.292612
    O   O61   0.187555  0.897071  0.025374  -0.290532
    O   O62   0.582144  0.072827  0.864548  -0.311311
    O   O63   0.070039  0.417554  0.864838  -0.304660
    O   O64   0.416592  0.930432  0.865185  -0.307109
    O   O65   0.927595  0.583066  0.864855  -0.313259
    O   O66   0.583558  0.927933  0.135177  -0.307976
    O   O67   0.551271  0.091186  0.498387  -0.682452
    O   O68   0.072657  0.582415  0.135505  -0.310410
    O   O69   0.417404  0.069818  0.135257  -0.304387
    O   O70   0.930596  0.416412  0.134898  -0.303374
    O   O71   0.083880  0.569457  0.365089  -0.303174
    O   O72   0.572252  0.916554  0.364811  -0.310141
    O   O73   0.917764  0.427530  0.364466  -0.310574
    O   O74   0.430206  0.082571  0.364777  -0.302885
    O   O75   0.082301  0.429774  0.635161  -0.305362
    O   O76   0.569722  0.083443  0.634824  -0.305180
    O   O77   0.916802  0.572231  0.635101  -0.312611
    O   O78   0.908988  0.551233  0.500224  -0.679734
    O   O79   0.427214  0.917986  0.635478  -0.312836
    O   O80   0.948746  0.591119  0.999660  -0.679301
    Zn  Zn1   0.430404  0.999916  0.499904  1.260552
    Zn  Zn2   0.500158  0.499936  0.550145  1.196751
    Zn  Zn3   0.000042  0.999824  0.949857  1.196895
    Zn  Zn4   0.999887  0.000132  0.050429  1.195733
    Zn  Zn5   0.000036  0.569186  0.499913  1.262882
    Zn  Zn6   0.569295  0.000185  0.500176  1.261229
    Zn  Zn7   0.000253  0.430293  0.500129  1.261087
    Zn  Zn8   0.930755  0.500079  0.000099  1.261870
    Zn  Zn9   0.500080  0.069708  0.000129  1.260923
    Zn  Zn10  0.069646  0.499816  0.999812  1.260927
    Zn  Zn11  0.499857  0.930810  0.999820  1.262501
    Zn  Zn12  0.500080  0.500102  0.449578  1.195864
