# generated using pymatgen
data_CuH4C8NO6
_symmetry_space_group_name_H-M   'P 1'
_cell_length_a   14.46645700
_cell_length_b   8.86886000
_cell_length_c   7.34617900
_cell_angle_alpha   104.26328200
_cell_angle_beta   95.85742100
_cell_angle_gamma   89.99982100
_symmetry_Int_Tables_number   1
_chemical_formula_structural   CuH4C8NO6
_chemical_formula_sum   'Cu2 H8 C16 N2 O12'
_cell_volume   908.38935237
_cell_formula_units_Z   2
loop_
 _symmetry_equiv_pos_site_id
 _symmetry_equiv_pos_as_xyz
  1  'x, y, z'
loop_
 _atom_site_type_symbol
 _atom_site_label
 _atom_site_symmetry_multiplicity
 _atom_site_fract_x
 _atom_site_fract_y
 _atom_site_fract_z
 _atom_site_occupancy
  Cu  Cu1  1  0.50921200  0.52376600  0.68619900  1
  Cu  Cu2  1  0.49120700  0.48622500  0.31058400  1
  H  H1  1  0.42310000  0.40116100  0.93875400  1
  H  H2  1  0.57540900  0.61271900  0.05887500  1
  H  H3  1  0.30773900  0.98410400  0.87894500  1
  H  H4  1  0.34552300  0.80236500  0.92808800  1
  H  H5  1  0.42702800  0.92666000  0.85913400  1
  H  H6  1  0.69013000  0.02630700  0.11836000  1
  H  H7  1  0.57067800  0.07963500  0.13733600  1
  H  H8  1  0.65118300  0.20620200  0.06600100  1
  C  C1  1  0.49391300  0.20735700  0.45198200  1
  C  C2  1  0.50598500  0.80101100  0.54465700  1
  C  C3  1  0.32252700  0.50716800  0.49776600  1
  C  C4  1  0.67764800  0.49914600  0.49867200  1
  C  C5  1  0.22257000  0.50474200  0.49639100  1
  C  C6  1  0.77663500  0.49848100  0.49906200  1
  C  C7  1  0.13892500  0.50169600  0.49581000  1
  C  C8  1  0.85990500  0.49778400  0.49865700  1
  C  C9  1  0.04092800  0.49799800  0.49620300  1
  C  C10  1  0.95753400  0.49685200  0.49731000  1
  C  C11  1  0.48844700  0.03824400  0.42519900  1
  C  C12  1  0.50998000  0.97051000  0.57076700  1
  C  C13  1  0.46015800  0.94825500  0.22964300  1
  C  C14  1  0.36647900  0.92481100  0.93945300  1
  C  C15  1  0.53854400  0.06068000  0.76572300  1
  C  C16  1  0.63084700  0.08360900  0.05645000  1
  N  N1  1  0.47775300  0.45757200  0.03078500  1
  N  N2  1  0.52324500  0.54902300  0.96603700  1
  O  O1  1  0.50147100  0.29602800  0.62337300  1
  O  O2  1  0.50040700  0.71314100  0.37333200  1
  O  O3  1  0.49111500  0.26417900  0.30185700  1
  O  O4  1  0.50878000  0.74497200  0.69534500  1
  O  O5  1  0.37378700  0.52818700  0.66005900  1
  O  O6  1  0.62672900  0.47839400  0.33635600  1
  O  O7  1  0.35815800  0.48722000  0.33653000  1
  O  O8  1  0.64246100  0.52265900  0.66073200  1
  O  O9  1  0.50640100  0.84022600  0.15429500  1
  O  O10  1  0.39022300  0.99969500  0.12573400  1
  O  O11  1  0.49512900  0.17297300  0.83946500  1
  O  O12  1  0.60715200  0.00753100  0.87057900  1
