# generated using pymatgen
data_CuH16C18N3O4
_symmetry_space_group_name_H-M   'P 1'
_cell_length_a   19.26831700
_cell_length_b   11.04419900
_cell_length_c   10.02216800
_cell_angle_alpha   110.85627800
_cell_angle_beta   99.25405400
_cell_angle_gamma   90.00971500
_symmetry_Int_Tables_number   1
_chemical_formula_structural   CuH16C18N3O4
_chemical_formula_sum   'Cu2 H32 C36 N6 O8'
_cell_volume   1963.24830950
_cell_formula_units_Z   2
loop_
 _symmetry_equiv_pos_site_id
 _symmetry_equiv_pos_as_xyz
  1  'x, y, z'
loop_
 _atom_site_type_symbol
 _atom_site_label
 _atom_site_symmetry_multiplicity
 _atom_site_fract_x
 _atom_site_fract_y
 _atom_site_fract_z
 _atom_site_occupancy
  Cu  Cu1  1  0.50658600  0.51614100  0.63976000  1
  Cu  Cu2  1  0.49350800  0.47865100  0.35792500  1
  H  H1  1  0.29929700  0.56614000  0.70671400  1
  H  H2  1  0.70030700  0.41305600  0.29023700  1
  H  H3  1  0.17654400  0.56416800  0.71558400  1
  H  H4  1  0.82345300  0.41165500  0.28178900  1
  H  H5  1  0.12855400  0.43412100  0.25611400  1
  H  H6  1  0.87274900  0.55738400  0.74117800  1
  H  H7  1  0.47349600  0.85979200  0.37527500  1
  H  H8  1  0.53105000  0.12985400  0.61781500  1
  H  H9  1  0.53538900  0.94675200  0.70044300  1
  H  H10  1  0.46390500  0.04419100  0.29657000  1
  H  H11  1  0.56071000  0.60429200  0.90601900  1
  H  H12  1  0.43783600  0.39501100  0.09271800  1
  H  H13  1  0.29250200  0.34529700  0.18356600  1
  H  H14  1  0.29586200  0.51634100  0.19985400  1
  H  H15  1  0.19239600  0.30917700  0.99767300  1
  H  H16  1  0.18048600  0.60209300  0.12806000  1
  H  H17  1  0.12766400  0.48293000  0.95880600  1
  H  H18  1  0.70557800  0.48717600  0.80378000  1
  H  H19  1  0.70558400  0.65462700  0.80835200  1
  H  H20  1  0.82906100  0.53054300  0.94302800  1
  H  H21  1  0.77615300  0.80331900  0.00412100  1
  H  H22  1  0.84949300  0.75021600  0.11269100  1
  H  H23  1  0.41162000  0.37750600  0.72595800  1
  H  H24  1  0.38217000  0.40344900  0.88962600  1
  H  H25  1  0.50653900  0.23276500  0.85087100  1
  H  H26  1  0.34881000  0.16737100  0.74813700  1
  H  H27  1  0.42049200  0.04954900  0.75496800  1
  H  H28  1  0.61955500  0.58529500  0.10642100  1
  H  H29  1  0.59026000  0.61536900  0.27199400  1
  H  H30  1  0.50110600  0.75709600  0.11362100  1
  H  H31  1  0.64955000  0.83380200  0.29192100  1
  H  H32  1  0.58451500  0.94090500  0.24229800  1
  C  C1  1  0.49007600  0.25089000  0.43555100  1
  C  C2  1  0.51007500  0.74331800  0.56114600  1
  C  C3  1  0.36497100  0.50362200  0.48169400  1
  C  C4  1  0.63493300  0.49034100  0.51687900  1
  C  C5  1  0.26333000  0.53926100  0.60541000  1
  C  C6  1  0.73642100  0.44589400  0.39227500  1
  C  C7  1  0.19270800  0.53774800  0.61083900  1
  C  C8  1  0.80706800  0.44417400  0.38673700  1
  C  C9  1  0.14422500  0.50003600  0.48510900  1
  C  C10  1  0.85577800  0.48566100  0.51238500  1
  C  C11  1  0.16738100  0.46580900  0.35331500  1
  C  C12  1  0.83312700  0.52526500  0.64479500  1
  C  C13  1  0.23895200  0.47035500  0.34615900  1
  C  C14  1  0.76142100  0.52518500  0.65257300  1
  C  C15  1  0.28786800  0.50472200  0.47518200  1
  C  C16  1  0.71232600  0.48697700  0.52330300  1
  C  C17  1  0.93114700  0.48896000  0.50491000  1
  C  C18  1  0.06876200  0.49693000  0.49229500  1
  C  C19  1  0.48494000  0.11096500  0.40452000  1
  C  C20  1  0.51619100  0.88162900  0.59106600  1
  C  C21  1  0.50541400  0.06552500  0.51074200  1
  C  C22  1  0.49720400  0.92596500  0.48321900  1
  C  C23  1  0.51332200  0.51112300  0.07867000  1
  C  C24  1  0.48902300  0.48059500  0.91789600  1
  C  C25  1  0.26279800  0.43442900  0.20120200  1
  C  C26  1  0.20405400  0.40700800  0.07559700  1
  C  C27  1  0.16875900  0.50327100  0.05280500  1
  C  C28  1  0.73731200  0.56869200  0.79782000  1
  C  C29  1  0.79648700  0.60492600  0.92426600  1
  C  C30  1  0.80804200  0.72659300  0.01851000  1
  C  C31  1  0.42920500  0.37988800  0.83622900  1
  C  C32  1  0.45142700  0.24724300  0.82193400  1
  C  C33  1  0.40376400  0.14759900  0.77209800  1
  C  C34  1  0.57307600  0.61094100  0.16050400  1
  C  C35  1  0.55232100  0.74315600  0.16789100  1
  C  C36  1  0.59800900  0.84495100  0.23806900  1
  N  N1  1  0.02078200  0.45838600  0.36977300  1
  N  N2  1  0.97911000  0.52747000  0.62741200  1
  N  N3  1  0.95282700  0.45445200  0.37593900  1
  N  N4  1  0.04706000  0.53138700  0.62129800  1
  N  N5  1  0.48314200  0.45154400  0.14670300  1
  N  N6  1  0.51690600  0.54417000  0.85091200  1
  O  O1  1  0.49589700  0.32688200  0.57102500  1
  O  O2  1  0.50463600  0.66756100  0.42649200  1
  O  O3  1  0.48815800  0.29435200  0.32911900  1
  O  O4  1  0.51138100  0.70023300  0.66757300  1
  O  O5  1  0.40427600  0.52275400  0.60744500  1
  O  O6  1  0.59564700  0.47169300  0.39071900  1
  O  O7  1  0.39260000  0.48461200  0.36548000  1
  O  O8  1  0.60744500  0.51217600  0.63377100  1
