# generated using pymatgen
data_CuH13C28N3O16
_symmetry_space_group_name_H-M   'P 1'
_cell_length_a   15.88407200
_cell_length_b   15.52063200
_cell_length_c   17.11758000
_cell_angle_alpha   83.72072400
_cell_angle_beta   91.13764600
_cell_angle_gamma   111.33716000
_symmetry_Int_Tables_number   1
_chemical_formula_structural   CuH13C28N3O16
_chemical_formula_sum   'Cu2 H26 C56 N6 O32'
_cell_volume   3906.26383449
_cell_formula_units_Z   2
loop_
 _symmetry_equiv_pos_site_id
 _symmetry_equiv_pos_as_xyz
  1  'x, y, z'
loop_
 _atom_site_type_symbol
 _atom_site_label
 _atom_site_symmetry_multiplicity
 _atom_site_fract_x
 _atom_site_fract_y
 _atom_site_fract_z
 _atom_site_occupancy
  Cu  Cu1  1  0.50484700  0.58830500  0.49762500  1
  Cu  Cu2  1  0.49403700  0.41200100  0.50477600  1
  H  H1  1  0.09269100  0.74593600  0.46865500  1
  H  H2  1  0.90540800  0.25723300  0.48649600  1
  H  H3  1  0.22789700  0.54976600  0.50107100  1
  H  H4  1  0.77032000  0.44892600  0.50910700  1
  H  H5  1  0.20743900  0.27124000  0.50163700  1
  H  H6  1  0.79125200  0.72851100  0.49538300  1
  H  H7  1  0.16581000  0.64234300  0.47049400  1
  H  H8  1  0.83249900  0.36086000  0.48430300  1
  H  H9  1  0.39188300  0.68429300  0.55672100  1
  H  H10  1  0.60983200  0.31578700  0.45163100  1
  H  H11  1  0.39772300  0.84091100  0.55444900  1
  H  H12  1  0.60489500  0.15945900  0.45726800  1
  H  H13  1  0.36379500  0.22961500  0.57695000  1
  H  H14  1  0.62902400  0.77032900  0.41885700  1
  H  H15  1  0.22024200  0.01723800  0.66518100  1
  H  H16  1  0.76440700  0.98174400  0.32327600  1
  H  H17  1  0.06250100  0.91008700  0.54141900  1
  H  H18  1  0.93493400  0.08115800  0.56461600  1
  H  H19  1  0.29313100  0.58227700  0.67816200  1
  H  H20  1  0.60489000  0.29185600  0.30640700  1
  H  H21  1  0.36970500  0.68339200  0.91029800  1
  H  H22  1  0.70819400  0.45206500  0.02601700  1
  H  H23  1  0.36537600  0.71859400  0.06118800  1
  H  H24  1  0.51845100  0.23919500  0.00418300  1
  H  H25  1  0.35140800  0.65763700  0.32442300  1
  H  H26  1  0.55545500  0.23154500  0.73271800  1
  C  C1  1  0.50431300  0.51293600  0.34931200  1
  C  C2  1  0.49452800  0.48718400  0.65308500  1
  C  C3  1  0.67274400  0.55405400  0.50216000  1
  C  C4  1  0.32563300  0.44599400  0.49966400  1
  C  C5  1  0.77192100  0.58479400  0.49955500  1
  C  C6  1  0.22658900  0.41504700  0.49845700  1
  C  C7  1  0.91617500  0.70784200  0.49306100  1
  C  C8  1  0.08249600  0.29212200  0.50183900  1
  C  C9  1  0.82334700  0.67803200  0.49481300  1
  C  C10  1  0.17532400  0.32199900  0.49946800  1
  C  C11  1  0.81381900  0.52066400  0.50177700  1
  C  C12  1  0.18460600  0.47890200  0.49798100  1
  C  C13  1  0.90784700  0.54885400  0.49529700  1
  C  C14  1  0.09066400  0.45141500  0.49543300  1
  C  C15  1  0.95859800  0.64353200  0.49088400  1
  C  C16  1  0.04003600  0.35693800  0.49782600  1
  C  C17  1  0.95214500  0.48488100  0.49352100  1
  C  C18  1  0.04636400  0.51588800  0.49124900  1
  C  C19  1  0.09410600  0.61127400  0.48117100  1
  C  C20  1  0.90432900  0.39052800  0.49074700  1
  C  C21  1  0.05102200  0.67332000  0.48012900  1
  C  C22  1  0.94741800  0.32845800  0.49204900  1
  C  C23  1  0.50836500  0.52035000  0.26165600  1
  C  C24  1  0.49233700  0.47989900  0.74086900  1
  C  C25  1  0.54777800  0.46799000  0.22390700  1
  C  C26  1  0.45333600  0.53154200  0.77921900  1
  C  C27  1  0.55330000  0.47563000  0.14182600  1
  C  C28  1  0.44909300  0.52447900  0.86093600  1
  C  C29  1  0.51789300  0.53451900  0.09704300  1
  C  C30  1  0.48381900  0.46505300  0.90561800  1
  C  C31  1  0.48466800  0.59095800  0.13406700  1
  C  C32  1  0.51677700  0.40893300  0.86805700  1
  C  C33  1  0.47799000  0.58322500  0.21571700  1
  C  C34  1  0.52351100  0.41752900  0.78632900  1
  C  C35  1  0.55232700  0.26049400  0.48053600  1
  C  C36  1  0.44765600  0.73972000  0.52605800  1
  C  C37  1  0.54915100  0.17041500  0.48417400  1
  C  C38  1  0.45120800  0.82988600  0.52372900  1
  C  C39  1  0.47700100  0.09851900  0.52235800  1
  C  C40  1  0.52058400  0.90154300  0.48228800  1
  C  C41  1  0.41066200  0.12015400  0.55850300  1
  C  C42  1  0.58385900  0.87955700  0.44170500  1
  C  C43  1  0.41533600  0.21146100  0.55074000  1
  C  C44  1  0.57964900  0.78828900  0.44890000  1
  C  C45  1  0.33479000  0.04916600  0.60499900  1
  C  C46  1  0.65512100  0.95008500  0.39045200  1
  C  C47  1  0.96623300  0.80821000  0.49527400  1
  C  C48  1  0.03225200  0.19093300  0.51091600  1
  C  C49  1  0.40422600  0.58369500  0.73426000  1
  C  C50  1  0.59532700  0.41453000  0.27039600  1
  C  C51  1  0.39619900  0.56991100  0.89874600  1
  C  C52  1  0.61046900  0.43503300  0.10322200  1
  C  C53  1  0.45588500  0.65925400  0.08508500  1
  C  C54  1  0.54602400  0.34101700  0.91669800  1
  C  C55  1  0.44062600  0.64412100  0.25194900  1
  C  C56  1  0.56177100  0.35831900  0.74923300  1
  N  N1  1  0.51438600  0.53881700  0.01363600  1
  N  N2  1  0.48787500  0.46059900  0.98904700  1
  N  N3  1  0.48333200  0.27900000  0.50995600  1
  N  N4  1  0.51395300  0.72081700  0.49255900  1
  N  N5  1  0.46978100  0.00474600  0.52377200  1
  N  N6  1  0.52747200  0.99524600  0.48089300  1
  O  O1  1  0.51198900  0.58675400  0.38399200  1
  O  O2  1  0.48701600  0.41360900  0.61839600  1
  O  O3  1  0.49392000  0.43263200  0.38999700  1
  O  O4  1  0.50391500  0.56715500  0.61242000  1
  O  O5  1  0.63576100  0.61725900  0.49666500  1
  O  O6  1  0.36269700  0.38307900  0.50606100  1
  O  O7  1  0.62483800  0.46474300  0.50778000  1
  O  O8  1  0.37354200  0.53522500  0.49400100  1
  O  O9  1  0.33100000  0.96908900  0.61860800  1
  O  O10  1  0.26703000  0.07376800  0.63535700  1
  O  O11  1  0.65561300  0.02880800  0.37486300  1
  O  O12  1  0.72115700  0.92590300  0.35655900  1
  O  O13  1  0.93762600  0.86425500  0.46019100  1
  O  O14  1  0.03979900  0.83979500  0.54414700  1
  O  O15  1  0.05898000  0.14059800  0.47663200  1
  O  O16  1  0.96014900  0.15113100  0.56455600  1
  O  O17  1  0.43942000  0.66792000  0.71894600  1
  O  O18  1  0.31765200  0.53674300  0.70804300  1
  O  O19  1  0.66033300  0.45463400  0.30906900  1
  O  O20  1  0.56426200  0.31775600  0.27306200  1
  O  O21  1  0.33961100  0.52551000  0.94951600  1
  O  O22  1  0.41152200  0.66379800  0.87861700  1
  O  O23  1  0.60197600  0.35383000  0.11991000  1
  O  O24  1  0.67403000  0.48949100  0.04577900  1
  O  O25  1  0.50652200  0.71181500  0.03337000  1
  O  O26  1  0.37223800  0.66600200  0.09811100  1
  O  O27  1  0.61867300  0.33447200  0.90400900  1
  O  O28  1  0.49001000  0.28324300  0.97773300  1
  O  O29  1  0.47380900  0.72840800  0.23596200  1
  O  O30  1  0.36714700  0.60619200  0.30434200  1
  O  O31  1  0.62854200  0.39345900  0.70614700  1
  O  O32  1  0.52189400  0.26176700  0.76326600  1
