# generated using pymatgen
data_CuH5C19O4
_symmetry_space_group_name_H-M   'P 1'
_cell_length_a   16.13661400
_cell_length_b   22.35061200
_cell_length_c   16.61409700
_cell_angle_alpha   111.74895800
_cell_angle_beta   89.74134300
_cell_angle_gamma   86.98068600
_symmetry_Int_Tables_number   1
_chemical_formula_structural   CuH5C19O4
_chemical_formula_sum   'Cu2 H10 C38 O8'
_cell_volume   5555.96223727
_cell_formula_units_Z   2
loop_
 _symmetry_equiv_pos_site_id
 _symmetry_equiv_pos_as_xyz
  1  'x, y, z'
loop_
 _atom_site_type_symbol
 _atom_site_label
 _atom_site_symmetry_multiplicity
 _atom_site_fract_x
 _atom_site_fract_y
 _atom_site_fract_z
 _atom_site_occupancy
  Cu  Cu1  1  0.49989900  0.99997300  0.57978500  1
  Cu  Cu2  1  0.50061300  0.00021900  0.42170000  1
  H  H1  1  0.50042500  0.50798900  0.75474700  1
  H  H2  1  0.49705900  0.33032800  0.53780100  1
  H  H3  1  0.49705700  0.33023800  0.79436700  1
  H  H4  1  0.50345200  0.66995000  0.20714100  1
  H  H5  1  0.50008300  0.49220300  0.24677100  1
  H  H6  1  0.50345000  0.66986800  0.46371100  1
  H  H7  1  0.07360600  0.02034700  0.63696300  1
  H  H8  1  0.92149600  0.01680500  0.63517500  1
  H  H9  1  0.92690600  0.97984400  0.36451700  1
  H  H10  1  0.07901700  0.98338500  0.36630600  1
  C  C1  1  0.49630100  0.12573800  0.56371400  1
  C  C2  1  0.66164300  0.99616500  0.49876400  1
  C  C3  1  0.50421000  0.87445400  0.43777100  1
  C  C4  1  0.33886900  0.00402700  0.50272000  1
  C  C5  1  0.49881100  0.42280100  0.78442200  1
  C  C6  1  0.49881300  0.42285000  0.64009300  1
  C  C7  1  0.49691900  0.32292900  0.66241300  1
  C  C8  1  0.49944000  0.45597200  0.72879500  1
  C  C9  1  0.49755300  0.35632900  0.60710900  1
  C  C10  1  0.49755100  0.35627900  0.75102500  1
  C  C11  1  0.49996400  0.48437100  0.53086000  1
  C  C12  1  0.49946800  0.45753200  0.58211300  1
  C  C13  1  0.49446000  0.19530000  0.59858100  1
  C  C14  1  0.49560000  0.25350600  0.62777200  1
  C  C15  1  0.49996200  0.48433300  0.95498300  1
  C  C16  1  0.49946600  0.45743500  0.87698400  1
  C  C17  1  0.50359000  0.67726300  0.33909600  1
  C  C18  1  0.50169700  0.57738800  0.21709100  1
  C  C19  1  0.50169600  0.57734400  0.36142200  1
  C  C20  1  0.50295700  0.64391000  0.25048500  1
  C  C21  1  0.50106800  0.54422000  0.27272100  1
  C  C22  1  0.50295600  0.64386500  0.39440300  1
  C  C23  1  0.50054600  0.51585600  0.04653000  1
  C  C24  1  0.50104300  0.54275300  0.12452900  1
  C  C25  1  0.50054500  0.51582400  0.47065600  1
  C  C26  1  0.50104100  0.54266500  0.41940400  1
  C  C27  1  0.50605100  0.80489200  0.40290600  1
  C  C28  1  0.50490900  0.74668600  0.37373400  1
  C  C29  1  0.95604000  0.00945500  0.57605300  1
  C  C30  1  0.91469700  0.99810400  0.49973400  1
  C  C31  1  0.95907100  0.98874800  0.42442400  1
  C  C32  1  0.04447200  0.99073600  0.42542800  1
  C  C33  1  0.08581500  0.00208700  0.50174600  1
  C  C34  1  0.04144100  0.01144300  0.57705700  1
  C  C35  1  0.82566800  0.99603000  0.49868700  1
  C  C36  1  0.17484400  0.00416100  0.50279300  1
  C  C37  1  0.24953100  0.00592500  0.50367300  1
  C  C38  1  0.75098100  0.99426600  0.49781100  1
  O  O1  1  0.49691800  0.09423100  0.61661600  1
  O  O2  1  0.49753100  0.09444400  0.47933600  1
  O  O3  1  0.62102300  0.99700100  0.56789100  1
  O  O4  1  0.62164400  0.99719100  0.43057200  1
  O  O5  1  0.50298000  0.90574800  0.52214900  1
  O  O6  1  0.50359300  0.90596000  0.38486900  1
  O  O7  1  0.37886800  0.00300100  0.57091200  1
  O  O8  1  0.37948900  0.00319100  0.43359300  1
