# generated using pymatgen
data_CoH6C12NO4
_symmetry_space_group_name_H-M   'P 1'
_cell_length_a   8.56274200
_cell_length_b   9.23783500
_cell_length_c   11.29755600
_cell_angle_alpha   90.53810400
_cell_angle_beta   80.77697300
_cell_angle_gamma   92.59572900
_symmetry_Int_Tables_number   1
_chemical_formula_structural   CoH6C12NO4
_chemical_formula_sum   'Co2 H12 C24 N2 O8'
_cell_volume   881.18990007
_cell_formula_units_Z   2
loop_
 _symmetry_equiv_pos_site_id
 _symmetry_equiv_pos_as_xyz
  1  'x, y, z'
loop_
 _atom_site_type_symbol
 _atom_site_label
 _atom_site_symmetry_multiplicity
 _atom_site_fract_x
 _atom_site_fract_y
 _atom_site_fract_z
 _atom_site_occupancy
  Co  Co1  1  0.99462300  0.85587200  0.00163100  1
  Co  Co2  1  0.00428500  0.14419600  0.99651700  1
  H  H1  1  0.98487400  0.63264100  0.18928000  1
  H  H2  1  0.99499000  0.36601800  0.18561800  1
  H  H3  1  0.13068900  0.37847200  0.72269500  1
  H  H4  1  0.90743800  0.36033400  0.74352000  1
  H  H5  1  0.11796500  0.64244300  0.72715500  1
  H  H6  1  0.89476800  0.62428200  0.74715400  1
  H  H7  1  0.48982800  0.97402600  0.91103400  1
  H  H8  1  0.84907100  0.99696800  0.60664700  1
  H  H9  1  0.50912400  0.02606900  0.08710200  1
  H  H10  1  0.14985700  0.00304400  0.39147600  1
  H  H11  1  0.21605500  0.00272800  0.58539200  1
  H  H12  1  0.78286700  0.99735500  0.41274900  1
  C  C1  1  0.79932200  0.99100800  0.84384500  1
  C  C2  1  0.19962600  0.00904100  0.15427800  1
  C  C3  1  0.24375500  0.99792500  0.81597700  1
  C  C4  1  0.75518400  0.00213400  0.18218800  1
  C  C5  1  0.00020600  0.57108500  0.90188800  1
  C  C6  1  0.99053100  0.57529300  0.10496100  1
  C  C7  1  0.99794200  0.42412900  0.10263200  1
  C  C8  1  0.00801900  0.42945300  0.89959300  1
  C  C9  1  0.01508800  0.41622500  0.76811600  1
  C  C10  1  0.00677400  0.58606900  0.77074200  1
  C  C11  1  0.40682300  0.99538400  0.74779700  1
  C  C12  1  0.52361200  0.98411900  0.81629800  1
  C  C13  1  0.68055100  0.98759800  0.76639200  1
  C  C14  1  0.72489900  0.99472700  0.64489000  1
  C  C15  1  0.61067400  0.99708600  0.57271700  1
  C  C16  1  0.45121500  0.99894600  0.62331200  1
  C  C17  1  0.65846800  0.99826900  0.44986000  1
  C  C18  1  0.54771000  0.00115300  0.37482900  1
  C  C19  1  0.38825000  0.00299100  0.42542100  1
  C  C20  1  0.34045500  0.00182000  0.54828000  1
  C  C21  1  0.59211100  0.00472600  0.25034700  1
  C  C22  1  0.47533200  0.01597200  0.18183700  1
  C  C23  1  0.31839000  0.01244100  0.23173600  1
  C  C24  1  0.27403100  0.00530500  0.35323900  1
  N  N1  1  0.99106400  0.64989600  0.00252700  1
  N  N2  1  0.00775900  0.35010100  0.99790700  1
  O  O1  1  0.84361200  0.86949700  0.88386700  1
  O  O2  1  0.14610300  0.88366500  0.11912800  1
  O  O3  1  0.18027900  0.87617400  0.86535300  1
  O  O4  1  0.80928900  0.87810600  0.13779200  1
  O  O5  1  0.15554900  0.13041200  0.11406100  1
  O  O6  1  0.85261200  0.11652000  0.87913800  1
  O  O7  1  0.18949300  0.12206700  0.86020200  1
  O  O8  1  0.81879200  0.12379300  0.13289900  1
