# Generated by REPEAT Assigner based on pymatgen
data_DB0-m2_o3_o14_f0_nbo.sym.6
_audit_creation_date              2022-05-24
_audit_creation_method            REPEAT_Assigner
_cell_length_a                    43.793474
_cell_length_b                    38.528014
_cell_length_c                    21.495257
_cell_angle_alpha                 90.000000
_cell_angle_beta                  61.475185
_cell_angle_gamma                 90.000000
_cell_volume                      31865.811633
_symmetry_space_group_name_H-M    P1
_symmetry_Int_Tables_number       1
loop_
    _symmetry_equiv_pos_site_id
    _symmetry_equiv_pos_as_xyz
    1  x,y,z
loop_
    _atom_site_type_symbol
    _atom_site_label
    _atom_site_fract_x
    _atom_site_fract_y
    _atom_site_fract_z
    _atom_type_partial_charge
    C   C1    0.065681  0.496789  0.430019  0.753860
    C   C2    0.931453  0.502630  0.384592  -0.462728
    C   C3    0.342681  0.971641  0.694936  -0.136021
    C   C4    0.121484  0.471543  0.341162  -0.107305
    C   C5    0.878516  0.471543  0.658837  -0.107374
    C   C6    0.621484  0.971543  0.341162  -0.107303
    C   C7    0.378516  0.971543  0.658837  -0.107621
    C   C8    0.103720  0.496763  0.391139  -0.099671
    C   C9    0.896280  0.496763  0.608860  -0.099684
    C   C10   0.603720  0.996763  0.391139  -0.099688
    C   C11   0.396280  0.996763  0.608860  -0.099679
    C   C12   0.122146  0.522039  0.404636  -0.088878
    C   C13   0.568547  0.002630  0.615408  -0.462742
    C   C14   0.877854  0.522039  0.595364  -0.088866
    C   C15   0.622146  0.022039  0.404636  -0.088876
    C   C16   0.377854  0.022039  0.595364  -0.088870
    C   C17   0.157940  0.521611  0.369834  -0.105080
    C   C18   0.842060  0.521611  0.630166  -0.105102
    C   C19   0.657940  0.021611  0.369834  -0.105076
    C   C20   0.342060  0.021611  0.630166  -0.105051
    C   C21   0.175860  0.496313  0.320023  0.135595
    C   C22   0.824140  0.496313  0.679977  0.135579
    C   C23   0.675860  0.996313  0.320023  0.135594
    C   C24   0.431453  0.002630  0.384592  -0.462699
    C   C25   0.324140  0.996313  0.679977  0.135524
    C   C26   0.000000  0.434352  0.000000  0.689542
    C   C27   0.500000  0.934352  0.000000  0.689600
    C   C28   0.005431  0.501437  0.877149  0.802323
    C   C29   0.994569  0.501437  0.122851  0.802447
    C   C30   0.505431  0.001437  0.877149  0.802393
    C   C31   0.494569  0.001437  0.122851  0.802451
    C   C32   0.000000  0.565778  0.000000  0.615376
    C   C33   0.500000  0.065778  0.000000  0.615365
    C   C34   0.500000  0.434596  0.000000  0.711057
    C   C35   0.099709  0.508195  0.614760  0.364230
    C   C36   0.000000  0.934596  0.000000  0.711045
    C   C37   0.434199  0.500200  0.065311  0.721136
    C   C38   0.565801  0.500200  0.934689  0.721101
    C   C39   0.934199  0.000200  0.065311  0.721131
    C   C40   0.065801  0.000200  0.934689  0.721108
    C   C41   0.500000  0.566062  0.000000  0.777668
    C   C42   0.000000  0.066062  0.000000  0.777670
    C   C43   0.515221  0.622195  0.033526  -0.318728
    C   C44   0.484779  0.622195  0.966474  -0.318750
    C   C45   0.015221  0.122195  0.033526  -0.318731
    C   C46   0.900291  0.508195  0.385240  0.364227
    C   C47   0.984779  0.122195  0.966474  -0.318746
    C   C48   0.515770  0.658000  0.032574  0.355795
    C   C49   0.484230  0.658000  0.967425  0.355913
    C   C50   0.015770  0.158000  0.032574  0.355808
    C   C51   0.984230  0.158000  0.967425  0.355916
    C   C52   0.500000  0.676144  0.000000  -0.164215
    C   C53   0.000000  0.176144  0.000000  -0.164224
    C   C54   0.500000  0.604113  0.000000  -0.027985
    C   C55   0.000000  0.104113  0.000000  -0.027988
    C   C56   0.511882  0.732330  0.937233  -0.216732
    C   C57   0.599709  0.008195  0.614760  0.364219
    C   C58   0.488118  0.732330  0.062767  -0.216679
    C   C59   0.011882  0.232330  0.937233  -0.216735
    C   C60   0.988118  0.232330  0.062767  -0.216686
    C   C61   0.011693  0.268100  0.937243  -0.125102
    C   C62   0.988307  0.268100  0.062757  -0.125129
    C   C63   0.511693  0.768100  0.937243  -0.125135
    C   C64   0.488307  0.768100  0.062757  -0.125146
    C   C65   0.000000  0.286213  0.000000  0.019516
    C   C66   0.500000  0.786213  0.000000  0.019562
    C   C67   0.500000  0.714241  0.000000  0.323968
    C   C68   0.400291  0.008195  0.385240  0.364210
    C   C69   0.000000  0.214241  0.000000  0.323970
    C   C70   0.011057  0.342373  0.041042  -0.378460
    C   C71   0.988943  0.342373  0.958958  -0.378566
    C   C72   0.511057  0.842373  0.041042  -0.378467
    C   C73   0.488943  0.842373  0.958958  -0.378625
    C   C74   0.011998  0.378192  0.039678  0.369150
    C   C75   0.988003  0.378192  0.960322  0.369263
    C   C76   0.511998  0.878192  0.039678  0.369196
    C   C77   0.488003  0.878192  0.960322  0.369339
    C   C78   0.000000  0.396296  0.000000  -0.202733
    C   C79   0.100195  0.514473  0.677205  0.304761
    C   C80   0.500000  0.896296  0.000000  -0.202774
    C   C81   0.000000  0.324296  0.000000  0.177478
    C   C82   0.500000  0.824296  0.000000  0.177462
    C   C83   0.505414  0.378459  0.940119  -0.083035
    C   C84   0.494586  0.378459  0.059881  -0.083046
    C   C85   0.005414  0.878459  0.940119  -0.083037
    C   C86   0.994586  0.878459  0.059881  -0.083048
    C   C87   0.505259  0.342688  0.940227  -0.162750
    C   C88   0.494741  0.342688  0.059773  -0.162730
    C   C89   0.005259  0.842688  0.940227  -0.162751
    C   C90   0.899805  0.514473  0.322795  0.304821
    C   C91   0.994741  0.842688  0.059773  -0.162731
    C   C92   0.500000  0.324480  0.000000  0.106222
    C   C93   0.000000  0.824480  0.000000  0.106225
    C   C94   0.500000  0.396560  0.000000  -0.058678
    C   C95   0.000000  0.896560  0.000000  -0.058667
    C   C96   0.477507  0.268071  0.059967  -0.138873
    C   C97   0.522493  0.268071  0.940033  -0.138976
    C   C98   0.977507  0.768071  0.059967  -0.138873
    C   C99   0.022493  0.768071  0.940033  -0.138972
    C   C100  0.977567  0.732302  0.060022  -0.145177
    C   C101  0.600195  0.014473  0.677205  0.304785
    C   C102  0.022433  0.732302  0.939978  -0.145049
    C   C103  0.477567  0.232302  0.060022  -0.145176
    C   C104  0.522433  0.232302  0.939978  -0.145044
    C   C105  0.000000  0.714087  0.000000  0.081786
    C   C106  0.500000  0.214087  0.000000  0.081784
    C   C107  0.500000  0.286286  0.000000  0.069519
    C   C108  0.000000  0.786286  0.000000  0.069517
    C   C109  0.030769  0.657686  0.963551  -0.134706
    C   C110  0.969231  0.657686  0.036449  -0.134714
    C   C111  0.530769  0.157686  0.963551  -0.134706
    C   C112  0.934319  0.496789  0.569981  0.753696
    C   C113  0.399805  0.014473  0.322795  0.304831
    C   C114  0.469231  0.157686  0.036449  -0.134722
    C   C115  0.030754  0.621914  0.963288  -0.121960
    C   C116  0.969246  0.621914  0.036712  -0.121968
    C   C117  0.530754  0.121914  0.963288  -0.121977
    C   C118  0.469246  0.121914  0.036712  -0.121966
    C   C119  0.000000  0.603813  0.000000  0.014682
    C   C120  0.500000  0.103813  0.000000  0.014708
    C   C121  0.000000  0.675893  0.000000  0.075809
    C   C122  0.500000  0.175893  0.000000  0.075811
    C   C123  0.215695  0.430237  0.361677  0.121759
    C   C124  0.069743  0.513567  0.740489  -0.457315
    C   C125  0.784305  0.430237  0.638323  0.121791
    C   C126  0.715695  0.930237  0.361677  0.121760
    C   C127  0.284305  0.930237  0.638323  0.121790
    C   C128  0.567238  0.675983  0.013191  0.051451
    C   C129  0.432762  0.675983  0.986809  0.051435
    C   C130  0.067238  0.175983  0.013191  0.051450
    C   C131  0.932762  0.175983  0.986809  0.051409
    C   C132  0.058742  0.393055  0.046856  0.032891
    C   C133  0.941258  0.393055  0.953144  0.032840
    C   C134  0.558742  0.893055  0.046856  0.032905
    C   C135  0.930257  0.513567  0.259511  -0.457418
    C   C136  0.441258  0.893055  0.953144  0.032047
    C   C137  0.140131  0.475725  0.532461  0.034500
    C   C138  0.859869  0.475725  0.467539  0.034393
    C   C139  0.640131  0.975725  0.532461  0.034500
    C   C140  0.359869  0.975725  0.467539  0.034323
    C   C141  0.142086  0.493377  0.694998  0.215059
    C   C142  0.857914  0.493377  0.305002  0.215089
    C   C143  0.642086  0.993377  0.694998  0.215063
    C   C144  0.357914  0.993377  0.305002  0.215114
    C   C145  0.569743  0.013567  0.740489  -0.457333
    C   C146  0.430257  0.013567  0.259511  -0.457419
    C   C147  0.038409  0.504829  0.742698  0.262299
    C   C148  0.961591  0.504829  0.257302  0.262430
    C   C149  0.538409  0.004829  0.742698  0.262306
    C   C150  0.461591  0.004829  0.257302  0.262432
    C   C151  0.037758  0.501112  0.678936  0.097147
    C   C152  0.565681  0.996789  0.430019  0.753892
    C   C153  0.962242  0.501112  0.321064  0.097045
    C   C154  0.537758  0.001112  0.678936  0.097132
    C   C155  0.462242  0.001112  0.321064  0.097035
    C   C156  0.006219  0.497252  0.679010  -0.094781
    C   C157  0.993781  0.497252  0.320990  -0.094587
    C   C158  0.506219  0.997252  0.679010  -0.094730
    C   C159  0.493781  0.997252  0.320990  -0.094589
    C   C160  0.975839  0.496224  0.741853  -0.184410
    C   C161  0.024161  0.496224  0.258147  -0.184436
    C   C162  0.475839  0.996224  0.741853  -0.184471
    C   C163  0.434319  0.996789  0.569981  0.753815
    C   C164  0.524161  0.996224  0.258147  -0.184428
    C   C165  0.976445  0.497567  0.804981  -0.010410
    C   C166  0.023556  0.497567  0.195019  -0.010344
    C   C167  0.476445  0.997567  0.804981  -0.010331
    C   C168  0.523556  0.997567  0.195019  -0.010351
    C   C169  0.007420  0.501513  0.806678  -0.266978
    C   C170  0.992580  0.501513  0.193322  -0.267227
    C   C171  0.507420  0.001513  0.806678  -0.267028
    C   C172  0.492580  0.001513  0.193322  -0.267229
    C   C173  0.378205  0.478193  0.080463  -0.112697
    C   C174  0.003820  0.496876  0.613631  0.920688
    C   C175  0.621795  0.478193  0.919537  -0.112736
    C   C176  0.878205  0.978193  0.080463  -0.112701
    C   C177  0.121795  0.978193  0.919537  -0.112735
    C   C178  0.342410  0.477113  0.116855  -0.155833
    C   C179  0.657590  0.477113  0.883145  -0.155740
    C   C180  0.842410  0.977113  0.116855  -0.155836
    C   C181  0.157590  0.977113  0.883145  -0.155741
    C   C182  0.324265  0.498352  0.174712  0.147780
    C   C183  0.675735  0.498352  0.825288  0.147726
    C   C184  0.824265  0.998352  0.174712  0.147780
    C   C185  0.996180  0.496876  0.386369  0.920403
    C   C186  0.175735  0.998352  0.825288  0.147726
    C   C187  0.342183  0.520251  0.196714  -0.174591
    C   C188  0.657817  0.520251  0.803286  -0.174481
    C   C189  0.842183  0.020251  0.196714  -0.174595
    C   C190  0.157817  0.020251  0.803286  -0.174485
    C   C191  0.378024  0.520465  0.161853  -0.089221
    C   C192  0.621976  0.520465  0.838147  -0.089342
    C   C193  0.878024  0.020465  0.161853  -0.089216
    C   C194  0.121976  0.020465  0.838147  -0.089337
    C   C195  0.396173  0.499658  0.103174  -0.049808
    C   C196  0.503820  0.996876  0.613631  0.920660
    C   C197  0.603827  0.499658  0.896826  -0.049745
    C   C198  0.896173  0.999658  0.103174  -0.049800
    C   C199  0.103827  0.999658  0.896826  -0.049746
    C   C200  0.267654  0.528159  0.226439  -0.167306
    C   C201  0.732346  0.528159  0.773561  -0.167242
    C   C202  0.767654  0.028159  0.226439  -0.167307
    C   C203  0.232346  0.028159  0.773561  -0.167259
    C   C204  0.231857  0.527466  0.260491  -0.153325
    C   C205  0.768143  0.527466  0.739509  -0.153303
    C   C206  0.731857  0.027466  0.260491  -0.153326
    C   C207  0.496180  0.996876  0.386369  0.920413
    C   C208  0.268143  0.027466  0.739509  -0.153282
    C   C209  0.214127  0.496348  0.282780  -0.069165
    C   C210  0.785873  0.496348  0.717220  -0.069167
    C   C211  0.714127  0.996348  0.282780  -0.069169
    C   C212  0.285873  0.996348  0.717220  -0.069186
    C   C213  0.232946  0.465804  0.271025  0.396309
    C   C214  0.767054  0.465804  0.728975  0.396260
    C   C215  0.732946  0.965804  0.271025  0.396318
    C   C216  0.267054  0.965804  0.728975  0.396270
    C   C217  0.268797  0.466535  0.234257  -0.369326
    C   C218  0.068547  0.502630  0.615408  -0.462750
    C   C219  0.731203  0.466535  0.765743  -0.369177
    C   C220  0.768797  0.966535  0.234257  -0.369330
    C   C221  0.231203  0.966535  0.765743  -0.369179
    C   C222  0.286251  0.497672  0.212375  0.094147
    C   C223  0.713749  0.497672  0.787625  0.093972
    C   C224  0.786251  0.997672  0.212375  0.094149
    C   C225  0.213749  0.997672  0.787625  0.093980
    C   C226  0.157319  0.471641  0.305064  -0.136232
    C   C227  0.842681  0.471641  0.694936  -0.136187
    C   C228  0.657319  0.971641  0.305064  -0.136228
    Cu  Cu1   0.000000  0.530596  0.500000  1.014766
    Cu  Cu2   0.499650  0.500325  0.939724  0.988936
    Cu  Cu3   0.000350  0.000325  0.060276  0.988934
    Cu  Cu4   0.999650  0.000325  0.939724  0.988952
    Cu  Cu5   0.500000  0.030596  0.500000  1.014783
    Cu  Cu6   0.000000  0.462946  0.500000  1.029893
    Cu  Cu7   0.500000  0.962946  0.500000  1.029887
    Cu  Cu8   0.966290  0.500063  0.028164  0.927293
    Cu  Cu9   0.033710  0.500063  0.971836  0.927222
    Cu  Cu10  0.466290  0.000063  0.028164  0.927383
    Cu  Cu11  0.533710  0.000063  0.971836  0.927224
    Cu  Cu12  0.500350  0.500325  0.060276  0.988919
    H   H1    0.951322  0.493574  0.741608  0.116453
    H   H2    0.928601  0.521125  0.213053  0.234834
    H   H3    0.444779  0.108418  0.065307  0.127963
    H   H4    0.220847  0.455189  0.380666  0.009633
    H   H5    0.235680  0.410983  0.356036  0.015284
    H   H6    0.189619  0.420787  0.401029  0.013384
    H   H7    0.779153  0.455189  0.619334  0.009632
    H   H8    0.764320  0.410983  0.643963  0.015277
    H   H9    0.810381  0.420787  0.598971  0.013383
    H   H10   0.720847  0.955189  0.380666  0.009631
    H   H11   0.735680  0.910983  0.356036  0.015284
    H   H12   0.689619  0.920787  0.401029  0.013383
    H   H13   0.571399  0.021125  0.786947  0.234783
    H   H14   0.279153  0.955189  0.619334  0.009630
    H   H15   0.264320  0.910983  0.643963  0.015276
    H   H16   0.310381  0.920787  0.598971  0.013384
    H   H17   0.570246  0.671565  0.959570  -0.005415
    H   H18   0.581413  0.655516  0.025320  0.048814
    H   H19   0.578276  0.701754  0.014149  0.050311
    H   H20   0.429754  0.671565  0.040430  -0.005438
    H   H21   0.418587  0.655516  0.974680  0.048824
    H   H22   0.421724  0.701754  0.985851  0.050315
    H   H23   0.070246  0.171565  0.959570  -0.005415
    H   H24   0.428601  0.021125  0.213053  0.234830
    H   H25   0.081413  0.155516  0.025320  0.048815
    H   H26   0.078276  0.201754  0.014149  0.050311
    H   H27   0.929754  0.171565  0.040430  -0.005432
    H   H28   0.918587  0.155516  0.974680  0.048832
    H   H29   0.921724  0.201754  0.985851  0.050324
    H   H30   0.068574  0.389213  0.989272  0.008782
    H   H31   0.066843  0.370973  0.068725  0.031709
    H   H32   0.069883  0.417434  0.054848  0.078626
    H   H33   0.931426  0.389213  0.010728  0.008746
    H   H34   0.933157  0.370973  0.931275  0.031710
    H   H35   0.952089  0.495090  0.853265  0.128742
    H   H36   0.930117  0.417434  0.945152  0.078663
    H   H37   0.568574  0.889213  0.989272  0.008773
    H   H38   0.566843  0.870973  0.068725  0.031706
    H   H39   0.569883  0.917434  0.054848  0.078626
    H   H40   0.431426  0.889213  0.010728  0.008959
    H   H41   0.433157  0.870973  0.931275  0.031941
    H   H42   0.430117  0.917434  0.945152  0.078873
    H   H43   0.133688  0.467572  0.490635  0.068229
    H   H44   0.126695  0.458369  0.578884  0.018115
    H   H45   0.168568  0.473621  0.512199  0.046688
    H   H46   0.047911  0.495090  0.146735  0.128794
    H   H47   0.866312  0.467572  0.509364  0.068271
    H   H48   0.873305  0.458369  0.421116  0.018137
    H   H49   0.831432  0.473621  0.487801  0.046720
    H   H50   0.633688  0.967572  0.490635  0.068231
    H   H51   0.626695  0.958369  0.578884  0.018117
    H   H52   0.668568  0.973621  0.512199  0.046689
    H   H53   0.366312  0.967572  0.509364  0.068311
    H   H54   0.373305  0.958369  0.421116  0.018152
    H   H55   0.331432  0.973621  0.487801  0.046736
    H   H56   0.170136  0.489564  0.658066  0.007801
    H   H57   0.452089  0.995090  0.853265  0.128723
    H   H58   0.127601  0.470439  0.691846  -0.022943
    H   H59   0.137965  0.496005  0.749849  0.002934
    H   H60   0.829864  0.489564  0.341934  0.007805
    H   H61   0.872399  0.470439  0.308154  -0.022944
    H   H62   0.862035  0.496005  0.250151  0.002912
    H   H63   0.670136  0.989564  0.658066  0.007801
    H   H64   0.627601  0.970439  0.691846  -0.022945
    H   H65   0.637965  0.996005  0.749849  0.002934
    H   H66   0.329864  0.989564  0.341934  0.007801
    H   H67   0.372399  0.970439  0.308154  -0.022950
    H   H68   0.547911  0.995090  0.146735  0.128795
    H   H69   0.362035  0.996005  0.250151  0.002903
    H   H70   0.391953  0.461533  0.034994  0.136304
    H   H71   0.608047  0.461533  0.965006  0.136321
    H   H72   0.891953  0.961533  0.034994  0.136303
    H   H73   0.048678  0.493574  0.258392  0.116484
    H   H74   0.108047  0.961533  0.965006  0.136320
    H   H75   0.328658  0.460096  0.098735  0.112172
    H   H76   0.671341  0.460096  0.901266  0.112141
    H   H77   0.828658  0.960096  0.098735  0.112175
    H   H78   0.171341  0.960096  0.901266  0.112140
    H   H79   0.328258  0.536769  0.242362  0.118631
    H   H80   0.671742  0.536769  0.757638  0.118634
    H   H81   0.828258  0.036769  0.242362  0.118633
    H   H82   0.171742  0.036769  0.757638  0.118636
    H   H83   0.391636  0.537569  0.180136  0.120592
    H   H84   0.451322  0.993574  0.741608  0.116471
    H   H85   0.608364  0.537569  0.819863  0.120622
    H   H86   0.891636  0.037569  0.180136  0.120590
    H   H87   0.108364  0.037569  0.819863  0.120620
    H   H88   0.281026  0.552696  0.208842  0.113253
    H   H89   0.718974  0.552696  0.791157  0.113232
    H   H90   0.781026  0.052696  0.208842  0.113253
    H   H91   0.218974  0.052696  0.791157  0.113235
    H   H92   0.217925  0.551605  0.268360  0.120768
    H   H93   0.782075  0.551605  0.731640  0.120761
    H   H94   0.717925  0.051605  0.268360  0.120769
    H   H95   0.548678  0.993574  0.258392  0.116483
    H   H96   0.282075  0.051605  0.731640  0.120757
    H   H97   0.283181  0.442578  0.224969  0.165952
    H   H98   0.716819  0.442578  0.775031  0.165917
    H   H99   0.783181  0.942578  0.224969  0.165953
    H   H100  0.216819  0.942578  0.775031  0.165916
    H   H101  0.170597  0.452440  0.264297  0.096068
    H   H102  0.829403  0.452440  0.735703  0.096060
    H   H103  0.670597  0.952440  0.264297  0.096065
    H   H104  0.329403  0.952440  0.735703  0.096031
    H   H105  0.107603  0.451903  0.328778  0.131569
    H   H106  0.069153  0.499517  0.565009  0.218740
    H   H107  0.892397  0.451903  0.671222  0.131552
    H   H108  0.607603  0.951903  0.328778  0.131570
    H   H109  0.392397  0.951903  0.671222  0.131629
    H   H110  0.108870  0.541832  0.444065  0.119867
    H   H111  0.891130  0.541832  0.555934  0.119860
    H   H112  0.608870  0.041832  0.444065  0.119867
    H   H113  0.391130  0.041832  0.555934  0.119854
    H   H114  0.171685  0.540896  0.383407  0.101293
    H   H115  0.828315  0.540896  0.616593  0.101300
    H   H116  0.671685  0.040896  0.383407  0.101291
    H   H117  0.930847  0.499517  0.434991  0.218785
    H   H118  0.328315  0.040896  0.616593  0.101287
    H   H119  0.527511  0.608614  0.059650  0.184312
    H   H120  0.472489  0.608614  0.940350  0.184313
    H   H121  0.027511  0.108614  0.059650  0.184311
    H   H122  0.972489  0.108614  0.940350  0.184312
    H   H123  0.521888  0.718566  0.887519  0.119795
    H   H124  0.478112  0.718566  0.112481  0.119784
    H   H125  0.021888  0.218566  0.887519  0.119794
    H   H126  0.978112  0.218566  0.112481  0.119785
    H   H127  0.021631  0.281728  0.887400  0.108943
    H   H128  0.569153  0.999517  0.565009  0.218741
    H   H129  0.978369  0.281728  0.112600  0.108936
    H   H130  0.521631  0.781728  0.887400  0.108959
    H   H131  0.478369  0.781728  0.112600  0.108939
    H   H132  0.019953  0.328578  0.073163  0.193189
    H   H133  0.980047  0.328578  0.926837  0.193207
    H   H134  0.519953  0.828578  0.073163  0.193187
    H   H135  0.480047  0.828578  0.926837  0.193225
    H   H136  0.509366  0.391956  0.892790  0.113651
    H   H137  0.490634  0.391956  0.107210  0.113655
    H   H138  0.009366  0.891956  0.892790  0.113652
    H   H139  0.430847  0.999517  0.434991  0.218761
    H   H140  0.990634  0.891956  0.107210  0.113656
    H   H141  0.508564  0.329261  0.893298  0.115773
    H   H142  0.491436  0.329261  0.106702  0.115761
    H   H143  0.008564  0.829261  0.893298  0.115773
    H   H144  0.991436  0.829261  0.106702  0.115762
    H   H145  0.459154  0.281487  0.107273  0.110395
    H   H146  0.540846  0.281487  0.892727  0.110417
    H   H147  0.959154  0.781487  0.107273  0.110395
    H   H148  0.040846  0.781487  0.892727  0.110415
    H   H149  0.960170  0.718886  0.108202  0.112123
    H   H150  0.071399  0.521125  0.786947  0.234783
    H   H151  0.039830  0.718886  0.891798  0.112081
    H   H152  0.460170  0.218886  0.108202  0.112123
    H   H153  0.539830  0.218886  0.891798  0.112080
    H   H154  0.055330  0.671112  0.936049  0.111384
    H   H155  0.944670  0.671112  0.063951  0.111385
    H   H156  0.555330  0.171112  0.936049  0.111385
    H   H157  0.444670  0.171112  0.063951  0.111385
    H   H158  0.055221  0.608418  0.934693  0.127935
    H   H159  0.944779  0.608418  0.065307  0.127958
    H   H160  0.555221  0.108418  0.934693  0.127942
    O   O1    0.049919  0.525271  0.464749  -0.638971
    O   O2    0.007426  0.525279  0.403394  -0.672830
    O   O3    0.492574  0.025279  0.596606  -0.672903
    O   O4    0.507426  0.025279  0.403394  -0.672842
    O   O5    0.012699  0.468238  0.575123  -0.701776
    O   O6    0.987301  0.468238  0.424877  -0.701790
    O   O7    0.512699  0.968238  0.575123  -0.701772
    O   O8    0.487301  0.968238  0.424877  -0.701791
    O   O9    0.972377  0.450670  0.004883  -0.551143
    O   O10   0.027623  0.450670  0.995117  -0.551100
    O   O11   0.472377  0.950670  0.004883  -0.551243
    O   O12   0.950081  0.525271  0.535251  -0.638899
    O   O13   0.527623  0.950670  0.995117  -0.551126
    O   O14   0.975413  0.510325  0.931817  -0.629474
    O   O15   0.024587  0.510325  0.068183  -0.629506
    O   O16   0.475413  0.010325  0.931817  -0.629510
    O   O17   0.524587  0.010325  0.068183  -0.629497
    O   O18   0.032087  0.490062  0.884362  -0.613167
    O   O19   0.967913  0.490062  0.115638  -0.613205
    O   O20   0.532087  0.990062  0.884362  -0.613174
    O   O21   0.467913  0.990062  0.115638  -0.613204
    O   O22   0.970828  0.549460  0.042530  -0.584346
    O   O23   0.549919  0.025271  0.464749  -0.638987
    O   O24   0.029172  0.549460  0.957470  -0.584255
    O   O25   0.470828  0.049460  0.042530  -0.584381
    O   O26   0.529172  0.049460  0.957470  -0.584262
    O   O27   0.490298  0.450904  0.060703  -0.607556
    O   O28   0.509702  0.450904  0.939297  -0.607571
    O   O29   0.990298  0.950904  0.060703  -0.607562
    O   O30   0.009702  0.950904  0.939297  -0.607579
    O   O31   0.450796  0.510302  0.099895  -0.623205
    O   O32   0.549204  0.510302  0.900105  -0.623196
    O   O33   0.950796  0.010302  0.099895  -0.623211
    O   O34   0.450081  0.025271  0.535251  -0.638933
    O   O35   0.049204  0.010302  0.900105  -0.623202
    O   O36   0.450199  0.490326  0.998301  -0.635223
    O   O37   0.549801  0.490326  0.001699  -0.635220
    O   O38   0.950199  0.990326  0.998301  -0.635223
    O   O39   0.049801  0.990326  0.001699  -0.635223
    O   O40   0.510306  0.549747  0.040871  -0.630548
    O   O41   0.489694  0.549747  0.959129  -0.630570
    O   O42   0.010306  0.049747  0.040871  -0.630548
    O   O43   0.989694  0.049747  0.959129  -0.630573
    O   O44   0.216484  0.434769  0.296449  -0.335960
    O   O45   0.048858  0.468292  0.429756  -0.632975
    O   O46   0.783516  0.434769  0.703551  -0.335973
    O   O47   0.716484  0.934769  0.296449  -0.335962
    O   O48   0.283516  0.934769  0.703551  -0.335974
    O   O49   0.532139  0.675312  0.063869  -0.336333
    O   O50   0.467861  0.675312  0.936131  -0.336338
    O   O51   0.032139  0.175312  0.063869  -0.336336
    O   O52   0.967861  0.175312  0.936131  -0.336335
    O   O53   0.022522  0.395583  0.081675  -0.331140
    O   O54   0.977478  0.395583  0.918325  -0.331159
    O   O55   0.522522  0.895583  0.081675  -0.331158
    O   O56   0.951143  0.468292  0.570244  -0.632918
    O   O57   0.477478  0.895583  0.918325  -0.331047
    O   O58   0.129787  0.510100  0.551747  -0.337913
    O   O59   0.870213  0.510100  0.448252  -0.337902
    O   O60   0.629787  0.010100  0.551747  -0.337917
    O   O61   0.370213  0.010100  0.448252  -0.337889
    O   O62   0.130656  0.523454  0.676160  -0.385326
    O   O63   0.869344  0.523454  0.323840  -0.385328
    O   O64   0.630656  0.023454  0.676160  -0.385334
    O   O65   0.369344  0.023454  0.323840  -0.385335
    O   O66   0.548858  0.968292  0.429756  -0.632982
    O   O67   0.451143  0.968292  0.570244  -0.632932
    O   O68   0.992574  0.525279  0.596606  -0.672886
