# generated using pymatgen
data_ZnH9C14(NO2)2
_symmetry_space_group_name_H-M   'P 1'
_cell_length_a   8.53948600
_cell_length_b   12.72294300
_cell_length_c   14.39107200
_cell_angle_alpha   90.89005300
_cell_angle_beta   90.06284300
_cell_angle_gamma   95.46205100
_symmetry_Int_Tables_number   1
_chemical_formula_structural   ZnH9C14(NO2)2
_chemical_formula_sum   'Zn2 H18 C28 N4 O8'
_cell_volume   1556.26009043
_cell_formula_units_Z   2
loop_
 _symmetry_equiv_pos_site_id
 _symmetry_equiv_pos_as_xyz
  1  'x, y, z'
loop_
 _atom_site_type_symbol
 _atom_site_label
 _atom_site_symmetry_multiplicity
 _atom_site_fract_x
 _atom_site_fract_y
 _atom_site_fract_z
 _atom_site_occupancy
  Zn  Zn1  1  0.50246000  0.51329500  0.89730300  1
  Zn  Zn2  1  0.49754000  0.48670500  0.10269700  1
  H  H1  1  0.29709100  0.85883700  0.99596400  1
  H  H2  1  0.70290900  0.14116300  0.00403600  1
  H  H3  1  0.79303900  0.84908400  0.99883600  1
  H  H4  1  0.20696200  0.15091600  0.00116400  1
  H  H5  1  0.01545300  0.57185500  0.04565000  1
  H  H6  1  0.98454700  0.42814500  0.95435100  1
  H  H7  1  0.47885600  0.32891100  0.68798700  1
  H  H8  1  0.36281100  0.26524000  0.59678200  1
  H  H9  1  0.57474800  0.26552400  0.59592700  1
  H  H10  1  0.52114400  0.67108900  0.31201300  1
  H  H11  1  0.42525200  0.73447600  0.40407300  1
  H  H12  1  0.63718900  0.73476000  0.40321900  1
  H  H13  1  0.46944100  0.29069500  0.33927900  1
  H  H14  1  0.57105500  0.24808500  0.43798700  1
  H  H15  1  0.35901300  0.24746000  0.43886300  1
  H  H16  1  0.53055900  0.70930500  0.66072100  1
  H  H17  1  0.64098800  0.75254000  0.56113700  1
  H  H18  1  0.42894500  0.75191500  0.56201300  1
  C  C1  1  0.17052400  0.70870900  0.02057300  1
  C  C2  1  0.82947700  0.29129100  0.97942700  1
  C  C3  1  0.18271800  0.81610200  0.00516600  1
  C  C4  1  0.81728200  0.18389800  0.99483400  1
  C  C5  1  0.04836300  0.86943000  0.00340900  1
  C  C6  1  0.95163700  0.13057000  0.99659100  1
  C  C7  1  0.90135200  0.81270800  0.00756400  1
  C  C8  1  0.09864800  0.18729200  0.99243600  1
  C  C9  1  0.89098900  0.70570100  0.02237800  1
  C  C10  1  0.10901100  0.29429900  0.97762300  1
  C  C11  1  0.02495000  0.65563300  0.03397000  1
  C  C12  1  0.97505000  0.34436700  0.96603100  1
  C  C13  1  0.74127000  0.64109700  0.01529300  1
  C  C14  1  0.25873100  0.35890300  0.98470700  1
  C  C15  1  0.69507500  0.35422400  0.98593700  1
  C  C16  1  0.30492500  0.64577600  0.01406300  1
  C  C17  1  0.48588400  0.39994600  0.45877900  1
  C  C18  1  0.51411700  0.60005400  0.54122100  1
  C  C19  1  0.49750400  0.48918400  0.40400600  1
  C  C20  1  0.50249600  0.51081600  0.59599400  1
  C  C21  1  0.51161300  0.58924300  0.44522800  1
  C  C22  1  0.48838700  0.41075700  0.55477300  1
  C  C23  1  0.49552200  0.47878200  0.30432800  1
  C  C24  1  0.50447800  0.52121800  0.69567200  1
  C  C25  1  0.47557300  0.31281700  0.61226400  1
  C  C26  1  0.52442700  0.68718300  0.38773600  1
  C  C27  1  0.47057200  0.29101400  0.41611100  1
  C  C28  1  0.52942800  0.70898600  0.58388900  1
  N  N1  1  0.06375600  0.98056400  0.99506300  1
  N  N2  1  0.93624400  0.01943600  0.00493700  1
  N  N3  1  0.50540400  0.52638100  0.77601600  1
  N  N4  1  0.49459600  0.47361900  0.22398400  1
  O  O1  1  0.68455400  0.59464900  0.09034300  1
  O  O2  1  0.31544600  0.40535100  0.90965700  1
  O  O3  1  0.68289500  0.62047100  0.93191000  1
  O  O4  1  0.31710500  0.37952900  0.06809000  1
  O  O5  1  0.65366900  0.40210400  0.91089700  1
  O  O6  1  0.34633100  0.59789600  0.08910300  1
  O  O7  1  0.64314700  0.37632400  0.06919800  1
  O  O8  1  0.35685300  0.62367600  0.93080200  1
