# Generated by REPEAT Assigner based on pymatgen
data_DB0-m3_o4_o23_f0_pcu.sym.27_sqe
_audit_creation_date              2022-05-24
_audit_creation_method            REPEAT_Assigner
_cell_length_a                    15.956523
_cell_length_b                    10.986748
_cell_length_c                    9.832632
_cell_angle_alpha                 90.004536
_cell_angle_beta                  89.989672
_cell_angle_gamma                 89.995533
_cell_volume                      1723.761644
_symmetry_space_group_name_H-M    P1
_symmetry_Int_Tables_number       1
loop_
    _symmetry_equiv_pos_site_id
    _symmetry_equiv_pos_as_xyz
    1  x,y,z
loop_
    _atom_site_type_symbol
    _atom_site_label
    _atom_site_fract_x
    _atom_site_fract_y
    _atom_site_fract_z
    _atom_type_partial_charge
    O   O1   0.500943  0.314827  0.619047  -0.679633
    O   O2   0.500946  0.314168  0.383982  -0.623045
    C   C1   0.500954  0.257696  0.501546  0.822780
    O   O3   0.376394  0.496710  0.618372  -0.620265
    O   O4   0.376430  0.495870  0.383275  -0.627450
    C   C2   0.337517  0.496521  0.500818  0.713810
    Zn  Zn1  0.501248  0.496424  0.655786  1.053447
    Zn  Zn2  0.501321  0.495319  0.346140  0.982291
    O   O5   0.501564  0.677803  0.617695  -0.719861
    O   O6   0.501610  0.676554  0.383265  -0.631780
    O   O7   0.626119  0.495740  0.618483  -0.678682
    O   O8   0.626155  0.494842  0.383723  -0.679639
    C   C3   0.501706  0.734258  0.499847  0.898093
    C   C4   0.665072  0.495239  0.501109  0.836249
    C   C5   0.048680  0.423110  0.621172  -0.168261
    C   C6   0.048650  0.439652  0.370079  -0.161337
    C   C7   0.954187  0.428160  0.376920  -0.097192
    H   H1   0.926599  0.340222  0.635834  0.069139
    H   H2   0.067012  0.326358  0.608870  0.032871
    H   H3   0.066269  0.498064  0.282644  0.035448
    H   H4   0.076801  0.348186  0.356236  0.036488
    H   H5   0.936856  0.330651  0.384673  0.028930
    H   H6   0.925957  0.466341  0.283121  0.044426
    C   C8   0.755004  0.495215  0.501120  -0.177905
    C   C9   0.080380  0.496259  0.500904  0.702109
    C   C10  0.954078  0.432689  0.628196  -0.147866
    C   C11  0.922207  0.495641  0.501152  0.478255
    C   C12  0.953836  0.625894  0.499454  0.324827
    C   C13  0.048451  0.625865  0.511415  -0.294785
    C   C14  0.830521  0.495347  0.501135  -0.332052
    C   C15  0.172067  0.496465  0.500844  -0.414769
    C   C16  0.247585  0.496552  0.500817  -0.102211
    H   H7   0.066968  0.665060  0.610920  0.052697
    H   H8   0.075683  0.681981  0.428722  0.086889
    H   H9   0.926640  0.676861  0.586253  -0.001552
    H   H10  0.076298  0.458816  0.716674  0.046164
    H   H11  0.935858  0.486081  0.719251  0.017045
    C   C17  0.503325  0.055995  0.616702  0.157081
    C   C18  0.500981  0.124401  0.500046  -0.254500
    C   C19  0.498904  0.060542  0.378199  -0.246997
    H   H12  0.497007  0.108247  0.282168  0.157972
    C   C20  0.499113  0.933757  0.376529  0.442498
    C   C21  0.501517  0.867872  0.497705  -0.485161
    C   C22  0.503601  0.934984  0.615469  0.214103
    C   C23  0.507032  0.923254  0.765632  -0.107272
    C   C24  0.506712  0.065308  0.767065  -0.237421
    H   H13  0.448943  0.883098  0.808323  0.062828
    H   H14  0.567101  0.883720  0.801226  0.073007
    H   H15  0.448429  0.103965  0.810589  0.098807
    H   H16  0.566578  0.104864  0.803507  0.085568
    C   C25  0.439921  0.445318  0.067592  0.017645
    N   N1   0.501048  0.494412  0.142694  -0.023253
    C   C26  0.564396  0.546791  0.072366  -0.024886
    H   H17  0.615660  0.589117  0.126388  0.165730
    C   C27  0.564279  0.547598  0.929934  -0.082270
    H   H18  0.615555  0.590244  0.876233  0.172943
    N   N2   0.500709  0.496263  0.859236  -0.063977
    C   C28  0.439722  0.446272  0.933973  0.235897
    C   C29  0.358256  0.382554  0.920422  -0.363742
    C   C30  0.358620  0.381350  0.080261  0.358240
    H   H19  0.308693  0.441923  0.877442  0.131362
    H   H20  0.364798  0.290701  0.875067  0.159385
    H   H21  0.308372  0.436693  0.127654  0.036127
    F   F1   0.930485  0.682036  0.379501  -0.300730
    F   F2   0.496769  0.876723  0.254355  -0.234461
    F   F3   0.368350  0.265313  0.132144  -0.248197
