# Generated by REPEAT Assigner based on pymatgen
data_DB0-m9_o3_o13_f0_sra.sym.38_sqe
_audit_creation_date              2022-05-24
_audit_creation_method            REPEAT_Assigner
_cell_length_a                    6.332533
_cell_length_b                    21.861625
_cell_length_c                    23.002223
_cell_angle_alpha                 113.370435
_cell_angle_beta                  90.683777
_cell_angle_gamma                 90.714950
_cell_volume                      2922.442124
_symmetry_space_group_name_H-M    P1
_symmetry_Int_Tables_number       1
loop_
    _symmetry_equiv_pos_site_id
    _symmetry_equiv_pos_as_xyz
    1  x,y,z
loop_
    _atom_site_type_symbol
    _atom_site_label
    _atom_site_fract_x
    _atom_site_fract_y
    _atom_site_fract_z
    _atom_type_partial_charge
    O  O1   0.566176  0.486274  0.575479  -0.541685
    O  O2   0.183071  0.457522  0.408356  -0.525463
    O  O3   0.982924  0.569798  0.483240  -0.376802
    C  C1   0.349861  0.421182  0.398041  0.538340
    O  O4   0.276777  0.428357  0.514980  -0.422350
    O  O5   0.069021  0.541413  0.590034  -0.531114
    C  C2   0.397424  0.447363  0.567167  0.558662
    O  O6   0.475163  0.423898  0.444874  -0.364414
    O  O7   0.379034  0.553063  0.514543  -0.564239
    V  V1   0.101560  0.494091  0.498073  1.292472
    O  O8   0.784842  0.585978  0.556311  -0.433414
    C  C3   0.909633  0.582600  0.601954  0.589268
    O  O9   0.687048  0.523134  0.425511  -0.554190
    C  C4   0.864665  0.555944  0.432387  0.559353
    V  V2   0.602327  0.510013  0.502123  1.304636
    O  O10  0.873732  0.451397  0.487894  -0.574886
    C  C5   0.767420  0.889722  0.127687  -0.034877
    C  C6   0.769042  0.850909  0.162288  -0.139220
    H  H1   0.627367  0.846800  0.186180  0.123318
    C  C7   0.951271  0.819609  0.167807  0.044703
    C  C8   0.132538  0.828349  0.138876  -0.131997
    H  H2   0.276234  0.803909  0.142646  0.093045
    C  C9   0.129680  0.867609  0.104177  -0.030977
    H  H3   0.269969  0.873241  0.080337  0.081132
    C  C10  0.946325  0.898472  0.098511  -0.071420
    C  C11  0.134123  0.765277  0.230025  -0.211530
    H  H4   0.283045  0.785450  0.222496  0.165373
    C  C12  0.128036  0.728296  0.266845  -0.176691
    H  H5   0.272683  0.719118  0.287213  0.120559
    C  C13  0.938161  0.702452  0.276834  0.154864
    C  C14  0.754956  0.714463  0.250342  -0.145354
    H  H6   0.604236  0.696093  0.258594  0.136878
    C  C15  0.760551  0.752205  0.214689  -0.216189
    H  H7   0.615078  0.760386  0.194176  0.108347
    C  C16  0.949659  0.778019  0.204475  0.167560
    C  C17  0.757292  0.620768  0.308741  -0.126681
    H  H8   0.636399  0.613831  0.273128  0.079731
    C  C18  0.740849  0.585666  0.346637  -0.044645
    H  H9   0.606326  0.552760  0.341070  0.094738
    C  C19  0.893275  0.592768  0.392120  -0.002446
    C  C20  0.066333  0.634181  0.398736  -0.162170
    H  H10  0.186800  0.639759  0.434267  0.113965
    C  C21  0.084417  0.668984  0.360131  -0.046422
    H  H11  0.218453  0.702129  0.366056  0.081498
    C  C22  0.927953  0.663137  0.315645  -0.016685
    C  C23  0.924946  0.640356  0.661953  -0.022103
    C  C24  0.876104  0.862143  0.839646  -0.037964
    C  C25  0.701819  0.805247  0.739443  -0.272495
    C  C26  0.726727  0.860879  0.795042  -0.067970
    C  C27  0.001186  0.807701  0.828696  -0.223778
    C  C28  0.975358  0.751830  0.773154  0.195594
    C  C29  0.825522  0.750575  0.728587  0.248601
    C  C30  0.799781  0.694777  0.673032  -0.266725
    C  C31  0.074295  0.641520  0.706536  -0.042435
    C  C32  0.099079  0.697118  0.762221  -0.267342
    H  H12  0.684058  0.694148  0.637859  0.137257
    H  H13  0.173530  0.598947  0.697500  0.082803
    H  H14  0.584390  0.804321  0.704592  0.144309
    H  H15  0.216594  0.698010  0.797036  0.141039
    H  H16  0.627700  0.903480  0.803983  0.098638
    H  H17  0.117059  0.808412  0.863862  0.128207
    C  C33  0.347216  0.362715  0.338577  0.002630
    C  C34  0.444065  0.142311  0.161734  -0.047808
    C  C35  0.619686  0.206703  0.260078  -0.274445
    C  C36  0.603547  0.149807  0.205485  -0.032043
    C  C37  0.297770  0.191908  0.172694  -0.147040
    C  C38  0.314412  0.249316  0.227798  0.131157
    C  C39  0.476107  0.256581  0.271195  0.252484
    C  C40  0.493106  0.313262  0.326410  -0.278382
    C  C41  0.184907  0.355386  0.295828  -0.073763
    C  C42  0.167420  0.298878  0.240836  -0.210281
    H  H18  0.618258  0.318232  0.360451  0.136355
    H  H19  0.067682  0.393637  0.306229  0.087890
    H  H20  0.745737  0.212385  0.294039  0.153158
    H  H21  0.034651  0.293594  0.209421  0.157519
    H  H22  0.719195  0.111258  0.196206  0.096172
    C  C43  0.262623  0.081779  0.845241  -0.057648
    H  H23  0.146484  0.042184  0.835806  0.095799
    C  C44  0.261452  0.119516  0.809400  -0.177164
    H  H24  0.145865  0.108031  0.771541  0.105606
    C  C45  0.408800  0.170410  0.821274  0.083750
    C  C46  0.558281  0.182669  0.869162  -0.114970
    H  H25  0.672778  0.222820  0.880019  0.094454
    C  C47  0.558739  0.144884  0.905102  -0.168624
    H  H26  0.674133  0.155284  0.942988  0.135986
    C  C48  0.410450  0.094504  0.893236  0.022718
    C  C49  0.581303  0.248342  0.781907  -0.177207
    H  H27  0.724998  0.246604  0.806854  0.122008
    C  C50  0.577681  0.286857  0.746758  -0.136250
    H  H28  0.719005  0.314115  0.745046  0.120671
    C  C51  0.397895  0.288880  0.712950  0.103078
    C  C52  0.222024  0.251650  0.714587  -0.177991
    H  H29  0.078406  0.253392  0.689601  0.121551
    C  C53  0.225640  0.213127  0.749749  -0.140297
    H  H30  0.084374  0.185841  0.751467  0.121416
    C  C54  0.405313  0.211223  0.783663  0.092408
    C  C55  0.244503  0.318326  0.627995  -0.100006
    H  H31  0.130004  0.278132  0.616874  0.098804
    C  C56  0.243717  0.356715  0.592609  -0.150804
    H  H32  0.128134  0.346711  0.554836  0.117036
    C  C57  0.391822  0.407248  0.604962  0.000350
    C  C58  0.539679  0.419509  0.652860  -0.018766
    H  H33  0.655517  0.459262  0.662714  0.081027
    C  C59  0.541189  0.381189  0.688119  -0.188318
    H  H34  0.656657  0.392422  0.725971  0.102270
    C  C60  0.394156  0.330131  0.675765  0.065858
    O  O11  0.326640  0.080882  0.054397  -0.029842
    O  O12  0.525590  0.075120  0.984035  -0.623165
    O  O13  0.731913  0.961388  0.910726  -0.570063
    C  C61  0.404786  0.055254  0.931846  0.609665
    O  O14  0.619007  0.049212  0.092272  -0.333024
    O  O15  0.818141  0.935308  0.018896  -0.433288
    C  C62  0.448364  0.084012  0.101990  0.249101
    O  O16  0.236107  0.016452  0.924121  -0.578700
    O  O17  0.422634  0.951550  0.987028  -0.549772
    V  V3   0.700381  0.010302  0.002526  1.454009
    O  O18  0.113976  0.982989  0.075915  -0.593162
    C  C63  0.947461  0.945169  0.066920  0.657222
    O  O19  0.016744  0.917793  0.945273  -0.506216
    C  C64  0.891372  0.920295  0.899339  0.650625
    V  V4   0.199169  0.994297  0.998471  1.255002
    O  O20  0.928087  0.052815  0.011727  -0.545878
    C  C65  0.578339  0.924464  0.123998  0.554144
    O  O21  0.433535  0.929994  0.160103  -0.478466
    O  O22  0.565399  0.951765  0.079114  -0.507361
    H  H35  0.423476  0.972403  0.081746  0.402819
    C  C66  0.128739  0.183544  0.125796  0.630813
    O  O23  0.056575  0.128130  0.094163  -0.498932
    O  O24  0.052625  0.238227  0.116115  -0.606103
    H  H36  0.938359  0.223363  0.081971  0.422000
