# generated using pymatgen
data_Fe2H23C52NO17
_symmetry_space_group_name_H-M   'P 1'
_cell_length_a   14.23097900
_cell_length_b   14.26811000
_cell_length_c   11.62166700
_cell_angle_alpha   95.63011200
_cell_angle_beta   94.19015700
_cell_angle_gamma   99.82871500
_symmetry_Int_Tables_number   1
_chemical_formula_structural   Fe2H23C52NO17
_chemical_formula_sum   'Fe2 H23 C52 N1 O17'
_cell_volume   2304.19116934
_cell_formula_units_Z   1
loop_
 _symmetry_equiv_pos_site_id
 _symmetry_equiv_pos_as_xyz
  1  'x, y, z'
loop_
 _atom_site_type_symbol
 _atom_site_label
 _atom_site_symmetry_multiplicity
 _atom_site_fract_x
 _atom_site_fract_y
 _atom_site_fract_z
 _atom_site_occupancy
  Fe  Fe1  1  0.50155700  0.99803200  0.25191900  1
  Fe  Fe2  1  0.49987800  0.00784800  0.75301600  1
  H  H1  1  0.85497100  0.97785700  0.23070000  1
  H  H2  1  0.80926200  0.01695400  0.81722300  1
  H  H3  1  0.97319900  0.02898400  0.80114700  1
  H  H4  1  0.19982200  0.99006000  0.18941700  1
  H  H5  1  0.09533700  0.11697800  0.31892600  1
  H  H6  1  0.10295600  0.04297900  0.51160400  1
  H  H7  1  0.02909200  0.85716800  0.46985700  1
  H  H8  1  0.97611400  0.82143700  0.24205400  1
  H  H9  1  0.70684300  0.61425800  0.96190300  1
  H  H10  1  0.57177600  0.64389600  0.07190500  1
  H  H11  1  0.40808900  0.61210200  0.97509800  1
  H  H12  1  0.67902100  0.55648800  0.75384100  1
  H  H13  1  0.37979700  0.55257800  0.76745800  1
  H  H14  1  0.51320900  0.37115300  0.73685100  1
  H  H15  1  0.52116700  0.71181200  0.69035900  1
  H  H16  1  0.48506800  0.29500800  0.31475200  1
  H  H17  1  0.49486800  0.63599800  0.26827900  1
  H  H18  1  0.32888600  0.45137600  0.25116900  1
  H  H19  1  0.62786900  0.45362500  0.23776000  1
  H  H20  1  0.30092200  0.39340000  0.04317300  1
  H  H21  1  0.43578800  0.36285500  0.93330000  1
  H  H22  1  0.59943800  0.39399500  0.03015700  1
  H  H23  1  0.14145900  0.10961800  0.75497400  1
  C  C1  1  0.84576800  0.98439600  0.13923100  1
  C  C2  1  0.75427700  0.98537800  0.08995200  1
  C  C3  1  0.74132300  0.99571000  0.97201800  1
  C  C4  1  0.81974200  0.00897600  0.90855000  1
  C  C5  1  0.91028000  0.00730600  0.95826100  1
  C  C6  1  0.92393500  0.99351700  0.07342800  1
  C  C7  1  0.98660000  0.01856000  0.89124600  1
  C  C8  1  0.07820900  0.01652300  0.93851900  1
  C  C9  1  0.09273900  0.00220600  0.05361400  1
  C  C10  1  0.01574500  0.99085500  0.12172300  1
  C  C11  1  0.15455300  0.02770500  0.87002300  1
  C  C12  1  0.24729600  0.02527400  0.91608600  1
  C  C13  1  0.26131200  0.01283400  0.03342500  1
  C  C14  1  0.18454200  0.99938800  0.09947900  1
  C  C15  1  0.07440500  0.00461600  0.42818300  1
  C  C16  1  0.03613000  0.90822300  0.40678900  1
  C  C17  1  0.00872100  0.88971100  0.28923400  1
  C  C18  1  0.03143500  0.97568900  0.24399600  1
  C  C19  1  0.67545000  0.98108500  0.16671600  1
  C  C20  1  0.50498200  0.82016500  0.33036600  1
  C  C21  1  0.35598300  0.01935000  0.09514600  1
  C  C22  1  0.48336600  0.14643500  0.41411800  1
  C  C23  1  0.52114400  0.86022900  0.59085300  1
  C  C24  1  0.64683500  0.98726700  0.90880100  1
  C  C25  1  0.50139000  0.18669100  0.67488100  1
  C  C26  1  0.32694800  0.02965000  0.83921100  1
  C  C27  1  0.63494100  0.60008400  0.91931900  1
  C  C28  1  0.49983300  0.26215400  0.59601200  1
  C  C29  1  0.55919100  0.61689300  0.98094100  1
  C  C30  1  0.46744000  0.59887700  0.92668900  1
  C  C31  1  0.61921700  0.56695700  0.80285300  1
  C  C32  1  0.52756600  0.54973400  0.74808800  1
  C  C33  1  0.45147500  0.56472900  0.81047700  1
  C  C34  1  0.50741900  0.35651600  0.64366200  1
  C  C35  1  0.50679400  0.43052900  0.57379000  1
  C  C36  1  0.51286900  0.52479400  0.62201000  1
  C  C37  1  0.50903900  0.59722800  0.55060600  1
  C  C38  1  0.51400800  0.69116700  0.59801300  1
  C  C39  1  0.51304300  0.76423100  0.52946300  1
  C  C40  1  0.49300000  0.24257400  0.47563100  1
  C  C41  1  0.49267600  0.31571900  0.40709900  1
  C  C42  1  0.49846300  0.40977700  0.45450800  1
  C  C43  1  0.49495700  0.48226100  0.38310100  1
  C  C44  1  0.50097900  0.57651400  0.43132600  1
  C  C45  1  0.50034200  0.65053300  0.36147100  1
  C  C46  1  0.38861800  0.44052400  0.20220900  1
  C  C47  1  0.48024100  0.45732900  0.25702100  1
  C  C48  1  0.55622300  0.44181400  0.19470300  1
  C  C49  1  0.37280900  0.40727000  0.08578200  1
  C  C50  1  0.44844300  0.38995200  0.02423400  1
  C  C51  1  0.50695700  0.74474600  0.40914400  1
  C  C52  1  0.54017600  0.40759900  0.07851300  1
  N  N1  1  0.07132100  0.04517000  0.32861000  1
  O  O1  1  0.59201800  0.00008300  0.13036600  1
  O  O2  1  0.50951300  0.79983900  0.21853700  1
  O  O3  1  0.69076800  0.96535100  0.27527900  1
  O  O4  1  0.49789500  0.90760700  0.37096400  1
  O  O5  1  0.36927200  0.95913000  0.17077600  1
  O  O6  1  0.42329200  0.09346300  0.08828800  1
  O  O7  1  0.54245700  0.13012100  0.33583400  1
  O  O8  1  0.40755900  0.08165700  0.42307800  1
  O  O9  1  0.46170200  0.87539300  0.66913400  1
  O  O10  1  0.59565200  0.92636200  0.58120600  1
  O  O11  1  0.63149100  0.04891100  0.83580800  1
  O  O12  1  0.58105200  0.91152900  0.91403600  1
  O  O13  1  0.31534700  0.05293100  0.73335800  1
  O  O14  1  0.50301000  0.09799900  0.63367800  1
  O  O15  1  0.40804600  0.00406200  0.87325400  1
  O  O16  1  0.50122500  0.20805400  0.78729300  1
  O  O17  1  0.13706200  0.03962800  0.75565900  1
