# generated using pymatgen
data_Cu2H20C33(N3O7)2
_symmetry_space_group_name_H-M   'P 1'
_cell_length_a   11.03366500
_cell_length_b   15.54891800
_cell_length_c   16.98192200
_cell_angle_alpha   96.36597100
_cell_angle_beta   89.99655300
_cell_angle_gamma   92.84876700
_symmetry_Int_Tables_number   1
_chemical_formula_structural   Cu2H20C33(N3O7)2
_chemical_formula_sum   'Cu2 H20 C33 N6 O14'
_cell_volume   2891.85860364
_cell_formula_units_Z   1
loop_
 _symmetry_equiv_pos_site_id
 _symmetry_equiv_pos_as_xyz
  1  'x, y, z'
loop_
 _atom_site_type_symbol
 _atom_site_label
 _atom_site_symmetry_multiplicity
 _atom_site_fract_x
 _atom_site_fract_y
 _atom_site_fract_z
 _atom_site_occupancy
  Cu  Cu1  1  0.49023100  0.41448900  0.49160800  1
  Cu  Cu2  1  0.49912000  0.58766600  0.50024000  1
  H  H1  1  0.89369200  0.63205100  0.49082100  1
  H  H2  1  0.89629500  0.43891200  0.51015600  1
  H  H3  1  0.11594700  0.63260800  0.49945900  1
  H  H4  1  0.08491700  0.43309500  0.48688700  1
  H  H5  1  0.51455400  0.37996000  0.73928100  1
  H  H6  1  0.51525400  0.38852800  0.88221200  1
  H  H7  1  0.46802300  0.34390200  0.09540800  1
  H  H8  1  0.44876500  0.35269600  0.23850400  1
  H  H9  1  0.45773900  0.65152200  0.75320200  1
  H  H10  1  0.45721900  0.66008700  0.89714200  1
  H  H11  1  0.56983300  0.61940600  0.25801800  1
  H  H12  1  0.58846800  0.28393000  0.58978000  1
  H  H13  1  0.59351700  0.13003800  0.58175700  1
  H  H14  1  0.65933300  0.73082500  0.58111000  1
  H  H15  1  0.37601900  0.26619300  0.38081400  1
  H  H16  1  0.38011600  0.10725500  0.37110200  1
  H  H17  1  0.34435800  0.71893700  0.44282300  1
  H  H18  1  0.66477200  0.75486900  0.12078600  1
  H  H19  1  0.84575700  0.89903600  0.67000500  1
  H  H20  1  0.15857000  0.87151900  0.38588000  1
  C  C1  1  0.49998600  0.49246600  0.34429600  1
  C  C2  1  0.26196400  0.49933500  0.49322800  1
  C  C3  1  0.48980900  0.51000100  0.64844500  1
  C  C4  1  0.72765400  0.50293800  0.49999000  1
  C  C5  1  0.93343900  0.57081200  0.49655500  1
  C  C6  1  0.86030700  0.50086500  0.50298800  1
  C  C7  1  0.06755400  0.56975900  0.49664500  1
  C  C8  1  0.12915500  0.49695500  0.49213300  1
  C  C9  1  0.50702400  0.48729700  0.25792600  1
  C  C10  1  0.54551800  0.55926700  0.22213300  1
  C  C11  1  0.56093000  0.55401300  0.14112000  1
  C  C12  1  0.52759200  0.47655200  0.09462200  1
  C  C13  1  0.49180400  0.40451200  0.13099100  1
  C  C14  1  0.48102100  0.40963000  0.21205400  1
  C  C15  1  0.50253200  0.44711900  0.85516900  1
  C  C16  1  0.50171800  0.44177800  0.77328400  1
  C  C17  1  0.48593100  0.52574200  0.90017900  1
  C  C18  1  0.48700700  0.51504900  0.73552400  1
  C  C19  1  0.47038800  0.59320700  0.78079800  1
  C  C20  1  0.46936000  0.59833400  0.86242300  1
  C  C21  1  0.41753400  0.75692100  0.47355100  1
  C  C22  1  0.41108700  0.84568600  0.48435900  1
  C  C23  1  0.50328900  0.89588000  0.52575100  1
  C  C24  1  0.59321300  0.85399500  0.56181400  1
  C  C25  1  0.59212300  0.76426200  0.55190000  1
  C  C26  1  0.54228800  0.15737400  0.53707700  1
  C  C27  1  0.54230400  0.24640900  0.54034000  1
  C  C28  1  0.48133400  0.10711700  0.47619400  1
  C  C29  1  0.42613800  0.23621800  0.42416300  1
  C  C30  1  0.42540800  0.14713300  0.41918700  1
  C  C31  1  0.62301400  0.62884700  0.10948700  1
  C  C32  1  0.69022500  0.90200900  0.61095200  1
  C  C33  1  0.29783600  0.88080700  0.45897800  1
  N  N1  1  0.52492300  0.46874800  0.01081200  1
  N  N2  1  0.48633200  0.53362200  0.98401800  1
  N  N3  1  0.50606700  0.71738800  0.50795200  1
  N  N4  1  0.50861500  0.98752700  0.53134300  1
  N  N5  1  0.47658700  0.01580600  0.46929800  1
  N  N6  1  0.48305100  0.28499100  0.48487200  1
  O  O1  1  0.49889400  0.42021100  0.37749100  1
  O  O2  1  0.49855000  0.56892400  0.38540600  1
  O  O3  1  0.31466800  0.42542100  0.49172000  1
  O  O4  1  0.32278200  0.57397700  0.49505100  1
  O  O5  1  0.49110900  0.43356400  0.60729300  1
  O  O6  1  0.49042300  0.58215700  0.61521900  1
  O  O7  1  0.66691200  0.42842600  0.49757000  1
  O  O8  1  0.67526800  0.57692900  0.50080200  1
  O  O9  1  0.68706400  0.61854800  0.05102600  1
  O  O10  1  0.61573900  0.71146400  0.14956100  1
  O  O11  1  0.68548500  0.97939200  0.63160900  1
  O  O12  1  0.78734400  0.85802200  0.63639100  1
  O  O13  1  0.25386400  0.94178300  0.49839600  1
  O  O14  1  0.23494400  0.84000900  0.39329200  1
