# Generated by REPEAT Assigner based on pymatgen
data_DB0-m3_o88_o23_f0_fsc.sym.14_sqe
_audit_creation_date              2022-05-24
_audit_creation_method            REPEAT_Assigner
_cell_length_a                    6.551348
_cell_length_b                    13.773996
_cell_length_c                    14.217838
_cell_angle_alpha                 100.586920
_cell_angle_beta                  89.905277
_cell_angle_gamma                 100.169960
_cell_volume                      1240.709369
_symmetry_space_group_name_H-M    P1
_symmetry_Int_Tables_number       1
loop_
    _symmetry_equiv_pos_site_id
    _symmetry_equiv_pos_as_xyz
    1  x,y,z
loop_
    _atom_site_type_symbol
    _atom_site_label
    _atom_site_fract_x
    _atom_site_fract_y
    _atom_site_fract_z
    _atom_type_partial_charge
    C   C1   0.578653  0.173497  0.942822  -0.060515
    H   H1   0.738936  0.169463  0.927505  0.097539
    C   C2   0.439619  0.086897  0.948004  -0.239688
    H   H2   0.490504  0.015255  0.934272  0.125853
    C   C3   0.238108  0.091798  0.973899  0.235214
    C   C4   0.174969  0.183650  0.990109  -0.225872
    H   H3   0.016336  0.189592  0.006200  0.162377
    C   C5   0.312676  0.269933  0.983111  -0.043275
    C   C6   0.516348  0.265590  0.961236  -0.132750
    C   C7   0.095241  0.999068  0.982848  -0.217538
    C   C8   0.904461  0.000161  0.016207  -0.218541
    H   H4   0.150053  0.928924  0.962026  0.117733
    H   H5   0.849651  0.070305  0.037028  0.123668
    C   C9   0.560091  0.912327  0.051054  -0.231920
    H   H6   0.509200  0.983968  0.064783  0.130912
    C   C10  0.421063  0.825727  0.056240  -0.066979
    H   H7   0.260777  0.829756  0.071557  0.100868
    C   C11  0.483376  0.733636  0.037828  -0.154890
    C   C12  0.687048  0.729294  0.015953  -0.047227
    C   C13  0.824749  0.815579  0.008953  -0.227687
    H   H8   0.983384  0.809639  0.992864  0.162982
    C   C14  0.761601  0.907430  0.025159  0.232359
    O   O1   0.160314  0.398888  0.073788  -0.722921
    O   O2   0.191702  0.391518  0.910999  -0.708790
    C   C15  0.230614  0.362358  0.990893  0.842300
    O   O3   0.765760  0.383397  0.897561  -0.719188
    O   O4   0.737810  0.398661  0.061333  -0.707639
    C   C16  0.674279  0.356620  0.973426  0.862452
    O   O5   0.839413  0.600338  0.925277  -0.739239
    O   O6   0.808025  0.607708  0.088065  -0.713120
    C   C17  0.769114  0.636870  0.008172  0.855848
    O   O7   0.233966  0.615829  0.101503  -0.748801
    O   O8   0.261916  0.600565  0.937733  -0.746368
    C   C18  0.325448  0.642605  0.025638  0.926343
    Zn  Zn1  0.013512  0.492554  0.893833  1.111904
    Zn  Zn2  0.986213  0.506673  0.105232  1.102471
    C   C19  0.204240  0.559923  0.561123  -0.183613
    C   C20  0.822828  0.539049  0.566719  -0.120436
    C   C21  0.833037  0.560402  0.465892  0.247195
    H   H9   0.250586  0.627994  0.436031  0.084799
    H   H10  0.205020  0.638902  0.596082  0.072595
    H   H11  0.679329  0.484793  0.573527  0.076922
    H   H12  0.822441  0.609924  0.618377  0.046282
    H   H13  0.881691  0.642154  0.468297  0.027342
    N   N1   0.975076  0.513128  0.229523  -0.017813
    C   C22  0.009745  0.494301  0.587060  0.433739
    C   C23  0.205272  0.552029  0.453473  -0.132531
    C   C24  0.990140  0.505025  0.412028  0.266547
    C   C25  0.943931  0.396208  0.423572  0.265773
    C   C26  0.990435  0.390412  0.526499  0.169191
    C   C27  0.980063  0.510478  0.310351  -0.081076
    C   C28  0.019719  0.488790  0.688724  -0.124254
    N   N2   0.024650  0.486101  0.769543  -0.012645
    H   H14  0.138394  0.362759  0.531389  0.041734
    H   H15  0.041820  0.352156  0.375518  0.036633
    H   H16  0.343425  0.534659  0.585478  0.056304
    H   H17  0.317290  0.504069  0.422754  0.060418
    F   F1   0.640201  0.527945  0.420480  -0.237854
    F   F2   0.831104  0.325902  0.558745  -0.237875
    F   F3   0.736940  0.357624  0.400797  -0.255252
