# Generated by REPEAT Assigner based on pymatgen
data_DB0-m3_o3_o11_f0_pcu.sym.1
_audit_creation_date              2022-05-24
_audit_creation_method            REPEAT_Assigner
_cell_length_a                    19.482006
_cell_length_b                    18.273851
_cell_length_c                    11.140186
_cell_angle_alpha                 90.000000
_cell_angle_beta                  90.007379
_cell_angle_gamma                 90.000000
_cell_volume                      3966.031848
_symmetry_space_group_name_H-M    P1
_symmetry_Int_Tables_number       1
loop_
    _symmetry_equiv_pos_site_id
    _symmetry_equiv_pos_as_xyz
    1  x,y,z
loop_
    _atom_site_type_symbol
    _atom_site_label
    _atom_site_fract_x
    _atom_site_fract_y
    _atom_site_fract_z
    _atom_type_partial_charge
    O   O1   0.397730  0.562808  0.498162  -0.684545
    O   O2   0.602270  0.562808  0.501838  -0.684535
    O   O3   0.397736  0.436444  0.500032  -0.693882
    O   O4   0.602264  0.436444  0.499968  -0.693867
    C   C1   0.365716  0.499621  0.498848  0.772992
    C   C2   0.634284  0.499621  0.501152  0.772948
    O   O5   0.500977  0.562759  0.321278  -0.725003
    O   O6   0.499023  0.562759  0.678722  -0.725001
    O   O7   0.500012  0.436391  0.320940  -0.687025
    O   O8   0.499988  0.436391  0.679060  -0.687027
    C   C3   0.500666  0.499731  0.265153  0.836310
    C   C4   0.499334  0.499731  0.734847  0.836312
    Zn  Zn1  0.500000  0.582902  0.500000  1.087648
    Zn  Zn2  0.500000  0.416301  0.500000  1.071760
    C   C5   0.500238  0.441224  0.933450  -0.007444
    C   C6   0.499761  0.441224  0.066551  -0.007449
    C   C7   0.498752  0.502027  0.866315  -0.343235
    C   C8   0.501248  0.502027  0.133685  -0.343226
    H   H1   0.501531  0.388368  0.889445  0.087903
    H   H2   0.498469  0.388368  0.110555  0.087904
    H   H3   0.496802  0.555912  0.905655  0.163701
    H   H4   0.503199  0.555912  0.094345  0.163695
    C   C9   0.745029  0.442126  0.450831  -0.082554
    C   C10  0.254971  0.442125  0.549167  -0.082538
    H   H5   0.717879  0.397220  0.409197  0.096002
    H   H6   0.282121  0.397219  0.590799  0.096013
    C   C11  0.815791  0.442731  0.448523  -0.150836
    C   C12  0.184209  0.442730  0.551475  -0.150953
    H   H7   0.841612  0.398515  0.402835  0.105458
    H   H8   0.158389  0.398514  0.597161  0.105477
    C   C13  0.852218  0.499638  0.500796  0.080958
    C   C14  0.147782  0.499638  0.499205  0.081226
    C   C15  0.815882  0.556521  0.553334  -0.127738
    C   C16  0.184118  0.556522  0.446669  -0.127844
    H   H9   0.841801  0.600774  0.598769  0.099306
    H   H10  0.158200  0.600775  0.401235  0.099333
    C   C17  0.745103  0.557085  0.551479  -0.129811
    C   C18  0.254897  0.557086  0.448523  -0.129772
    H   H11  0.718005  0.602009  0.593159  0.112138
    H   H12  0.281995  0.602010  0.406846  0.112124
    C   C19  0.709388  0.499596  0.501254  -0.066556
    C   C20  0.290612  0.499596  0.498746  -0.066613
    C   C21  0.964609  0.564745  0.499254  -0.140767
    C   C22  0.035390  0.564745  0.500745  -0.140773
    H   H13  0.938729  0.616921  0.495599  0.108248
    H   H14  0.061270  0.616921  0.504399  0.108244
    C   C23  0.071801  0.499662  0.499561  0.060888
    C   C24  0.928198  0.499662  0.500440  0.061047
    C   C25  0.035382  0.434584  0.498810  -0.138814
    C   C26  0.964618  0.434584  0.501192  -0.138790
    H   H15  0.061233  0.382402  0.494824  0.106177
    H   H16  0.938766  0.382403  0.505179  0.106145
    C   C27  0.542251  0.728854  0.574533  -0.086316
    C   C28  0.457749  0.728854  0.425467  -0.086322
    H   H17  0.576172  0.698930  0.633574  0.164937
    H   H18  0.423828  0.698930  0.366426  0.164946
    C   C29  0.542842  0.804312  0.575856  -0.122836
    C   C30  0.457158  0.804312  0.424144  -0.122834
    H   H19  0.578184  0.832299  0.634857  0.109583
    H   H20  0.421816  0.832299  0.365143  0.109582
    C   C31  0.500000  0.842971  0.500000  0.123393
    N   N1   0.500000  0.692363  0.500000  0.002271
    C   C32  0.493451  0.961871  0.393632  -0.114873
    C   C33  0.506549  0.961871  0.606368  -0.114870
    H   H21  0.490018  0.933423  0.308815  0.111363
    H   H22  0.509982  0.933423  0.691185  0.111361
    C   C34  0.493450  0.037335  0.393632  -0.149074
    C   C35  0.506550  0.037335  0.606368  -0.149071
    H   H23  0.490015  0.065785  0.308817  0.120631
    H   H24  0.509985  0.065785  0.691183  0.120627
    C   C36  0.500000  0.075711  0.500000  0.079466
    C   C37  0.500000  0.923494  0.500000  0.035932
    C   C38  0.542863  0.194890  0.575819  -0.174471
    C   C39  0.457137  0.194890  0.424181  -0.174474
    H   H25  0.578221  0.166902  0.634790  0.117960
    H   H26  0.421779  0.166902  0.365210  0.117959
    C   C40  0.542273  0.270349  0.574494  0.020709
    C   C41  0.457727  0.270349  0.425506  0.020715
    H   H27  0.576212  0.300273  0.633501  0.125442
    H   H28  0.423788  0.300273  0.366499  0.125440
    N   N2   0.500000  0.306840  0.500000  -0.076967
    C   C42  0.500000  0.156233  0.500000  0.126433
