# generated using pymatgen
data_CuH7C15NO4
_symmetry_space_group_name_H-M   'P 1'
_cell_length_a   10.40426700
_cell_length_b   11.82408100
_cell_length_c   14.00111500
_cell_angle_alpha   90.00000000
_cell_angle_beta   85.37272500
_cell_angle_gamma   90.00000000
_symmetry_Int_Tables_number   1
_chemical_formula_structural   CuH7C15NO4
_chemical_formula_sum   'Cu2 H14 C30 N2 O8'
_cell_volume   1716.81560033
_cell_formula_units_Z   2
loop_
 _symmetry_equiv_pos_site_id
 _symmetry_equiv_pos_as_xyz
  1  'x, y, z'
loop_
 _atom_site_type_symbol
 _atom_site_label
 _atom_site_symmetry_multiplicity
 _atom_site_fract_x
 _atom_site_fract_y
 _atom_site_fract_z
 _atom_site_occupancy
  Cu  Cu1  1  0.36899000  0.49868800  0.49589400  1
  Cu  Cu2  1  0.62628300  0.49868200  0.49637600  1
  H  H1  1  0.36721700  0.72299100  0.01974800  1
  H  H2  1  0.20133100  0.75914100  0.00785500  1
  H  H3  1  0.29153800  0.68700200  0.91137200  1
  H  H4  1  0.05261800  0.64554600  0.09192700  1
  H  H5  1  0.98490800  0.46482000  0.16434600  1
  H  H6  1  0.12857700  0.29973400  0.14824100  1
  H  H7  1  0.34092500  0.31591700  0.05931200  1
  H  H8  1  0.61470900  0.70826800  0.03910600  1
  H  H9  1  0.72683800  0.77497800  0.95321300  1
  H  H10  1  0.77942200  0.72864300  0.06633700  1
  H  H11  1  0.94009300  0.66607600  0.91291300  1
  H  H12  1  0.01713200  0.49050100  0.83475100  1
  H  H13  1  0.87863900  0.32182200  0.84136300  1
  H  H14  1  0.66365800  0.32871500  0.92682800  1
  C  C1  1  0.49761700  0.71568400  0.49634600  1
  C  C2  1  0.49765600  0.28164700  0.49592500  1
  C  C3  1  0.47655200  0.49882100  0.68000100  1
  C  C4  1  0.51872200  0.49942800  0.31226600  1
  C  C5  1  0.53034600  0.50057100  0.20944500  1
  C  C6  1  0.46495000  0.49919900  0.78282700  1
  C  C7  1  0.55085100  0.50100700  0.01988300  1
  C  C8  1  0.44480600  0.49775900  0.97236900  1
  C  C9  1  0.45543300  0.49888800  0.86918300  1
  C  C10  1  0.53996400  0.50105000  0.12309100  1
  C  C11  1  0.49761900  0.83704700  0.49629700  1
  C  C12  1  0.49765400  0.16028500  0.49597600  1
  C  C13  1  0.49762900  0.93895700  0.49620300  1
  C  C14  1  0.49764400  0.05837400  0.49607100  1
  C  C15  1  0.92972800  0.49871800  0.49645100  1
  C  C16  1  0.06554500  0.49872300  0.49581900  1
  C  C17  1  0.31731300  0.49040400  0.02491300  1
  C  C18  1  0.23600300  0.58337500  0.03335700  1
  C  C19  1  0.27678700  0.69453400  0.99041300  1
  C  C20  1  0.11678200  0.57367400  0.08395200  1
  C  C21  1  0.07831700  0.47196900  0.12501300  1
  C  C22  1  0.15882900  0.37949700  0.11606800  1
  C  C23  1  0.27805100  0.38875300  0.06622900  1
  C  C24  1  0.67893300  0.50209500  0.96763900  1
  C  C25  1  0.75756100  0.59748300  0.96423700  1
  C  C26  1  0.71610800  0.70797900  0.00872400  1
  C  C27  1  0.87872500  0.59216800  0.91627400  1
  C  C28  1  0.92214900  0.49366200  0.87214100  1
  C  C29  1  0.84454700  0.39929900  0.87569500  1
  C  C30  1  0.72360000  0.40352400  0.92342500  1
  N  N1  1  0.81846500  0.49870900  0.49686400  1
  N  N2  1  0.17680800  0.49872100  0.49540600  1
  O  O1  1  0.38656300  0.66304600  0.49944100  1
  O  O2  1  0.60849400  0.33435100  0.49275100  1
  O  O3  1  0.60867800  0.66305000  0.49317800  1
  O  O4  1  0.38681100  0.33434700  0.49917200  1
  O  O5  1  0.37101000  0.50212000  0.63520600  1
  O  O6  1  0.62426000  0.50253900  0.35707400  1
  O  O7  1  0.59213100  0.50201900  0.63557300  1
  O  O8  1  0.40314200  0.50244800  0.35670400  1
