# Generated by REPEAT Assigner based on pymatgen
data_DB0-m2_o6_o18_f0_pcu.sym.66
_audit_creation_date              2022-05-24
_audit_creation_method            REPEAT_Assigner
_cell_length_a                    14.632471
_cell_length_b                    15.811752
_cell_length_c                    16.043053
_cell_angle_alpha                 89.992486
_cell_angle_beta                  90.009143
_cell_angle_gamma                 72.487257
_cell_volume                      3539.759148
_symmetry_space_group_name_H-M    P1
_symmetry_Int_Tables_number       1
loop_
    _symmetry_equiv_pos_site_id
    _symmetry_equiv_pos_as_xyz
    1  x,y,z
loop_
    _atom_site_type_symbol
    _atom_site_label
    _atom_site_fract_x
    _atom_site_fract_y
    _atom_site_fract_z
    _atom_type_partial_charge
    O   O1   0.573465  0.509906  0.382144  -0.607699
    O   O2   0.418205  0.504705  0.625022  -0.603686
    O   O3   0.414357  0.515700  0.382969  -0.634689
    O   O4   0.577358  0.498861  0.624190  -0.624557
    C   C1   0.493269  0.514267  0.343728  0.874023
    C   C2   0.498454  0.500229  0.663427  0.908531
    O   O5   0.617087  0.378926  0.495101  -0.540169
    O   O6   0.374591  0.635719  0.512060  -0.575334
    O   O7   0.460213  0.378332  0.501577  -0.602421
    O   O8   0.531438  0.636276  0.505637  -0.589684
    C   C3   0.552239  0.337226  0.496456  0.653731
    C   C4   0.439463  0.677438  0.510872  0.649532
    Cu  Cu1  0.587193  0.507574  0.503271  0.895018
    Cu  Cu2  0.404476  0.507055  0.503891  0.948421
    C   C5   0.583646  0.240588  0.489639  0.020001
    C   C6   0.408343  0.774107  0.518267  0.030596
    C   C7   0.703862  0.105807  0.456054  0.330162
    C   C8   0.288376  0.908991  0.551919  0.364122
    C   C9   0.675439  0.196777  0.464463  -0.276491
    C   C10  0.315514  0.818452  0.540335  -0.307225
    C   C11  0.519825  0.194067  0.506045  -0.225987
    C   C12  0.473435  0.820209  0.505429  -0.243766
    C   C13  0.545354  0.102597  0.494946  0.064856
    C   C14  0.446712  0.912154  0.512572  0.090890
    C   C15  0.638425  0.059537  0.469958  0.000200
    C   C16  0.353111  0.955476  0.535899  -0.043376
    C   C17  0.480623  0.053429  0.508179  0.114241
    C   C18  0.511048  0.961454  0.497948  0.087956
    C   C19  0.605166  0.921057  0.472638  -0.235860
    C   C20  0.385574  0.094225  0.530544  -0.260467
    C   C21  0.667090  0.969310  0.458917  -0.122593
    C   C22  0.323629  0.046017  0.544363  -0.083236
    H   H1   0.739080  0.933866  0.439397  0.111161
    H   H2   0.251007  0.081716  0.561913  0.097171
    H   H3   0.544510  0.781336  0.489262  0.141955
    H   H4   0.450790  0.232320  0.528094  0.140383
    H   H5   0.264240  0.782263  0.548526  0.171760
    H   H6   0.723445  0.234277  0.447986  0.161574
    H   H7   0.635463  0.851392  0.461394  0.141858
    H   H8   0.354094  0.164389  0.537698  0.151130
    H   H9   0.639235  0.508859  0.082273  0.171320
    H   H10  0.356533  0.493681  0.925014  0.167573
    C   C23  0.581574  0.498887  0.961904  0.345108
    C   C24  0.416486  0.497334  0.045608  0.315844
    C   C25  0.501311  0.495824  0.917590  -0.049077
    C   C26  0.495749  0.503120  0.089816  -0.009435
    C   C27  0.419203  0.495652  0.959687  -0.216686
    C   C28  0.577484  0.504330  0.047687  -0.242099
    C   C29  0.500274  0.497126  0.827997  0.149601
    C   C30  0.494001  0.509543  0.179215  0.103508
    C   C31  0.493208  0.512979  0.254278  -0.344633
    C   C32  0.499493  0.498280  0.752872  -0.382851
    H   H11  0.065938  0.549863  0.630056  0.161766
    H   H12  0.925677  0.464904  0.376678  0.156601
    C   C33  0.940682  0.531702  0.574136  -0.165099
    C   C34  0.050981  0.483031  0.432613  -0.236095
    H   H13  0.897541  0.550732  0.629665  0.160136
    H   H14  0.094127  0.463959  0.377083  0.186064
    C   C35  0.901216  0.507927  0.503135  0.232687
    C   C36  0.090432  0.506814  0.503638  0.272877
    C   C37  0.956462  0.483588  0.432369  -0.142473
    C   C38  0.035170  0.531168  0.574369  -0.173844
    C   C39  0.802860  0.508195  0.503029  0.060767
    C   C40  0.188789  0.506499  0.503913  0.048781
    N   N1   0.267972  0.506389  0.504099  -0.154760
    N   N2   0.723691  0.508260  0.503022  -0.145643
    O   O9   0.793159  0.061589  0.429709  -0.412026
    C   C41  0.872654  0.084299  0.448763  0.840367
    O   O10  0.873577  0.132186  0.508151  -0.549744
    C   C42  0.962511  0.044270  0.400983  -0.543078
    H   H15  0.948754  0.001098  0.351100  0.135156
    H   H16  0.018727  0.004179  0.443487  0.149071
    H   H17  0.986885  0.097744  0.372687  0.157337
    O   O11  0.198366  0.953528  0.576171  -0.401106
    C   C43  0.147641  0.923004  0.632903  0.781697
    O   O12  0.186942  0.860801  0.678293  -0.532613
    C   C44  0.044385  0.971323  0.645675  -0.502277
    H   H18  0.023099  0.029486  0.603524  0.145556
    H   H19  0.032575  0.994163  0.711259  0.164472
    H   H20  0.000836  0.926482  0.631827  0.139856
    O   O13  0.662534  0.500557  0.922835  -0.427083
    C   C45  0.713349  0.433243  0.874077  0.851041
    O   O14  0.694308  0.363291  0.872472  -0.543895
    C   C46  0.795184  0.443429  0.824185  -0.562852
    H   H21  0.802197  0.510560  0.834438  0.130313
    H   H22  0.782030  0.434685  0.757107  0.181697
    H   H23  0.862173  0.392720  0.843824  0.161793
    O   O15  0.335111  0.496997  0.084704  -0.422449
    C   C47  0.331588  0.431040  0.136813  0.873072
    O   O16  0.399532  0.363917  0.142137  -0.550237
    C   C48  0.243118  0.439064  0.186033  -0.576291
    H   H24  0.189016  0.503496  0.172011  0.130524
    H   H25  0.260486  0.435590  0.253495  0.178566
    H   H26  0.214008  0.384161  0.169265  0.161161
