# generated using pymatgen
data_ZnH10C22N3O4
_symmetry_space_group_name_H-M   'P 1'
_cell_length_a   15.19253000
_cell_length_b   14.12195300
_cell_length_c   10.99868400
_cell_angle_alpha   90.00000000
_cell_angle_beta   89.99958400
_cell_angle_gamma   90.00000000
_symmetry_Int_Tables_number   1
_chemical_formula_structural   ZnH10C22N3O4
_chemical_formula_sum   'Zn2 H20 C44 N6 O8'
_cell_volume   2359.74779524
_cell_formula_units_Z   2
loop_
 _symmetry_equiv_pos_site_id
 _symmetry_equiv_pos_as_xyz
  1  'x, y, z'
loop_
 _atom_site_type_symbol
 _atom_site_label
 _atom_site_symmetry_multiplicity
 _atom_site_fract_x
 _atom_site_fract_y
 _atom_site_fract_z
 _atom_site_occupancy
  Zn  Zn1  1  0.50000000  0.60710800  0.50000000  1
  Zn  Zn2  1  0.50000000  0.39259600  0.50000000  1
  H  H1  1  0.54688200  0.17902600  0.09100700  1
  H  H2  1  0.45434700  0.82159600  0.90784000  1
  H  H3  1  0.45311800  0.17902600  0.90899300  1
  H  H4  1  0.54565200  0.82159600  0.09216000  1
  H  H5  1  0.58657500  0.67438000  0.18647200  1
  H  H6  1  0.41171500  0.32642900  0.81497100  1
  H  H7  1  0.41342500  0.67437900  0.81352800  1
  H  H8  1  0.58828500  0.32642900  0.18503000  1
  H  H9  1  0.06339400  0.64452400  0.55417000  1
  H  H10  1  0.94064600  0.35520300  0.56352100  1
  H  H11  1  0.93660600  0.64452400  0.44583000  1
  H  H12  1  0.05935400  0.35520300  0.43647900  1
  H  H13  1  0.22141800  0.64539600  0.53922600  1
  H  H14  1  0.78163200  0.35479200  0.56942900  1
  H  H15  1  0.77858200  0.64539600  0.46077500  1
  H  H16  1  0.21836700  0.35479200  0.43057100  1
  H  H17  1  0.41921200  0.07174600  0.33955600  1
  H  H18  1  0.60693900  0.92803100  0.62792700  1
  H  H19  1  0.58078800  0.07174600  0.66044400  1
  H  H20  1  0.39306100  0.92803100  0.37207300  1
  C  C1  1  0.32795000  0.49984500  0.48307200  1
  C  C2  1  0.67205000  0.49984500  0.51692900  1
  C  C3  1  0.51663900  0.49997300  0.26079700  1
  C  C4  1  0.48336100  0.49997300  0.73920300  1
  C  C5  1  0.54468200  0.67107300  0.10750200  1
  C  C6  1  0.45413400  0.32955400  0.89343100  1
  C  C7  1  0.45531800  0.67107300  0.89249800  1
  C  C8  1  0.54586600  0.32955400  0.10656900  1
  C  C9  1  0.52476800  0.75547400  0.05190900  1
  C  C10  1  0.47448500  0.24514500  0.94876200  1
  C  C11  1  0.47523100  0.75547400  0.94809100  1
  C  C12  1  0.52551500  0.24514500  0.05123800  1
  C  C13  1  0.48380900  0.58518700  0.94088600  1
  C  C14  1  0.51653600  0.41529500  0.05888200  1
  C  C15  1  0.51619100  0.58518700  0.05911400  1
  C  C16  1  0.48346400  0.41529500  0.94111800  1
  C  C17  1  0.47649100  0.50016800  0.87592100  1
  C  C18  1  0.52350800  0.50016800  0.12407900  1
  C  C19  1  0.09590800  0.58094100  0.52324000  1
  C  C20  1  0.90609000  0.41909800  0.53837600  1
  C  C21  1  0.90409200  0.58094100  0.47676100  1
  C  C22  1  0.09391000  0.41909800  0.46162400  1
  C  C23  1  0.18643100  0.58137600  0.51558300  1
  C  C24  1  0.81531800  0.41902800  0.54335400  1
  C  C25  1  0.81356900  0.58137600  0.48441700  1
  C  C26  1  0.18468200  0.41902800  0.45664600  1
  C  C27  1  0.23144300  0.50027400  0.48320800  1
  C  C28  1  0.76855700  0.50027400  0.51679200  1
  C  C29  1  0.04852300  0.49988300  0.49607600  1
  C  C30  1  0.95147700  0.49988300  0.50392400  1
  C  C31  1  0.45467600  0.10457700  0.41293100  1
  C  C32  1  0.55786300  0.89519500  0.57146700  1
  C  C33  1  0.54532400  0.10457700  0.58706900  1
  C  C34  1  0.44213700  0.89519500  0.42853300  1
  C  C35  1  0.45323700  0.20218700  0.41615000  1
  C  C36  1  0.55540200  0.79758500  0.57313200  1
  C  C37  1  0.54676200  0.20218700  0.58385100  1
  C  C38  1  0.44459700  0.79758500  0.42686900  1
  C  C39  1  0.50000000  0.05290000  0.50000000  1
  C  C40  1  0.50000000  0.94687300  0.50000000  1
  C  C41  1  0.40017300  0.25055500  0.32790300  1
  C  C42  1  0.61346100  0.74935200  0.65531800  1
  C  C43  1  0.59982700  0.25055500  0.67209800  1
  C  C44  1  0.38653900  0.74935200  0.34468200  1
  N  N1  1  0.50000000  0.25067700  0.50000000  1
  N  N2  1  0.50000000  0.74904100  0.50000000  1
  N  N3  1  0.35689400  0.28879000  0.25657600  1
  N  N4  1  0.66041600  0.71125100  0.72218900  1
  N  N5  1  0.64310600  0.28879000  0.74342400  1
  N  N6  1  0.33958400  0.71125100  0.27781100  1
  O  O1  1  0.36919700  0.58109000  0.48753800  1
  O  O2  1  0.63078000  0.41846500  0.51449900  1
  O  O3  1  0.63080300  0.58109000  0.51246300  1
  O  O4  1  0.36922000  0.41846500  0.48550100  1
  O  O5  1  0.50958800  0.58074800  0.31937200  1
  O  O6  1  0.48904700  0.41907400  0.68049800  1
  O  O7  1  0.49041100  0.58074800  0.68062800  1
  O  O8  1  0.51095300  0.41907400  0.31950200  1
