# generated using pymatgen
data_ZnH11C14(NO2)2
_symmetry_space_group_name_H-M   'P 1'
_cell_length_a   8.48082800
_cell_length_b   12.82641600
_cell_length_c   12.82261500
_cell_angle_alpha   90.98761000
_cell_angle_beta   90.07865200
_cell_angle_gamma   95.38053100
_symmetry_Int_Tables_number   1
_chemical_formula_structural   ZnH11C14(NO2)2
_chemical_formula_sum   'Zn2 H22 C28 N4 O8'
_cell_volume   1388.46814705
_cell_formula_units_Z   2
loop_
 _symmetry_equiv_pos_site_id
 _symmetry_equiv_pos_as_xyz
  1  'x, y, z'
loop_
 _atom_site_type_symbol
 _atom_site_label
 _atom_site_symmetry_multiplicity
 _atom_site_fract_x
 _atom_site_fract_y
 _atom_site_fract_z
 _atom_site_occupancy
  Zn  Zn1  1  0.48712100  0.49214200  0.88199800  1
  Zn  Zn2  1  0.48655500  0.48052700  0.11398100  1
  H  H1  1  0.28046600  0.85023100  0.98153100  1
  H  H2  1  0.69368500  0.12351200  0.02095100  1
  H  H3  1  0.01050800  0.56250200  0.04158700  1
  H  H4  1  0.96270800  0.40792000  0.94699900  1
  H  H5  1  0.69654700  0.90104300  0.01784900  1
  H  H6  1  0.62556200  0.78279100  0.96084800  1
  H  H7  1  0.83119200  0.95065700  0.84289900  1
  H  H8  1  0.66386500  0.73845200  0.77271400  1
  H  H9  1  0.87611600  0.76939800  0.78462500  1
  H  H10  1  0.76536900  0.83583300  0.69067200  1
  H  H11  1  0.48071400  0.86852700  0.82770400  1
  H  H12  1  0.58556700  0.96658500  0.74750600  1
  H  H13  1  0.55799700  0.99303200  0.88464300  1
  H  H14  1  0.34875800  0.18793000  0.02522200  1
  H  H15  1  0.27003200  0.06054300  0.02417400  1
  H  H16  1  0.22486700  0.21951800  0.20166400  1
  H  H17  1  0.14151800  0.98203600  0.17947100  1
  H  H18  1  0.01096900  0.08305700  0.21062100  1
  H  H19  1  0.15694800  0.05166200  0.30301500  1
  H  H20  1  0.44489700  0.04322000  0.18056200  1
  H  H21  1  0.42332500  0.12557500  0.29465800  1
  H  H22  1  0.50474100  0.18236000  0.17674700  1
  C  C1  1  0.16082700  0.69920300  0.01031700  1
  C  C2  1  0.81278900  0.27311700  0.98562400  1
  C  C3  1  0.16704700  0.80548000  0.99080800  1
  C  C4  1  0.80696600  0.16786400  0.00970100  1
  C  C5  1  0.02805600  0.85583500  0.98681300  1
  C  C6  1  0.94613300  0.11793300  0.01589400  1
  C  C7  1  0.88130700  0.79659000  0.98782400  1
  C  C8  1  0.09256600  0.17767700  0.01448900  1
  C  C9  1  0.87901700  0.69103000  0.01001700  1
  C  C10  1  0.09454400  0.28151600  0.98595700  1
  C  C11  1  0.01648000  0.64522500  0.02635700  1
  C  C12  1  0.95693800  0.32603000  0.96593100  1
  C  C13  1  0.48799400  0.49452100  0.65502700  1
  C  C14  1  0.48570000  0.47810300  0.34094800  1
  C  C15  1  0.73475800  0.62151300  0.00626900  1
  C  C16  1  0.23847200  0.35148300  0.98976700  1
  C  C17  1  0.67572900  0.33574900  0.98938400  1
  C  C18  1  0.29814300  0.63696300  0.00657800  1
  C  C19  1  0.48722900  0.48897700  0.54494600  1
  C  C20  1  0.48646900  0.48364200  0.45102600  1
  C  C21  1  0.72846100  0.84210800  0.95955400  1
  C  C22  1  0.73496500  0.88691700  0.84989200  1
  C  C23  1  0.76178700  0.80192200  0.76970100  1
  C  C24  1  0.57961000  0.93148200  0.82600500  1
  C  C25  1  0.24484200  0.13823100  0.05368100  1
  C  C26  1  0.25140600  0.14122100  0.17256800  1
  C  C27  1  0.13234600  0.05896300  0.21863600  1
  C  C28  1  0.41668900  0.12169400  0.20828300  1
  N  N1  1  0.03995400  0.96614200  0.97759700  1
  N  N2  1  0.93456700  0.00771700  0.02624400  1
  N  N3  1  0.48837500  0.49767200  0.74526200  1
  N  N4  1  0.48531400  0.47496100  0.25071500  1
  O  O1  1  0.67869900  0.58273600  0.09382200  1
  O  O2  1  0.29481400  0.39006800  0.90218900  1
  O  O3  1  0.67373700  0.59646000  0.91443600  1
  O  O4  1  0.30001700  0.37614300  0.08153200  1
  O  O5  1  0.63398800  0.37924000  0.90262600  1
  O  O6  1  0.33962400  0.59338400  0.09336400  1
  O  O7  1  0.62690600  0.36564500  0.08161200  1
  O  O8  1  0.34692400  0.60710200  0.91433700  1
