# generated using pymatgen
data_ZnH17C22NO4
_symmetry_space_group_name_H-M   'P 1'
_cell_length_a   13.52348600
_cell_length_b   8.56884300
_cell_length_c   15.10200100
_cell_angle_alpha   90.00000000
_cell_angle_beta   91.00902900
_cell_angle_gamma   90.00000000
_symmetry_Int_Tables_number   1
_chemical_formula_structural   ZnH17C22NO4
_chemical_formula_sum   'Zn2 H34 C44 N2 O8'
_cell_volume   1749.75799248
_cell_formula_units_Z   2
loop_
 _symmetry_equiv_pos_site_id
 _symmetry_equiv_pos_as_xyz
  1  'x, y, z'
loop_
 _atom_site_type_symbol
 _atom_site_label
 _atom_site_symmetry_multiplicity
 _atom_site_fract_x
 _atom_site_fract_y
 _atom_site_fract_z
 _atom_site_occupancy
  Zn  Zn1  1  0.88951400  0.49940800  0.50586100  1
  Zn  Zn2  1  0.11048500  0.50059300  0.49413900  1
  H  H1  1  0.03965400  0.00478900  0.56246100  1
  H  H2  1  0.96034600  0.99521200  0.43753900  1
  H  H3  1  0.86330400  0.86834800  0.92056200  1
  H  H4  1  0.13669500  0.13165200  0.07943900  1
  H  H5  1  0.87051100  0.86544200  0.08270000  1
  H  H6  1  0.12948900  0.13455900  0.91730000  1
  H  H7  1  0.41198100  0.85753700  0.58312400  1
  H  H8  1  0.58801900  0.14246400  0.41687600  1
  H  H9  1  0.58387800  0.85440600  0.59325600  1
  H  H10  1  0.41612200  0.14559400  0.40674400  1
  H  H11  1  0.95368500  0.28038100  0.87947100  1
  H  H12  1  0.05702900  0.35470600  0.81764900  1
  H  H13  1  0.93151100  0.36779500  0.77439300  1
  H  H14  1  0.04631500  0.71961900  0.12053000  1
  H  H15  1  0.06848900  0.63220600  0.22560800  1
  H  H16  1  0.94297100  0.64529400  0.18235200  1
  H  H17  1  0.95508800  0.28528700  0.12580800  1
  H  H18  1  0.97241300  0.38609600  0.22782000  1
  H  H19  1  0.07926900  0.32217300  0.16892400  1
  H  H20  1  0.04491200  0.71471300  0.87419300  1
  H  H21  1  0.92073100  0.67782700  0.83107600  1
  H  H22  1  0.02758700  0.61390500  0.77218100  1
  H  H23  1  0.24609200  0.17271000  0.39313500  1
  H  H24  1  0.29518700  0.12755500  0.50305000  1
  H  H25  1  0.17705700  0.19127000  0.49317200  1
  H  H26  1  0.75390800  0.82729000  0.60686600  1
  H  H27  1  0.82294300  0.80873100  0.50682900  1
  H  H28  1  0.70481300  0.87244500  0.49695000  1
  H  H29  1  0.70299700  0.12740800  0.52734100  1
  H  H30  1  0.75349900  0.16339700  0.41860100  1
  H  H31  1  0.82271900  0.19016700  0.51974500  1
  H  H32  1  0.29700200  0.87259300  0.47265900  1
  H  H33  1  0.17728100  0.80983400  0.48025500  1
  H  H34  1  0.24650100  0.83660400  0.58139900  1
  C  C1  1  0.01380500  0.14248000  0.67611100  1
  C  C2  1  0.98619500  0.85752100  0.32389000  1
  C  C3  1  0.98736500  0.13731300  0.32570300  1
  C  C4  1  0.01263500  0.86268700  0.67429800  1
  C  C5  1  0.99777400  0.14216000  0.76611200  1
  C  C6  1  0.00222600  0.85784100  0.23388800  1
  C  C7  1  0.00075000  0.13965200  0.23489900  1
  C  C8  1  0.99925000  0.86034800  0.76510100  1
  C  C9  1  0.99537100  0.00077800  0.81146300  1
  C  C10  1  0.00462900  0.99922200  0.18853700  1
  C  C11  1  0.02558800  0.00334900  0.63222100  1
  C  C12  1  0.97441200  0.99665100  0.36778000  1
  C  C13  1  0.92437300  0.92402600  0.95502600  1
  C  C14  1  0.07562700  0.07597500  0.04497400  1
  C  C15  1  0.92788000  0.92377500  0.04633400  1
  C  C16  1  0.07212000  0.07622500  0.95366600  1
  C  C17  1  0.00328500  0.99987500  0.09155800  1
  C  C18  1  0.99671500  0.00012500  0.90844200  1
  C  C19  1  0.00826300  0.72166800  0.61894900  1
  C  C20  1  0.99173600  0.27833200  0.38105100  1
  C  C21  1  0.99023000  0.71439300  0.37700300  1
  C  C22  1  0.00976900  0.28560800  0.62299700  1
  C  C23  1  0.29426200  0.36847200  0.47232600  1
  C  C24  1  0.70573800  0.63152900  0.52767400  1
  C  C25  1  0.70600200  0.36536000  0.49141600  1
  C  C26  1  0.29399800  0.63464100  0.50858400  1
  C  C27  1  0.39631200  0.62966200  0.52154800  1
  C  C28  1  0.60368800  0.37033900  0.47845300  1
  C  C29  1  0.60268900  0.62752200  0.53202800  1
  C  C30  1  0.39731000  0.37247800  0.46797300  1
  C  C31  1  0.44858000  0.50046000  0.49748100  1
  C  C32  1  0.55141900  0.49954000  0.50252000  1
  C  C33  1  0.44791100  0.75562100  0.55691400  1
  C  C34  1  0.55208800  0.24437900  0.44308700  1
  C  C35  1  0.54933300  0.75407300  0.56264600  1
  C  C36  1  0.45066700  0.24592700  0.43735400  1
  C  C37  1  0.98460800  0.29451700  0.81259400  1
  C  C38  1  0.01539100  0.70548400  0.18740600  1
  C  C39  1  0.00244900  0.29163800  0.18637200  1
  C  C40  1  0.99755100  0.70836300  0.81362800  1
  C  C41  1  0.24884600  0.20914700  0.46362400  1
  C  C42  1  0.75115400  0.79085400  0.53637600  1
  C  C43  1  0.75058100  0.20521300  0.48802600  1
  C  C44  1  0.24941900  0.79478700  0.51197400  1
  N  N1  1  0.24111600  0.50163000  0.48908900  1
  N  N2  1  0.75888400  0.49837000  0.51091200  1
  O  O1  1  0.09046500  0.67124300  0.58400500  1
  O  O2  1  0.90953500  0.32875700  0.41599500  1
  O  O3  1  0.90817600  0.66499800  0.41275400  1
  O  O4  1  0.09182400  0.33500200  0.58724700  1
  O  O5  1  0.92087600  0.66494700  0.59717000  1
  O  O6  1  0.07912300  0.33505400  0.40283100  1
  O  O7  1  0.07787400  0.65982900  0.39965900  1
  O  O8  1  0.92212600  0.34017100  0.60034200  1
