# generated using pymatgen
data_CuH13C14NO4
_symmetry_space_group_name_H-M   'P 1'
_cell_length_a   15.90751400
_cell_length_b   11.03271100
_cell_length_c   9.54717200
_cell_angle_alpha   90.02057900
_cell_angle_beta   90.01723900
_cell_angle_gamma   90.00354900
_symmetry_Int_Tables_number   1
_chemical_formula_structural   CuH13C14NO4
_chemical_formula_sum   'Cu2 H26 C28 N2 O8'
_cell_volume   1675.55718515
_cell_formula_units_Z   2
loop_
 _symmetry_equiv_pos_site_id
 _symmetry_equiv_pos_as_xyz
  1  'x, y, z'
loop_
 _atom_site_type_symbol
 _atom_site_label
 _atom_site_symmetry_multiplicity
 _atom_site_fract_x
 _atom_site_fract_y
 _atom_site_fract_z
 _atom_site_occupancy
  Cu  Cu1  1  0.50074200  0.49425600  0.64366200  1
  Cu  Cu2  1  0.49859300  0.49624800  0.36320900  1
  H  H1  1  0.05195900  0.35291700  0.32865000  1
  H  H2  1  0.05384800  0.69688100  0.45109800  1
  H  H3  1  0.94708600  0.63814800  0.67771500  1
  H  H4  1  0.04979500  0.43368800  0.73393200  1
  H  H5  1  0.49540400  0.88148200  0.29231800  1
  H  H6  1  0.49746000  0.90135800  0.61322500  1
  H  H7  1  0.48989400  0.10487500  0.28900600  1
  H  H8  1  0.50971900  0.09091600  0.60800300  1
  H  H9  1  0.38986100  0.40026100  0.87355800  1
  H  H10  1  0.55769500  0.50759000  0.90376900  1
  H  H11  1  0.41464800  0.35607800  0.13197700  1
  H  H12  1  0.51731800  0.57533000  0.10386300  1
  H  H13  1  0.92904200  0.05512100  0.71780200  1
  H  H14  1  0.93057200  0.01791400  0.53293300  1
  H  H15  1  0.02071600  0.98424200  0.64154100  1
  H  H16  1  0.04595300  0.16623000  0.49598400  1
  H  H17  1  0.04451000  0.20326100  0.68059900  1
  H  H18  1  0.89549100  0.27032100  0.65948100  1
  H  H19  1  0.89671400  0.23289400  0.47501700  1
  H  H20  1  0.93965100  0.56006900  0.95300700  1
  H  H21  1  0.93969400  0.71658800  0.01064800  1
  H  H22  1  0.03175000  0.65350500  0.92687900  1
  H  H23  1  0.05181500  0.66881300  0.18306200  1
  H  H24  1  0.05174500  0.51253100  0.12555700  1
  H  H25  1  0.90120100  0.49363100  0.19446400  1
  H  H26  1  0.90126200  0.64993100  0.25186000  1
  C  C1  1  0.50126700  0.26261700  0.50056000  1
  C  C2  1  0.33841800  0.49302100  0.50617500  1
  C  C3  1  0.49828300  0.72800900  0.50678700  1
  C  C4  1  0.66093900  0.49694700  0.50054500  1
  C  C5  1  0.97185300  0.38752300  0.53190200  1
  C  C6  1  0.02759600  0.41753000  0.40783300  1
  C  C7  1  0.24824800  0.49296900  0.50749100  1
  C  C8  1  0.75109300  0.49722300  0.49929900  1
  C  C9  1  0.02612200  0.46220300  0.62977100  1
  C  C10  1  0.08059600  0.49425900  0.50541400  1
  C  C11  1  0.97207600  0.57339400  0.59926400  1
  C  C12  1  0.91873400  0.49708700  0.50225300  1
  C  C13  1  0.02832300  0.60574500  0.47537600  1
  C  C14  1  0.97400600  0.52865200  0.38015900  1
  C  C15  1  0.17251900  0.49338500  0.50716800  1
  C  C16  1  0.82681300  0.49725100  0.49990000  1
  C  C17  1  0.49644200  0.92710200  0.39280900  1
  C  C18  1  0.49749100  0.86072800  0.51046000  1
  C  C19  1  0.49577200  0.06138200  0.39027300  1
  C  C20  1  0.50262500  0.13001600  0.50518900  1
  C  C21  1  0.44381400  0.43945400  0.92593500  1
  C  C22  1  0.45084100  0.42620500  0.08025000  1
  C  C23  1  0.93555600  0.26360200  0.56475100  1
  C  C24  1  0.00577900  0.17315300  0.59051700  1
  C  C25  1  0.96894500  0.04957200  0.62278500  1
  C  C26  1  0.94039500  0.56755200  0.23847700  1
  C  C27  1  0.01259800  0.59478900  0.13947600  1
  C  C28  1  0.97851200  0.63377700  0.99829000  1
  N  N1  1  0.50183000  0.49102600  0.85326500  1
  N  N2  1  0.49653900  0.49842600  0.15363400  1
  O  O1  1  0.50483900  0.31855600  0.62125400  1
  O  O2  1  0.49665800  0.31970400  0.37997900  1
  O  O3  1  0.37841600  0.49665000  0.62612600  1
  O  O4  1  0.37659900  0.49029300  0.38471400  1
  O  O5  1  0.50228400  0.67058200  0.62647700  1
  O  O6  1  0.49483400  0.67208900  0.38606000  1
  O  O7  1  0.62270100  0.50026400  0.62170700  1
  O  O8  1  0.62089400  0.49299200  0.38088300  1
