# generated using pymatgen
data_Cu3H40(C31O6)2
_symmetry_space_group_name_H-M   'P 1'
_cell_length_a   21.09536100
_cell_length_b   21.39192100
_cell_length_c   21.29274900
_cell_angle_alpha   91.49639900
_cell_angle_beta   119.13653800
_cell_angle_gamma   118.98482800
_symmetry_Int_Tables_number   1
_chemical_formula_structural   Cu3H40(C31O6)2
_chemical_formula_sum   'Cu6 H80 C124 O24'
_cell_volume   6896.37254703
_cell_formula_units_Z   2
loop_
 _symmetry_equiv_pos_site_id
 _symmetry_equiv_pos_as_xyz
  1  'x, y, z'
loop_
 _atom_site_type_symbol
 _atom_site_label
 _atom_site_symmetry_multiplicity
 _atom_site_fract_x
 _atom_site_fract_y
 _atom_site_fract_z
 _atom_site_occupancy
  Cu  Cu1  1  0.57067500  0.56823300  0.50553100  1
  Cu  Cu2  1  0.45212300  0.44884000  0.51075700  1
  Cu  Cu3  1  0.00406000  0.54776100  0.05478300  1
  Cu  Cu4  1  0.00575600  0.46052100  0.96744600  1
  Cu  Cu5  1  0.56298400  0.99945700  0.06545300  1
  Cu  Cu6  1  0.44284600  0.00328200  0.94703700  1
  H  H1  1  0.81398600  0.84861500  0.77303300  1
  H  H2  1  0.83913200  0.79085500  0.69401500  1
  H  H3  1  0.81914700  0.66822300  0.69333600  1
  H  H4  1  0.77048000  0.78446600  0.85196100  1
  H  H5  1  0.87818200  0.62296500  0.88053600  1
  H  H6  1  0.64653700  0.40336200  0.64204900  1
  H  H7  1  0.75599800  0.37354400  0.65022900  1
  H  H8  1  0.73651300  0.25029800  0.63210500  1
  H  H9  1  0.71917900  0.18038100  0.71879300  1
  H  H10  1  0.72051700  0.23394700  0.82346900  1
  H  H11  1  0.73998600  0.35714200  0.84150000  1
  H  H12  1  0.37158800  0.05740300  0.10212000  1
  H  H13  1  0.64322600  0.22384500  0.19772000  1
  H  H14  1  0.72044200  0.34408100  0.29170000  1
  H  H15  1  0.72209600  0.42932300  0.37227300  1
  H  H16  1  0.64788600  0.45382700  0.41603200  1
  H  H17  1  0.38411900  0.27891400  0.33629000  1
  H  H18  1  0.30517300  0.16073700  0.23866300  1
  H  H19  1  0.30022700  0.07902700  0.15139000  1
  H  H20  1  0.55935000  0.51775800  0.22289900  1
  H  H21  1  0.54496600  0.62518900  0.22323000  1
  H  H22  1  0.43426800  0.61899100  0.23869700  1
  H  H23  1  0.35358800  0.39840900  0.25548000  1
  H  H24  1  0.46241100  0.40397800  0.23737400  1
  H  H25  1  0.25338800  0.50830500  0.14308400  1
  H  H26  1  0.24965300  0.48532300  0.37024500  1
  H  H27  1  0.05813700  0.55597100  0.35354200  1
  H  H28  1  0.91486900  0.43564700  0.26675200  1
  H  H29  1  0.89633500  0.34454200  0.17620700  1
  H  H30  1  0.02261100  0.37325500  0.17377400  1
  H  H31  1  0.47152400  0.78112100  0.91503800  1
  H  H32  1  0.53297500  0.94952600  0.81182400  1
  H  H33  1  0.56285000  0.93279800  0.71941000  1
  H  H34  1  0.57138300  0.85504300  0.64140000  1
  H  H35  1  0.55491700  0.73890700  0.60037900  1
  H  H36  1  0.45080100  0.55718100  0.67706100  1
  H  H37  1  0.43223000  0.57760500  0.77605700  1
  H  H38  1  0.44052500  0.66093800  0.86488300  1
  H  H39  1  0.66043800  0.50587100  0.91284700  1
  H  H40  1  0.77882900  0.54153300  0.04355300  1
  H  H41  1  0.81831000  0.45258700  0.08610200  1
  H  H42  1  0.61460100  0.28737100  0.86254200  1
  H  H43  1  0.62289700  0.23970300  0.98823200  1
  H  H44  1  0.88223300  0.26450700  0.02224700  1
  H  H45  1  0.87639400  0.05934900  0.14062700  1
  H  H46  1  0.80189300  0.96575200  0.02053500  1
  H  H47  1  0.71163900  0.97592400  0.89891600  1
  H  H48  1  0.69398900  0.08129800  0.89871200  1
  H  H49  1  0.38126300  0.76495200  0.36552400  1
  H  H50  1  0.35172000  0.85768300  0.31763800  1
  H  H51  1  0.29658800  0.84894200  0.18402300  1
  H  H52  1  0.29545100  0.65172000  0.14488600  1
  H  H53  1  0.35181400  0.66172100  0.27910300  1
  H  H54  1  0.38657700  0.85878900  0.12577300  1
  H  H55  1  0.12168800  0.64275100  0.89212300  1
  H  H56  1  0.10524200  0.74697400  0.81867500  1
  H  H57  1  0.07185700  0.73682200  0.68958400  1
  H  H58  1  0.16860600  0.73219200  0.65953300  1
  H  H59  1  0.29786200  0.73639400  0.75824600  1
  H  H60  1  0.33134500  0.74648300  0.88768600  1
  H  H61  1  0.17235300  0.66571300  0.28049500  1
  H  H62  1  0.14632200  0.67303300  0.34862700  1
  H  H63  1  0.25889300  0.72994400  0.37837100  1
  H  H64  1  0.22727000  0.61853300  0.42311200  1
  H  H65  1  0.26170800  0.61948400  0.36080900  1
  H  H66  1  0.64489700  0.67941900  0.83883100  1
  H  H67  1  0.60111100  0.59001100  0.77499000  1
  H  H68  1  0.62552100  0.59856500  0.87001500  1
  H  H69  1  0.73913200  0.59999600  0.86761900  1
  H  H70  1  0.78564300  0.69279600  0.92419200  1
  H  H71  1  0.52240900  0.44685500  0.79847600  1
  H  H72  1  0.60443200  0.47349200  0.77723400  1
  H  H73  1  0.48962300  0.40118700  0.70597100  1
  H  H74  1  0.56874900  0.34292000  0.75907300  1
  H  H75  1  0.49248900  0.31835300  0.78512200  1
  H  H76  1  0.87985400  0.12091300  0.23727300  1
  H  H77  1  0.97971500  0.17664600  0.23910100  1
  H  H78  1  0.95341700  0.22231700  0.28512500  1
  H  H79  1  0.92094900  0.24295800  0.16326000  1
  H  H80  1  0.82390400  0.19170800  0.16403000  1
  C  C1  1  0.51644800  0.42206800  0.42928000  1
  C  C2  1  0.63387800  0.51820400  0.63112500  1
  C  C3  1  0.50601800  0.59481100  0.58678000  1
  C  C4  1  0.38927600  0.50052200  0.38641400  1
  C  C5  1  0.81802000  0.76162100  0.72769200  1
  C  C6  1  0.80598500  0.69231700  0.72694600  1
  C  C7  1  0.77806800  0.65364700  0.76896000  1
  C  C8  1  0.76581000  0.68726100  0.81528100  1
  C  C9  1  0.77906400  0.75734800  0.81604400  1
  C  C10  1  0.80407600  0.79396200  0.77195900  1
  C  C11  1  0.82634400  0.57416100  0.82842500  1
  C  C12  1  0.82218600  0.50763300  0.82480200  1
  C  C13  1  0.75865200  0.44624100  0.75660900  1
  C  C14  1  0.69824200  0.45169700  0.69457400  1
  C  C15  1  0.70215200  0.51785000  0.69832100  1
  C  C16  1  0.76717300  0.58013900  0.76542200  1
  C  C17  1  0.74851000  0.34324700  0.68864800  1
  C  C18  1  0.73765100  0.27397700  0.67840700  1
  C  C19  1  0.72791000  0.23476900  0.72694900  1
  C  C20  1  0.72875300  0.26478900  0.78559400  1
  C  C21  1  0.74002600  0.33419200  0.79597200  1
  C  C22  1  0.75094800  0.37416500  0.74820400  1
  C  C23  1  0.43190700  0.11257300  0.14140900  1
  C  C24  1  0.50720000  0.13535600  0.14467400  1
  C  C25  1  0.58448400  0.20539200  0.19578600  1
  C  C26  1  0.58583400  0.25325500  0.24199300  1
  C  C27  1  0.51116100  0.22959200  0.24002200  1
  C  C28  1  0.43451200  0.15884700  0.19041500  1
  C  C29  1  0.66172800  0.32491900  0.29005500  1
  C  C30  1  0.66266500  0.37298000  0.33546900  1
  C  C31  1  0.58843800  0.34885000  0.33451800  1
  C  C32  1  0.51307300  0.27672400  0.28750900  1
  C  C33  1  0.43948600  0.25184200  0.28776900  1
  C  C34  1  0.36329200  0.18052700  0.23909600  1
  C  C35  1  0.36048200  0.13449000  0.18986500  1
  C  C36  1  0.58935900  0.39684100  0.38018300  1
  C  C37  1  0.51636800  0.37139400  0.38171000  1
  C  C38  1  0.44191200  0.29842300  0.33626200  1
  C  C39  1  0.50327600  0.57558800  0.23081200  1
  C  C40  1  0.44121800  0.57210300  0.23962300  1
  C  C41  1  0.38855300  0.50921800  0.25015900  1
  C  C42  1  0.39645000  0.44882800  0.24960500  1
  C  C43  1  0.45738600  0.45179500  0.23930100  1
  C  C44  1  0.51136300  0.51541600  0.23064600  1
  C  C45  1  0.25323100  0.50410500  0.19349100  1
  C  C46  1  0.18730900  0.49995300  0.19588600  1
  C  C47  1  0.18623300  0.49428800  0.25995600  1
  C  C48  1  0.25088700  0.49124100  0.32051900  1
  C  C49  1  0.31818900  0.49739400  0.31882600  1
  C  C50  1  0.31966700  0.50426700  0.25512200  1
  C  C51  1  0.12239000  0.53505600  0.31145300  1
  C  C52  1  0.05106300  0.51685500  0.31350000  1
  C  C53  1  0.97019800  0.44891200  0.26491700  1
  C  C54  1  0.95985600  0.39788900  0.21415600  1
  C  C55  1  0.03073300  0.41439200  0.21268100  1
  C  C56  1  0.11227100  0.48248700  0.26103900  1
  C  C57  1  0.48509500  0.80050500  0.87396700  1
  C  C58  1  0.50155400  0.87011500  0.86829900  1
  C  C59  1  0.51831100  0.89435400  0.81535900  1
  C  C60  1  0.52173300  0.85017100  0.77024700  1
  C  C61  1  0.50129200  0.77918900  0.77366400  1
  C  C62  1  0.48111900  0.75372300  0.82440600  1
  C  C63  1  0.54595500  0.87691800  0.72195800  1
  C  C64  1  0.55084000  0.83313300  0.67805300  1
  C  C65  1  0.52803800  0.76122400  0.67997200  1
  C  C66  1  0.50139500  0.73376100  0.72661500  1
  C  C67  1  0.47500300  0.66086600  0.72636500  1
  C  C68  1  0.45211500  0.63448700  0.77544800  1
  C  C69  1  0.45701100  0.68146500  0.82559300  1
  C  C70  1  0.53221400  0.71689000  0.63571600  1
  C  C71  1  0.50367900  0.64321000  0.63412300  1
  C  C72  1  0.47253900  0.61464200  0.67772400  1
  C  C73  1  0.88293500  0.38691000  0.00753300  1
  C  C74  1  0.88852700  0.50571900  0.89260300  1
  C  C75  1  0.12692700  0.62157800  0.01512900  1
  C  C76  1  0.11933800  0.50082100  0.12931900  1
  C  C77  1  0.38343900  0.88329600  0.00382100  1
  C  C78  1  0.50518200  0.08570600  0.09404700  1
  C  C79  1  0.62239100  0.11766600  0.00696000  1
  C  C80  1  0.50169300  0.91799200  0.91863600  1
  C  C81  1  0.74330700  0.48586900  0.00342600  1
  C  C82  1  0.76588100  0.43616600  0.02724100  1
  C  C83  1  0.72088600  0.36544900  0.97585800  1
  C  C84  1  0.65078200  0.34349800  0.90221600  1
  C  C85  1  0.62882400  0.39321300  0.87719900  1
  C  C86  1  0.67569200  0.46509600  0.92864000  1
  C  C87  1  0.68056100  0.24485900  0.99742600  1
  C  C88  1  0.69128100  0.18638000  0.00815400  1
  C  C89  1  0.76503300  0.19393800  0.01763900  1
  C  C90  1  0.82599800  0.25950600  0.01648100  1
  C  C91  1  0.81632500  0.31865800  0.00830500  1
  C  C92  1  0.74265900  0.31097300  0.99832200  1
  C  C93  1  0.82842300  0.12686200  0.08974300  1
  C  C94  1  0.83685800  0.06631900  0.08901600  1
  C  C95  1  0.79457000  0.01237900  0.02058400  1
  C  C96  1  0.74371900  0.01789200  0.95236000  1
  C  C97  1  0.73406400  0.07701300  0.95236400  1
  C  C98  1  0.77583200  0.13121600  0.02046600  1
  C  C99  1  0.33823200  0.81188200  0.27933700  1
  C  C100  1  0.30681600  0.80665000  0.20417900  1
  C  C101  1  0.28988900  0.74844300  0.15513900  1
  C  C102  1  0.30526600  0.69578400  0.18198300  1
  C  C103  1  0.33768700  0.70166600  0.25744600  1
  C  C104  1  0.35460700  0.75987200  0.30615000  1
  C  C105  1  0.32821700  0.81195300  0.07368000  1
  C  C106  1  0.31538400  0.81480600  0.00394800  1
  C  C107  1  0.23983800  0.75312100  0.93785600  1
  C  C108  1  0.18005200  0.69073900  0.94335900  1
  C  C109  1  0.19378500  0.68823800  0.01316700  1
  C  C110  1  0.26837600  0.74945900  0.07884600  1
  C  C111  1  0.14803800  0.74517600  0.80570800  1
  C  C112  1  0.12926500  0.73948800  0.73325600  1
  C  C113  1  0.18348000  0.73689400  0.71640900  1
  C  C114  1  0.25615300  0.73949300  0.77188500  1
  C  C115  1  0.27513100  0.74546900  0.84444400  1
  C  C116  1  0.22182900  0.74944600  0.86179300  1
  C  C117  1  0.20731700  0.61167700  0.36329000  1
  C  C118  1  0.19504700  0.67382500  0.34108200  1
  C  C119  1  0.73889000  0.65126800  0.86509500  1
  C  C120  1  0.64662300  0.62857700  0.83523100  1
  C  C121  1  0.55482300  0.36546500  0.79472900  1
  C  C122  1  0.54259000  0.42621500  0.76810200  1
  C  C123  1  0.87381500  0.18796500  0.16255800  1
  C  C124  1  0.92475200  0.17544300  0.23527200  1
  O  O1  1  0.54945900  0.49297200  0.43047600  1
  O  O2  1  0.48121400  0.39390900  0.46715500  1
  O  O3  1  0.65435800  0.55382000  0.58753100  1
  O  O4  1  0.55260100  0.47571700  0.61283900  1
  O  O5  1  0.57381700  0.62529800  0.58139700  1
  O  O6  1  0.44104800  0.52192600  0.55347400  1
  O  O7  1  0.46888200  0.56448200  0.42444500  1
  O  O8  1  0.36967700  0.44034900  0.40796800  1
  O  O9  1  0.92793800  0.45233100  0.06116200  1
  O  O10  1  0.89899100  0.37909700  0.95624900  1
  O  O11  1  0.90105100  0.52752000  0.95849700  1
  O  O12  1  0.93431600  0.48433700  0.88529400  1
  O  O13  1  0.08058100  0.62993400  0.03514600  1
  O  O14  1  0.11230800  0.55525000  0.99205500  1
  O  O15  1  0.10721200  0.55457000  0.13780700  1
  O  O16  1  0.07668700  0.44982500  0.06278800  1
  O  O17  1  0.46378800  0.92467400  0.06806800  1
  O  O18  1  0.36204200  0.90206500  0.94136900  1
  O  O19  1  0.57355000  0.08104400  0.12245900  1
  O  O20  1  0.43534900  0.04810100  0.02220100  1
  O  O21  1  0.64309700  0.07462000  0.04384500  1
  O  O22  1  0.54267400  0.10371200  0.97128600  1
  O  O23  1  0.53361800  0.91858800  0.98978600  1
  O  O24  1  0.46940600  0.95798700  0.89059700  1
