# Generated by REPEAT Assigner based on pymatgen
data_DB0-m15_o24_o79_f0_fsc
_audit_creation_date              2022-05-24
_audit_creation_method            REPEAT_Assigner
_cell_length_a                    6.695814
_cell_length_b                    9.164230
_cell_length_c                    14.799318
_cell_angle_alpha                 90.299853
_cell_angle_beta                  81.725854
_cell_angle_gamma                 90.065813
_cell_volume                      898.650352
_symmetry_space_group_name_H-M    P1
_symmetry_Int_Tables_number       1
loop_
    _symmetry_equiv_pos_site_id
    _symmetry_equiv_pos_as_xyz
    1  x,y,z
loop_
    _atom_site_type_symbol
    _atom_site_label
    _atom_site_fract_x
    _atom_site_fract_y
    _atom_site_fract_z
    _atom_type_partial_charge
    Co  Co1  0.005477  0.854721  0.000077  0.736516
    Co  Co2  0.994522  0.145279  0.999923  0.736414
    O   O1   0.762892  0.872158  0.097310  -0.637502
    O   O2   0.237107  0.127842  0.902690  -0.637474
    O   O3   0.248526  0.879639  0.903497  -0.643676
    O   O4   0.751473  0.120361  0.096503  -0.643649
    O   O5   0.827866  0.870640  0.901629  -0.633155
    O   O6   0.172133  0.129361  0.098371  -0.633104
    O   O7   0.184454  0.881087  0.097884  -0.647291
    O   O8   0.815545  0.118914  0.902116  -0.647173
    C   C1   0.677313  0.994734  0.127824  0.761495
    C   C2   0.322686  0.005267  0.872176  0.761429
    C   C3   0.762926  0.992561  0.870401  0.829999
    C   C4   0.237073  0.007440  0.129599  0.830022
    C   C5   0.841036  0.553142  0.042718  -0.094672
    C   C6   0.158963  0.446859  0.957282  -0.094762
    C   C7   0.980615  0.449230  0.079472  -0.038822
    C   C8   0.019384  0.550771  0.920528  -0.038772
    H   H1   0.962814  0.404597  0.149683  0.059378
    H   H2   0.037185  0.595404  0.850317  0.059366
    H   H3   0.700639  0.600005  0.080654  0.087700
    H   H4   0.299360  0.399995  0.919346  0.087693
    N   N1   0.995419  0.352544  0.999704  0.376932
    N   N2   0.004580  0.647457  0.000296  0.376957
    C   C9   0.855646  0.451078  0.962937  -0.136918
    C   C10  0.144353  0.548922  0.037063  -0.136901
    H   H5   0.728225  0.408269  0.930362  0.100715
    H   H6   0.271774  0.591731  0.069638  0.100697
    C   C11  0.669881  0.988374  0.787093  -0.134869
    C   C12  0.330118  0.011626  0.212907  -0.134925
    C   C13  0.465354  0.006830  0.787908  -0.023181
    C   C14  0.534645  0.993170  0.212092  -0.023189
    C   C15  0.387826  0.016147  0.706674  -0.226283
    C   C16  0.612173  0.983853  0.293326  -0.226473
    C   C17  0.792251  0.967649  0.704913  -0.199683
    C   C18  0.207748  0.032352  0.295087  -0.199524
    C   C19  0.713401  0.972067  0.623911  0.230035
    C   C20  0.286598  0.027934  0.376089  0.229570
    C   C21  0.511727  0.001761  0.623628  0.045917
    C   C22  0.488272  0.998240  0.376372  0.046656
    C   C23  0.436634  0.012342  0.540802  0.018225
    C   C24  0.563365  0.987658  0.459198  0.017181
    C   C25  0.236895  0.049120  0.538425  -0.099692
    C   C26  0.763104  0.950880  0.461575  -0.099463
    C   C27  0.162373  0.054675  0.456707  -0.279020
    C   C28  0.837626  0.945326  0.543293  -0.279160
    H   H7   0.227245  0.029115  0.711023  0.167638
    H   H8   0.772754  0.970885  0.288977  0.167641
    H   H9   0.951837  0.948674  0.703892  0.134430
    H   H10  0.048162  0.051326  0.296108  0.134443
    H   H11  0.135312  0.076162  0.599227  0.089817
    H   H12  0.864687  0.923839  0.400773  0.089792
    H   H13  0.006092  0.083111  0.455880  0.156408
    H   H14  0.993907  0.916890  0.544120  0.156271
