# Generated by REPEAT Assigner based on pymatgen
data_DB0-m3_o450_o156_f0_fsc.sym.15_sqe
_audit_creation_date              2022-05-24
_audit_creation_method            REPEAT_Assigner
_cell_length_a                    8.481546
_cell_length_b                    12.844083
_cell_length_c                    17.497118
_cell_angle_alpha                 90.901057
_cell_angle_beta                  90.078962
_cell_angle_gamma                 95.373563
_cell_volume                      1897.476256
_symmetry_space_group_name_H-M    P1
_symmetry_Int_Tables_number       1
loop_
    _symmetry_equiv_pos_site_id
    _symmetry_equiv_pos_as_xyz
    1  x,y,z
loop_
    _atom_site_type_symbol
    _atom_site_label
    _atom_site_fract_x
    _atom_site_fract_y
    _atom_site_fract_z
    _atom_type_partial_charge
    C   C1   0.166507  0.708823  0.019430  0.010353
    C   C2   0.826051  0.288139  0.981384  0.038256
    C   C3   0.171201  0.813334  0.998965  -0.394221
    C   C4   0.818931  0.182681  0.998461  -0.352347
    H   H1   0.283514  0.855826  0.985453  0.211067
    H   H2   0.705516  0.140273  0.009790  0.168282
    C   C5   0.032955  0.865070  0.998077  0.457042
    C   C6   0.956209  0.130308  0.999583  0.349340
    C   C7   0.886992  0.807835  0.008915  -0.089904
    C   C8   0.103844  0.187317  0.993121  -0.179322
    C   C9   0.885239  0.702708  0.024703  -0.110650
    C   C10  0.107638  0.293069  0.977227  -0.101850
    C   C11  0.022667  0.655964  0.034553  -0.165474
    C   C12  0.970716  0.340483  0.967089  -0.152667
    N   N1   0.044062  0.973416  0.981321  -0.340575
    N   N2   0.942421  0.021650  0.014561  -0.058546
    H   H3   0.016238  0.573060  0.045184  0.117817
    H   H4   0.978246  0.423625  0.957313  0.125466
    O   O1   0.682047  0.588661  0.078533  -0.763773
    O   O2   0.310521  0.408341  0.923342  -0.788628
    O   O3   0.684393  0.616183  0.948240  -0.780163
    O   O4   0.308956  0.380175  0.053677  -0.732161
    C   C13  0.741031  0.634286  0.017364  1.027845
    C   C14  0.251878  0.362172  0.984599  0.984531
    O   O5   0.649819  0.401362  0.925912  -0.660185
    O   O6   0.342632  0.595327  0.075744  -0.680485
    O   O7   0.637902  0.373539  0.055814  -0.530346
    O   O8   0.355609  0.623648  0.945971  -0.517170
    C   C15  0.690212  0.351676  0.987166  0.655312
    C   C16  0.302776  0.645398  0.014413  0.693819
    Zn  Zn1  0.500711  0.514045  0.916321  0.994469
    Zn  Zn2  0.492170  0.482821  0.085494  0.959477
    C   C17  0.496211  0.437312  0.780481  -0.159858
    C   C18  0.496072  0.559863  0.221374  -0.222397
    N   N3   0.506656  0.531174  0.816758  0.087105
    N   N4   0.486494  0.465952  0.185100  0.106831
    C   C19  0.514314  0.620140  0.774740  -0.153784
    C   C20  0.483650  0.377323  0.227185  -0.191432
    C   C21  0.483724  0.331027  0.667757  -0.276589
    C   C22  0.513856  0.666388  0.334139  -0.329371
    C   C23  0.495404  0.428733  0.702067  0.138028
    C   C24  0.500866  0.568630  0.299818  0.198887
    C   C25  0.505972  0.516767  0.658698  -0.046956
    C   C26  0.493796  0.480705  0.343234  -0.068690
    C   C27  0.516651  0.613506  0.694678  0.200150
    C   C28  0.484085  0.383980  0.307277  0.228929
    C   C29  0.529898  0.701927  0.649505  -0.365311
    C   C30  0.475169  0.295639  0.352535  -0.346577
    C   C31  0.471413  0.222618  0.553063  -0.114221
    C   C32  0.535629  0.774944  0.448835  -0.024774
    C   C33  0.483000  0.320574  0.588854  0.139879
    C   C34  0.520596  0.676954  0.413041  0.152253
    C   C35  0.492375  0.409806  0.544988  -0.007855
    C   C36  0.510816  0.587760  0.456940  -0.021957
    C   C37  0.468162  0.215819  0.474346  -0.229223
    C   C38  0.538438  0.781784  0.527589  -0.322868
    C   C39  0.477380  0.304829  0.431093  0.177710
    C   C40  0.527397  0.692786  0.570892  0.229861
    C   C41  0.504344  0.507509  0.579843  0.021978
    C   C42  0.497781  0.490044  0.422093  0.028203
    C   C43  0.514098  0.595925  0.535788  -0.029404
    C   C44  0.489375  0.401666  0.466161  -0.015789
    H   H5   0.485678  0.366566  0.813204  0.144971
    H   H6   0.504476  0.630583  0.188629  0.180177
    H   H7   0.474621  0.264033  0.704250  0.174095
    H   H8   0.518397  0.733340  0.297671  0.188272
    H   H9   0.542878  0.779958  0.673289  0.189962
    H   H10  0.465025  0.217495  0.329059  0.176811
    H   H11  0.459822  0.140029  0.446150  0.113975
    H   H12  0.550280  0.857605  0.555777  0.155123
    C   C45  0.731788  0.855355  0.001612  0.001848
    C   C46  0.685995  0.900326  0.078302  -0.266868
    H   H13  0.607457  0.840493  0.108422  0.051265
    H   H14  0.792078  0.920668  0.114522  0.050501
    H   H15  0.621280  0.970237  0.069388  0.050971
    H   H16  0.735836  0.914144  0.955817  0.060751
    H   H17  0.633253  0.797880  0.984360  0.044696
    C   C47  0.257015  0.139601  0.008845  0.209747
    C   C48  0.258831  0.098483  0.089842  -0.214220
    H   H18  0.202051  0.152984  0.128453  0.051646
    H   H19  0.196353  0.019559  0.095147  0.040362
    H   H20  0.383277  0.092870  0.107348  0.061786
    H   H21  0.281189  0.078766  0.966068  -0.037345
    H   H22  0.361253  0.197247  0.003865  -0.041026
    C   C49  0.463063  0.123158  0.596852  0.263444
    C   C50  0.625443  0.105508  0.627891  -0.153666
    H   H23  0.705550  0.091988  0.579428  0.040739
    H   H24  0.676468  0.174307  0.661526  0.027109
    H   H25  0.615369  0.035647  0.664644  0.019883
    H   H26  0.374425  0.123618  0.643274  -0.048590
    H   H27  0.424344  0.056284  0.558335  -0.052978
    C   C51  0.550103  0.874410  0.404979  0.070049
    C   C52  0.715202  0.893887  0.371705  -0.117384
    H   H28  0.802004  0.908249  0.419034  0.027611
    H   H29  0.746367  0.825604  0.337444  0.037577
    H   H30  0.720789  0.963784  0.335045  0.020993
    H   H31  0.458273  0.872915  0.359785  -0.022719
    H   H32  0.531148  0.940969  0.443886  0.059703
    C   C53  0.515535  0.725482  0.812941  0.276489
    C   C54  0.355339  0.768469  0.804396  -0.180277
    H   H33  0.324250  0.778298  0.743692  0.020358
    H   H34  0.261907  0.713952  0.830070  0.040127
    H   H35  0.358379  0.845353  0.834371  0.027268
    H   H36  0.541379  0.721526  0.873705  -0.047917
    H   H37  0.612055  0.780466  0.790411  -0.042142
    C   C55  0.486466  0.272569  0.188904  0.207278
    C   C56  0.650415  0.234443  0.195408  -0.235662
    H   H38  0.740634  0.294511  0.173511  0.061056
    H   H39  0.680441  0.219100  0.255487  0.049610
    H   H40  0.654247  0.161249  0.161297  0.040158
    H   H41  0.395625  0.215652  0.213577  -0.032899
    H   H42  0.454917  0.275533  0.128516  0.079913
