# Generated by REPEAT Assigner based on pymatgen
data_DB0-m3_o2_o19_f0_pcu.sym.17_sqe
_audit_creation_date              2022-05-24
_audit_creation_method            REPEAT_Assigner
_cell_length_a                    15.206445
_cell_length_b                    14.019494
_cell_length_c                    11.919847
_cell_angle_alpha                 90.000000
_cell_angle_beta                  89.992213
_cell_angle_gamma                 90.000000
_cell_volume                      2541.152341
_symmetry_space_group_name_H-M    P1
_symmetry_Int_Tables_number       1
loop_
    _symmetry_equiv_pos_site_id
    _symmetry_equiv_pos_as_xyz
    1  x,y,z
loop_
    _atom_site_type_symbol
    _atom_site_label
    _atom_site_fract_x
    _atom_site_fract_y
    _atom_site_fract_z
    _atom_type_partial_charge
    O   O1   0.368975  0.582354  0.499364  -0.671299
    O   O2   0.631025  0.417794  0.499344  -0.670914
    O   O3   0.631024  0.582355  0.500636  -0.671328
    O   O4   0.368975  0.417794  0.500656  -0.670892
    C   C1   0.327562  0.500074  0.500013  0.671070
    C   C2   0.672438  0.500074  0.499988  0.671068
    O   O5   0.500467  0.582413  0.332850  -0.640049
    O   O6   0.500447  0.417734  0.667151  -0.640515
    O   O7   0.499532  0.582413  0.667151  -0.640073
    O   O8   0.499552  0.417734  0.332849  -0.640490
    C   C3   0.500000  0.052452  0.500000  0.073043
    C   C4   0.500000  0.947703  0.500000  0.068340
    C   C5   0.500013  0.500073  0.280716  1.010139
    C   C6   0.499987  0.500073  0.719284  1.010122
    Zn  Zn1  0.500000  0.608639  0.500000  1.020766
    Zn  Zn2  0.500000  0.391510  0.500000  1.020626
    H   H1   0.551785  0.065878  0.333383  0.121740
    H   H2   0.551139  0.934276  0.666922  0.121407
    H   H3   0.448214  0.065878  0.666617  0.121750
    H   H4   0.448861  0.934276  0.333078  0.121405
    C   C7   0.527925  0.102680  0.407010  -0.126815
    C   C8   0.527564  0.897474  0.593154  -0.124582
    C   C9   0.472074  0.102680  0.592990  -0.126832
    C   C10  0.472435  0.897474  0.406846  -0.124560
    H   H5   0.551434  0.239629  0.336161  0.111274
    H   H6   0.550804  0.760534  0.664145  0.111344
    H   H7   0.448565  0.239629  0.663840  0.111262
    H   H8   0.449196  0.760534  0.335855  0.111354
    N   N1   0.500000  0.248779  0.500000  0.030618
    N   N2   0.500000  0.751371  0.500000  0.031339
    C   C11  0.500010  0.500073  0.160324  -0.361705
    C   C12  0.499990  0.500073  0.839676  -0.361503
    C   C13  0.500004  0.500073  0.059230  0.092602
    C   C14  0.499996  0.500073  0.940770  0.092339
    C   C15  0.528162  0.201032  0.408740  -0.018062
    C   C16  0.527808  0.799122  0.591425  -0.019210
    C   C17  0.471838  0.201032  0.591260  -0.018039
    C   C18  0.472191  0.799122  0.408575  -0.019245
    C   C19  0.093125  0.565255  0.563892  -0.186460
    C   C20  0.906859  0.434898  0.563884  -0.187561
    C   C21  0.906875  0.565255  0.436108  -0.186457
    C   C22  0.093141  0.434898  0.436116  -0.187576
    H   H9   0.056519  0.613913  0.616470  0.104564
    H   H10  0.943452  0.386242  0.616466  0.104943
    H   H11  0.943481  0.613913  0.383530  0.104563
    H   H12  0.056547  0.386242  0.383534  0.104946
    C   C23  0.183988  0.565014  0.566154  -0.077380
    C   C24  0.815995  0.435136  0.566137  -0.076556
    C   C25  0.816011  0.565014  0.433846  -0.077432
    C   C26  0.184004  0.435136  0.433863  -0.076462
    C   C27  0.230519  0.500074  0.500011  -0.048830
    C   C28  0.769480  0.500074  0.499989  -0.048740
    C   C29  0.047963  0.500077  0.500002  0.146074
    C   C30  0.952037  0.500077  0.499998  0.146092
    C   C31  0.228364  0.629027  0.646090  0.664334
    O   O9   0.284903  0.597862  0.708719  -0.495231
    C   C32  0.201681  0.731157  0.656259  -0.457141
    H   H13  0.154145  0.750474  0.589510  0.091168
    H   H14  0.260756  0.776947  0.647530  0.129163
    H   H15  0.171584  0.743399  0.739778  0.134065
    C   C33  0.771601  0.371126  0.646074  0.663669
    O   O10  0.715047  0.402294  0.708699  -0.494987
    C   C34  0.798282  0.268997  0.656251  -0.456567
    H   H16  0.845834  0.249677  0.589505  0.091120
    H   H17  0.739210  0.223205  0.647525  0.128770
    H   H18  0.828361  0.256760  0.739771  0.134032
    C   C35  0.771636  0.629027  0.353910  0.664365
    O   O11  0.715097  0.597862  0.291282  -0.495230
    C   C36  0.798318  0.731157  0.343741  -0.457133
    H   H19  0.845855  0.750474  0.410490  0.091164
    H   H20  0.739243  0.776947  0.352470  0.129161
    H   H21  0.828416  0.743399  0.260223  0.134059
    C   C37  0.228399  0.371126  0.353926  0.663558
    O   O12  0.284953  0.402294  0.291301  -0.494940
    C   C38  0.201718  0.268997  0.343749  -0.456547
    H   H22  0.154166  0.249677  0.410495  0.091120
    H   H23  0.260790  0.223205  0.352476  0.128766
    H   H24  0.171639  0.256760  0.260229  0.134039
