# Generated by REPEAT Assigner based on pymatgen
data_DB0-m2_o15_o22_f0_nbo.sym.38
_audit_creation_date              2022-05-24
_audit_creation_method            REPEAT_Assigner
_cell_length_a                    18.476395
_cell_length_b                    18.710679
_cell_length_c                    18.704884
_cell_angle_alpha                 109.641360
_cell_angle_beta                  109.574656
_cell_angle_gamma                 108.933979
_cell_volume                      4993.786702
_symmetry_space_group_name_H-M    P1
_symmetry_Int_Tables_number       1
loop_
    _symmetry_equiv_pos_site_id
    _symmetry_equiv_pos_as_xyz
    1  x,y,z
loop_
    _atom_site_type_symbol
    _atom_site_label
    _atom_site_fract_x
    _atom_site_fract_y
    _atom_site_fract_z
    _atom_type_partial_charge
    O   O1   0.430705  0.360718  0.472080  -0.621841
    O   O2   0.398656  0.466254  0.539294  -0.607702
    C   C1   0.384415  0.385222  0.505346  0.901848
    O   O3   0.609167  0.461172  0.542703  -0.529092
    O   O4   0.576063  0.532549  0.644641  -0.570275
    C   C2   0.620814  0.495358  0.622938  0.482255
    Cu  Cu1  0.503861  0.436583  0.444615  0.912961
    Cu  Cu2  0.506573  0.560535  0.565138  0.897163
    O   O5   0.576927  0.531810  0.435518  -0.589990
    O   O6   0.613883  0.635235  0.571745  -0.542429
    O   O7   0.398729  0.431194  0.365536  -0.556464
    O   O8   0.436400  0.569144  0.466943  -0.562185
    C   C3   0.623463  0.612888  0.501711  0.878072
    C   C4   0.387981  0.500434  0.387156  0.722319
    C   C5   0.665762  0.401342  0.672214  -0.064250
    H   H1   0.657718  0.364048  0.607186  0.008812
    H   H2   0.602913  0.369465  0.671073  0.009168
    C   C6   0.738763  0.401771  0.741376  -0.004385
    H   H3   0.709797  0.363970  0.768722  0.001882
    H   H4   0.770607  0.370771  0.710962  -0.008816
    H   H5   0.776184  0.499882  0.640159  -0.008194
    H   H6   0.884649  0.515368  0.749967  0.100876
    C   C7   0.778099  0.538830  0.700893  0.226993
    C   C8   0.695612  0.542617  0.780983  -0.230480
    C   C9   0.689299  0.494352  0.693511  0.220031
    H   H7   0.717074  0.611948  0.799673  0.051455
    H   H8   0.630680  0.512215  0.776684  0.067339
    C   C10  0.807225  0.494975  0.813723  0.365283
    C   C11  0.848971  0.544358  0.775767  -0.441701
    C   C12  0.762209  0.538491  0.851349  -0.012179
    H   H9   0.727364  0.500500  0.875259  0.019429
    H   H10  0.812021  0.605450  0.906699  0.019636
    H   H11  0.794364  0.605498  0.712130  0.011762
    H   H12  0.895433  0.613851  0.826771  0.089812
    H   H13  0.154512  0.172047  0.206539  0.105693
    C   C13  0.393932  0.391064  0.662398  -0.252605
    C   C14  0.399547  0.397127  0.739558  -0.079189
    C   C15  0.332150  0.336546  0.738147  -0.080465
    C   C16  0.259863  0.268463  0.659532  -0.253001
    C   C17  0.253970  0.260094  0.580715  0.201678
    C   C18  0.320402  0.323640  0.582244  0.241922
    C   C19  0.182140  0.189520  0.501011  -0.342838
    C   C20  0.176126  0.183959  0.422910  0.200865
    C   C21  0.240749  0.249297  0.424536  0.238623
    C   C22  0.313620  0.318752  0.504149  -0.442766
    C   C23  0.106509  0.112631  0.342529  -0.252741
    C   C24  0.099203  0.108367  0.265456  -0.074294
    C   C25  0.160844  0.174856  0.267138  -0.077186
    C   C26  0.231213  0.244739  0.345863  -0.247294
    H   H14  0.448964  0.440449  0.667657  0.153690
    H   H15  0.456855  0.450075  0.801379  0.103051
    H   H16  0.336091  0.341979  0.798882  0.105224
    H   H17  0.208846  0.223201  0.662575  0.154288
    H   H18  0.056396  0.058153  0.336925  0.151343
    H   H19  0.044497  0.052809  0.203519  0.104984
    H   H20  0.277159  0.295114  0.343008  0.143887
    H   H21  0.456690  0.494065  0.158098  0.105203
    C   C27  0.238986  0.503233  0.398934  -0.246547
    C   C28  0.170026  0.508274  0.408737  -0.072483
    C   C29  0.108536  0.513769  0.348158  -0.086288
    C   C30  0.114532  0.512011  0.276383  -0.230203
    C   C31  0.182738  0.504885  0.264299  0.197140
    C   C32  0.247376  0.503426  0.327784  0.205134
    C   C33  0.187038  0.500241  0.190078  -0.345517
    C   C34  0.257612  0.496282  0.180812  0.214580
    C   C35  0.324125  0.498375  0.245971  0.186405
    C   C36  0.318780  0.500944  0.319260  -0.326972
    C   C37  0.262026  0.489138  0.106087  -0.257359
    C   C38  0.332886  0.487858  0.097971  -0.073162
    C   C39  0.400417  0.493900  0.164011  -0.086403
    C   C40  0.396311  0.499042  0.237472  -0.209928
    H   H22  0.284860  0.498649  0.448411  0.152018
    H   H23  0.164661  0.508528  0.464607  0.103221
    H   H24  0.054937  0.518851  0.356480  0.105871
    H   H25  0.064552  0.516973  0.231279  0.141008
    H   H26  0.210902  0.483852  0.051952  0.152811
    H   H27  0.335651  0.482749  0.039745  0.105877
    H   H28  0.451619  0.504264  0.287372  0.118043
    H   H29  0.772542  0.504928  0.346484  0.118611
    C   C41  0.634601  0.781075  0.550304  -0.297327
    C   C42  0.646195  0.863981  0.586218  -0.032593
    C   C43  0.714975  0.931384  0.596611  -0.095231
    C   C44  0.768967  0.914888  0.566016  -0.227458
    C   C45  0.756927  0.831027  0.528114  0.192014
    C   C46  0.693461  0.764119  0.525956  0.287804
    C   C47  0.804169  0.813050  0.487687  -0.354345
    C   C48  0.788203  0.728475  0.445476  0.170979
    C   C49  0.738703  0.664822  0.458002  0.265808
    C   C50  0.688019  0.681656  0.497134  -0.499425
    C   C51  0.824486  0.708137  0.392737  -0.225840
    C   C52  0.810573  0.625377  0.351014  -0.069555
    C   C53  0.771911  0.565562  0.371535  -0.114507
    C   C54  0.742891  0.587154  0.430689  -0.219725
    H   H30  0.576148  0.730966  0.539466  0.143447
    H   H31  0.600521  0.875834  0.605751  0.099112
    H   H32  0.724226  0.996597  0.625048  0.104326
    H   H33  0.818911  0.969270  0.571192  0.136175
    H   H34  0.861487  0.754654  0.379676  0.151288
    H   H35  0.836987  0.609739  0.307992  0.101487
    O   O9   0.929805  0.358798  0.899775  -0.593912
    O   O10  0.065744  0.459992  0.931579  -0.604198
    C   C55  0.997436  0.380402  0.886163  0.857654
    O   O11  0.855827  0.463247  0.931095  -0.586820
    O   O12  0.958379  0.530928  0.897050  -0.531831
    C   C56  0.877365  0.496138  0.884203  0.451306
    Cu  Cu3  0.936819  0.438760  0.004305  0.924422
    Cu  Cu4  0.057785  0.558045  0.002450  0.906391
    O   O13  0.962250  0.537226  0.108365  -0.601907
    O   O14  0.030995  0.637664  0.073374  -0.592419
    O   O15  0.036433  0.432543  0.077049  -0.581740
    O   O16  0.138553  0.566635  0.108196  -0.567719
    C   C57  0.995700  0.616523  0.118977  0.875198
    C   C58  0.117326  0.499726  0.121761  0.771539
    O   O17  0.959338  0.934841  0.355314  -0.612736
    O   O18  0.025898  0.896215  0.454174  -0.623040
    C   C59  0.992349  0.886682  0.374968  0.877104
    O   O19  0.032038  0.110185  0.465281  -0.574779
    O   O20  0.133615  0.072642  0.530683  -0.567554
    C   C60  0.112664  0.120974  0.499146  0.757623
    Cu  Cu5  0.932339  0.004674  0.435620  0.920868
    Cu  Cu6  0.052475  0.999621  0.554078  0.928339
    O   O21  0.924020  0.073670  0.534346  -0.614021
    O   O22  0.060336  0.103785  0.635596  -0.623133
    O   O23  0.851230  0.898359  0.424332  -0.627114
    O   O24  0.952714  0.927410  0.559082  -0.610678
    C   C61  0.992149  0.117209  0.614620  0.861992
    C   C62  0.872356  0.883487  0.490675  0.875729
    H   H36  0.004243  0.156021  0.956677  0.107676
    C   C63  0.989085  0.390090  0.735489  -0.233397
    C   C64  0.989420  0.399076  0.665644  -0.080222
    C   C65  0.994529  0.339190  0.603719  -0.081937
    C   C66  0.996693  0.268792  0.610119  -0.252119
    C   C67  0.993819  0.257325  0.679099  0.195016
    C   C68  0.993386  0.320343  0.744177  0.231647
    C   C69  0.992599  0.184370  0.683976  -0.373721
    C   C70  0.993081  0.175709  0.755202  0.195871
    C   C71  0.996953  0.240826  0.822342  0.246414
    C   C72  0.996178  0.312784  0.816496  -0.422279
    C   C73  0.988690  0.101801  0.759743  -0.208072
    C   C74  0.992027  0.094698  0.831419  -0.104057
    C   C75  0.000280  0.161047  0.899731  -0.066648
    C   C76  0.002717  0.233652  0.895506  -0.274374
    H   H37  0.984766  0.439057  0.781762  0.142600
    H   H38  0.986467  0.453832  0.660029  0.101409
    H   H39  0.996173  0.346930  0.549465  0.106262
    H   H40  0.001235  0.224339  0.559758  0.150103
    H   H41  0.981792  0.047412  0.708034  0.142469
    H   H42  0.988904  0.037070  0.834216  0.110048
    H   H43  0.009897  0.283896  0.951426  0.150652
    H   H44  0.696073  0.560062  0.024190  0.114360
    C   C77  0.152709  0.755950  0.274211  -0.261215
    C   C78  0.230920  0.825688  0.345730  -0.051908
    C   C79  0.230921  0.894918  0.402331  -0.095862
    C   C80  0.152533  0.893507  0.388975  -0.222375
    C   C81  0.072457  0.822245  0.318330  0.207852
    C   C82  0.072944  0.754350  0.258710  0.233377
    C   C83  0.992737  0.819424  0.306211  -0.440573
    C   C84  0.913696  0.750127  0.231806  0.258365
    C   C85  0.914714  0.683546  0.170932  0.227193
    C   C86  0.994182  0.685127  0.184846  -0.425015
    C   C87  0.832960  0.745491  0.217781  -0.244969
    C   C88  0.755500  0.677565  0.143824  -0.086491
    C   C89  0.756937  0.613206  0.082649  -0.102483
    C   C90  0.835741  0.615863  0.095955  -0.241367
    H   H45  0.156738  0.703339  0.232155  0.145912
    H   H46  0.292481  0.826327  0.356799  0.097110
    H   H47  0.292558  0.950533  0.457687  0.109862
    H   H48  0.156925  0.950499  0.434685  0.141247
    H   H49  0.827099  0.793580  0.263344  0.151404
    H   H50  0.693428  0.675087  0.133829  0.102337
    H   H51  0.832652  0.563341  0.045823  0.135437
    C   C91  0.740033  0.539397  0.478822  0.699961
    O   O25  0.767490  0.579898  0.557032  -0.549970
    C   C92  0.712885  0.444585  0.436466  -0.419890
    H   H52  0.648132  0.407547  0.375422  0.079422
    H   H53  0.707060  0.420107  0.481669  0.127775
    H   H54  0.763205  0.434150  0.421919  0.105121
