# Generated by REPEAT Assigner based on pymatgen
data_DB0-m2_o6_brl
_audit_creation_date              2022-05-24
_audit_creation_method            REPEAT_Assigner
_cell_length_a                    20.968571
_cell_length_b                    49.555801
_cell_length_c                    47.512021
_cell_angle_alpha                 117.999493
_cell_angle_beta                  88.900252
_cell_angle_gamma                 92.057183
_cell_volume                      43563.452914
_symmetry_space_group_name_H-M    P1
_symmetry_Int_Tables_number       1
loop_
    _symmetry_equiv_pos_site_id
    _symmetry_equiv_pos_as_xyz
    1  x,y,z
loop_
    _atom_site_type_symbol
    _atom_site_label
    _atom_site_fract_x
    _atom_site_fract_y
    _atom_site_fract_z
    _atom_type_partial_charge
    C   C1    0.422194  0.996139  0.497483  0.824458
    C   C2    0.680213  0.936421  0.776266  0.770494
    C   C3    0.216939  0.003714  0.862550  -0.226966
    C   C4    0.249036  0.031425  0.879758  0.297420
    C   C5    0.310743  0.035236  0.871229  -0.193419
    C   C6    0.338669  0.959056  0.801836  0.000296
    C   C7    0.218348  0.056187  0.906424  -0.109995
    C   C8    0.192542  0.076859  0.928803  -0.210357
    C   C9    0.363659  0.938147  0.779351  -0.277141
    C   C10   0.872698  0.986763  0.826482  -0.183209
    C   C11   0.806934  0.983775  0.826165  0.257644
    C   C12   0.772380  0.004726  0.851640  -0.200608
    C   C13   0.559270  0.972005  0.750694  0.836943
    C   C14   0.803324  0.028456  0.877207  -0.202088
    C   C15   0.869075  0.031440  0.877521  0.307155
    C   C16   0.903646  0.010499  0.852057  -0.226704
    C   C17   0.774616  0.958967  0.799439  0.004336
    C   C18   0.901367  0.056239  0.904241  -0.112345
    C   C19   0.927376  0.077218  0.926875  -0.208178
    C   C20   0.748913  0.937907  0.776744  -0.276421
    C   C21   0.508774  0.783505  0.826131  -0.199164
    C   C22   0.549172  0.761196  0.805577  0.250553
    C   C23   0.590377  0.768077  0.786581  -0.171760
    C   C24   0.432177  0.936586  0.777991  0.792950
    C   C25   0.591179  0.796777  0.788117  -0.192817
    C   C26   0.550792  0.819088  0.808677  0.288760
    C   C27   0.509577  0.812204  0.827667  -0.187478
    C   C28   0.548346  0.731087  0.803977  -0.034133
    C   C29   0.551654  0.849207  0.810303  -0.078322
    C   C30   0.552381  0.874415  0.811735  -0.226042
    C   C31   0.547659  0.705944  0.802703  -0.278664
    C   C32   0.275699  0.664382  0.119104  -0.207542
    C   C33   0.230098  0.641654  0.103117  0.376561
    C   C34   0.214776  0.620673  0.113795  -0.248714
    C   C35   0.541579  0.593842  0.188680  0.912939
    C   C36   0.244793  0.622426  0.140294  -0.140195
    C   C37   0.290334  0.645173  0.156299  0.186195
    C   C38   0.305727  0.666130  0.145600  -0.168723
    C   C39   0.198687  0.639841  0.075471  -0.204096
    C   C40   0.321569  0.647044  0.184007  0.048377
    C   C41   0.346558  0.648916  0.207635  -0.318681
    C   C42   0.172063  0.638187  0.052308  -0.123073
    C   C43   0.844706  0.667414  0.163747  -0.152726
    C   C44   0.788184  0.651510  0.161938  0.215195
    C   C45   0.761771  0.632569  0.132470  -0.202218
    C   C46   0.662900  0.656311  0.214750  0.832023
    C   C47   0.791685  0.629556  0.104995  -0.196062
    C   C48   0.848214  0.645459  0.106804  0.369223
    C   C49   0.874627  0.664395  0.136272  -0.236966
    C   C50   0.756934  0.654676  0.190626  0.042146
    C   C51   0.879445  0.642323  0.078124  -0.188309
    C   C52   0.905634  0.639886  0.054157  -0.148994
    C   C53   0.731549  0.657510  0.214915  -0.317465
    C   C54   0.495481  0.493207  0.180982  -0.186679
    C   C55   0.548127  0.505681  0.172747  0.251200
    C   C56   0.603177  0.489051  0.163023  -0.203505
    C   C57   0.536930  0.713598  0.240029  0.852683
    C   C58   0.605532  0.460439  0.161550  -0.180182
    C   C59   0.552879  0.447960  0.169775  0.302404
    C   C60   0.497837  0.464595  0.179509  -0.204534
    C   C61   0.545644  0.535699  0.174273  -0.029795
    C   C62   0.555339  0.417927  0.168209  -0.082427
    C   C63   0.557389  0.392791  0.166827  -0.220746
    C   C64   0.543537  0.560763  0.175486  -0.289185
    C   C65   0.478967  0.412681  0.648271  -0.194268
    C   C66   0.531779  0.399905  0.629302  0.264289
    C   C67   0.586461  0.418029  0.634197  -0.203901
    C   C68   0.415061  0.650584  0.209967  0.852857
    C   C69   0.588317  0.448384  0.657665  -0.191278
    C   C70   0.535519  0.461153  0.676652  0.270062
    C   C71   0.480820  0.443035  0.671737  -0.197253
    C   C72   0.529862  0.368031  0.604710  -0.042275
    C   C73   0.537485  0.493000  0.701314  -0.064161
    C   C74   0.539064  0.519580  0.722018  -0.227064
    C   C75   0.528199  0.341337  0.584290  -0.262116
    C   C76   0.571661  0.281197  0.348290  -0.121040
    C   C77   0.570858  0.251399  0.343471  0.189403
    C   C78   0.567979  0.227764  0.312580  -0.144988
    C   C79   0.533143  0.321300  0.550182  0.908607
    C   C80   0.565957  0.233827  0.286907  -0.209208
    C   C81   0.566785  0.263620  0.291718  0.274813
    C   C82   0.569644  0.287260  0.322613  -0.185786
    C   C83   0.573023  0.245031  0.370383  -0.001500
    C   C84   0.564697  0.269965  0.264785  -0.073898
    C   C85   0.563005  0.275054  0.242119  -0.239341
    C   C86   0.575011  0.239488  0.392736  -0.274938
    C   C87   0.808919  0.242524  0.094610  -0.191696
    C   C88   0.871264  0.236145  0.097600  0.286039
    C   C89   0.903160  0.253702  0.125913  -0.208284
    C   C90   0.426434  0.272231  0.478784  0.837478
    C   C91   0.872964  0.277438  0.151027  -0.179055
    C   C92   0.810625  0.283820  0.148036  0.249636
    C   C93   0.778725  0.266262  0.119722  -0.194834
    C   C94   0.902819  0.211346  0.071360  -0.098559
    C   C95   0.779097  0.308633  0.174273  -0.000281
    C   C96   0.753500  0.329627  0.196408  -0.272380
    C   C97   0.929236  0.190550  0.049382  -0.215365
    C   C98   0.336826  0.254317  0.139833  -0.184444
    C   C99   0.311815  0.283154  0.153937  0.214739
    C   C100  0.256800  0.288134  0.141746  -0.166672
    C   C101  0.566257  0.255986  0.427003  0.844651
    C   C102  0.226999  0.264458  0.115669  -0.202984
    C   C103  0.251987  0.235616  0.101571  0.290433
    C   C104  0.307027  0.230641  0.113754  -0.192901
    C   C105  0.342931  0.307884  0.181187  0.034199
    C   C106  0.220840  0.210885  0.074331  -0.112307
    C   C107  0.194656  0.190238  0.051473  -0.204337
    C   C108  0.368340  0.328671  0.204216  -0.312707
    C   C109  0.198403  0.613501  0.843968  -0.250002
    C   C110  0.232009  0.622583  0.871841  0.377296
    C   C111  0.296622  0.629270  0.872507  -0.217920
    C   C112  0.527705  0.945109  0.426583  0.867300
    C   C113  0.670511  0.296949  0.496503  0.829142
    C   C114  0.327440  0.626879  0.845478  -0.197974
    C   C115  0.293861  0.617759  0.817583  0.225754
    C   C116  0.229230  0.611091  0.816927  -0.158242
    C   C117  0.199866  0.625064  0.900062  -0.193452
    C   C118  0.326048  0.615197  0.789329  0.032626
    C   C119  0.351509  0.612598  0.765140  -0.299344
    C   C120  0.173880  0.627088  0.923909  -0.142207
    C   C121  0.840094  0.640979  0.834666  -0.145628
    C   C122  0.791870  0.619322  0.820007  0.190346
    C   C123  0.773221  0.600078  0.832458  -0.166598
    C   C124  0.973730  0.097853  0.949587  0.905658
    C   C125  0.802664  0.602443  0.859359  -0.216245
    C   C126  0.850939  0.624081  0.874002  0.384829
    C   C127  0.869529  0.643350  0.861569  -0.250687
    C   C128  0.761222  0.616807  0.791882  0.052022
    C   C129  0.881728  0.626539  0.902075  -0.211722
    C   C130  0.907721  0.628697  0.925604  -0.117103
    C   C131  0.736554  0.614329  0.767927  -0.320978
    C   C132  0.146978  0.097622  0.950861  0.907920
    C   C133  0.148298  0.169615  0.028746  0.898649
    C   C134  0.974947  0.169827  0.027397  0.905926
    C   C135  0.546559  0.672799  0.789334  0.908373
    C   C136  0.668016  0.613729  0.766314  0.842384
    C   C137  0.540992  0.552877  0.737415  0.876922
    C   C138  0.420138  0.612579  0.764474  0.817144
    C   C139  0.953662  0.630449  0.948697  0.816314
    C   C140  0.661472  0.967128  0.480669  0.867288
    C   C141  0.127163  0.629395  0.947581  0.838454
    C   C142  0.125978  0.636462  0.029285  0.812333
    C   C143  0.952354  0.637560  0.030475  0.847012
    C   C144  0.562237  0.295048  0.227497  0.844297
    C   C145  0.684980  0.331018  0.198649  0.776167
    C   C146  0.559069  0.370823  0.179035  0.841103
    C   C147  0.437003  0.330252  0.203767  0.819781
    C   C148  0.324517  0.072541  0.496078  -0.192883
    C   C149  0.309242  0.060306  0.516244  0.286484
    C   C150  0.269481  0.076227  0.541966  -0.209515
    C   C151  0.560264  0.009763  0.549861  0.899591
    C   C152  0.245461  0.104022  0.547445  -0.124660
    C   C153  0.260883  0.116321  0.527304  0.122521
    C   C154  0.300538  0.100295  0.501556  -0.084938
    C   C155  0.334589  0.031216  0.510431  -0.021324
    C   C156  0.235539  0.145471  0.533059  0.173766
    C   C157  0.214004  0.170036  0.538786  -0.412301
    C   C158  0.357553  0.006820  0.504093  -0.242014
    C   C159  0.826408  0.023800  0.482477  -0.160282
    C   C160  0.789742  0.999807  0.460170  0.254712
    C   C161  0.785260  0.996449  0.429701  -0.189398
    C   C162  0.149796  0.105107  0.449761  0.850127
    C   C163  0.817201  0.016808  0.421608  -0.176115
    C   C164  0.853937  0.040782  0.443901  0.240392
    C   C165  0.858328  0.044170  0.474391  -0.192870
    C   C166  0.756222  0.978519  0.468640  0.056156
    C   C167  0.887372  0.062083  0.435422  0.024386
    C   C168  0.915141  0.079718  0.427971  -0.277315
    C   C169  0.728287  0.960534  0.475536  -0.362767
    C   C170  0.611363  0.995671  0.636411  -0.174640
    C   C171  0.567243  0.014403  0.633676  0.233400
    C   C172  0.521464  0.027251  0.657244  -0.168149
    C   C173  0.967202  0.098193  0.447879  0.836030
    C   C174  0.519876  0.021488  0.683160  -0.176106
    C   C175  0.564041  0.002786  0.685916  0.270995
    C   C176  0.609778  0.989908  0.662329  -0.162028
    C   C177  0.568989  0.020505  0.606542  -0.008213
    C   C178  0.562440  0.996791  0.713124  -0.068546
    C   C179  0.561142  0.991960  0.735994  -0.243681
    C   C180  0.570597  0.025869  0.584023  -0.315764
    C   C181  0.489701  0.844313  0.349694  -0.188075
    C   C182  0.528483  0.866493  0.347581  0.259957
    C   C183  0.569217  0.857787  0.321701  -0.202205
    C   C184  0.969871  0.167276  0.526969  0.885131
    C   C185  0.571097  0.827446  0.298333  -0.196956
    C   C186  0.532277  0.805269  0.300430  0.265627
    C   C187  0.491578  0.813970  0.326324  -0.183244
    C   C188  0.526439  0.898348  0.372078  -0.045106
    C   C189  0.534199  0.773430  0.275879  -0.070608
    C   C190  0.535786  0.746854  0.255270  -0.213359
    C   C191  0.524527  0.925020  0.392416  -0.248944
    C   C192  0.813534  0.212808  0.508290  -0.174569
    C   C193  0.860087  0.223605  0.531573  0.247758
    C   C194  0.875348  0.254560  0.547073  -0.174460
    C   C195  0.152264  0.160394  0.524072  0.838437
    C   C196  0.844361  0.274484  0.539423  -0.176386
    C   C197  0.797750  0.263695  0.516171  0.255839
    C   C198  0.782541  0.232733  0.500641  -0.184629
    C   C199  0.892404  0.202766  0.539651  0.030808
    C   C200  0.765234  0.284564  0.508205  0.022982
    C   C201  0.738363  0.302195  0.501655  -0.303954
    C   C202  0.918973  0.185546  0.546904  -0.327344
    C   C203  0.328952  0.194194  0.476926  -0.197457
    C   C204  0.310858  0.207588  0.458672  0.285148
    C   C205  0.267525  0.192072  0.434288  -0.224536
    C   C206  0.553573  0.896358  0.799438  0.852161
    C   C207  0.242668  0.163542  0.428260  -0.092422
    C   C208  0.260802  0.150101  0.446511  0.096850
    C   C209  0.304133  0.165697  0.470901  -0.071334
    C   C210  0.336962  0.237471  0.465076  0.001173
    C   C211  0.234178  0.120267  0.440304  0.188543
    C   C212  0.210660  0.095371  0.434499  -0.426297
    C   C213  0.360225  0.262554  0.471679  -0.263089
    C   C214  0.340103  0.011533  0.845707  -0.203178
    C   C215  0.308002  0.983822  0.828503  0.248018
    C   C216  0.246303  0.980011  0.837033  -0.174662
    Cu  Cu1   0.555010  0.003684  0.484808  0.990335
    Cu  Cu2   0.554576  0.262479  0.492159  0.986331
    Cu  Cu3   0.064118  0.149979  0.973868  1.056269
    Cu  Cu4   0.057905  0.117498  0.004448  1.055703
    Cu  Cu5   0.542278  0.614729  0.792783  1.009073
    Cu  Cu6   0.545935  0.611100  0.735897  1.053406
    Cu  Cu7   0.042533  0.663394  0.001359  1.086262
    Cu  Cu8   0.036991  0.603548  0.976688  1.090632
    Cu  Cu9   0.558636  0.308747  0.173335  1.033151
    Cu  Cu10  0.563442  0.355222  0.230914  1.095707
    Cu  Cu11  0.526808  0.955424  0.491742  1.030178
    Cu  Cu12  0.053942  0.114489  0.499635  0.956738
    Cu  Cu13  0.057415  0.151119  0.474859  0.956169
    Cu  Cu14  0.554771  0.911878  0.747413  1.089114
    Cu  Cu15  0.557485  0.958396  0.804989  1.029181
    Cu  Cu16  0.541321  0.651710  0.184895  1.006371
    Cu  Cu17  0.536532  0.655560  0.241865  1.052138
    Cu  Cu18  0.541012  0.311165  0.485066  1.031855
    H   H1    0.313116  0.109331  0.485456  0.111623
    H   H2    0.647432  0.985445  0.618197  0.153491
    H   H3    0.486632  0.041933  0.655465  0.133425
    H   H4    0.483816  0.031723  0.701377  0.155608
    H   H5    0.460914  0.796970  0.328373  0.158186
    H   H6    0.457593  0.850679  0.369739  0.159817
    H   H7    0.599871  0.874786  0.319646  0.156757
    H   H8    0.603200  0.821085  0.278288  0.159836
    H   H9    0.746187  0.224008  0.482410  0.166469
    H   H10   0.801195  0.188651  0.495981  0.149711
    H   H11   0.911683  0.263287  0.565312  0.155648
    H   H12   0.355463  0.060363  0.475853  0.153643
    H   H13   0.856699  0.298641  0.551740  0.153888
    H   H14   0.318905  0.155759  0.485519  0.098851
    H   H15   0.362734  0.206054  0.496085  0.155128
    H   H16   0.252864  0.202276  0.419821  0.163499
    H   H17   0.208735  0.151727  0.409167  0.134830
    H   H18   0.336214  0.056845  0.884562  0.167577
    H   H19   0.388396  0.014715  0.839194  0.168754
    H   H20   0.220833  0.958402  0.823700  0.159705
    H   H21   0.168638  0.000535  0.869056  0.166470
    H   H22   0.955127  0.012669  0.852116  0.162136
    H   H23   0.257025  0.066935  0.557941  0.161542
    H   H24   0.900115  0.970474  0.806651  0.159938
    H   H25   0.720912  0.002596  0.851629  0.163607
    H   H26   0.775910  0.044745  0.897039  0.169091
    H   H27   0.477689  0.829347  0.843866  0.160482
    H   H28   0.476266  0.778538  0.841145  0.147648
    H   H29   0.622266  0.750933  0.770383  0.153850
    H   H30   0.623687  0.801748  0.773104  0.147762
    H   H31   0.341370  0.683981  0.158005  0.154669
    H   H32   0.287951  0.680879  0.110877  0.169668
    H   H33   0.179143  0.602817  0.101396  0.178135
    H   H34   0.214411  0.116176  0.567630  0.144793
    H   H35   0.232529  0.605936  0.148529  0.147071
    H   H36   0.918868  0.676910  0.137862  0.162598
    H   H37   0.865638  0.682283  0.186738  0.152541
    H   H38   0.717531  0.620052  0.130881  0.162648
    H   H39   0.770741  0.614693  0.082005  0.167642
    H   H40   0.456246  0.455214  0.186028  0.152917
    H   H41   0.452075  0.505867  0.188635  0.157553
    H   H42   0.644767  0.498430  0.156502  0.153729
    H   H43   0.648937  0.447779  0.153895  0.149416
    H   H44   0.439111  0.452609  0.686328  0.157040
    H   H45   0.886852  0.062843  0.492045  0.168973
    H   H46   0.435830  0.398883  0.644795  0.156348
    H   H47   0.628172  0.408451  0.619608  0.159359
    H   H48   0.631459  0.462181  0.661150  0.157481
    H   H49   0.570321  0.310671  0.326787  0.159162
    H   H50   0.573893  0.299926  0.372279  0.151136
    H   H51   0.567310  0.204353  0.308400  0.125952
    H   H52   0.563728  0.215091  0.262923  0.176389
    H   H53   0.729939  0.271095  0.117167  0.160402
    H   H54   0.783600  0.228902  0.072538  0.165023
    H   H55   0.951956  0.248871  0.128458  0.154749
    H   H56   0.830180  0.026691  0.506399  0.153070
    H   H57   0.898284  0.291062  0.173098  0.155934
    H   H58   0.326905  0.208138  0.102860  0.165943
    H   H59   0.379884  0.250236  0.149224  0.164563
    H   H60   0.236930  0.310638  0.152640  0.159163
    H   H61   0.183946  0.268546  0.106282  0.156816
    H   H62   0.202637  0.603949  0.795181  0.151364
    H   H63   0.147801  0.608241  0.843284  0.170026
    H   H64   0.323217  0.636404  0.894251  0.178123
    H   H65   0.378020  0.632175  0.846210  0.159498
    H   H66   0.907269  0.660345  0.872907  0.177466
    H   H67   0.756621  0.977810  0.412074  0.159579
    H   H68   0.854917  0.656129  0.825057  0.148843
    H   H69   0.735470  0.583088  0.821114  0.155044
    H   H70   0.787847  0.587288  0.868962  0.172915
    H   H71   0.813355  0.013931  0.397696  0.158570
    H   H72   0.644623  0.975235  0.664117  0.148233
    O   O1    0.465154  0.012650  0.491676  -0.625416
    O   O2    0.122369  0.126628  0.446424  -0.604177
    O   O3    0.993067  0.089521  0.466999  -0.619177
    O   O4    0.986851  0.123851  0.447904  -0.636034
    O   O5    0.985797  0.141676  0.526906  -0.649914
    O   O6    0.998284  0.176011  0.507768  -0.634800
    O   O7    0.121363  0.138870  0.527616  -0.610559
    O   O8    0.131580  0.169697  0.504022  -0.605256
    O   O9    0.553048  0.886147  0.768504  -0.666490
    O   O10   0.555279  0.926110  0.818849  -0.696289
    O   O11   0.648862  0.915708  0.751187  -0.583475
    O   O12   0.438379  0.970872  0.498076  -0.627851
    O   O13   0.649530  0.956272  0.801231  -0.573732
    O   O14   0.557321  0.942349  0.732265  -0.681529
    O   O15   0.559586  0.983280  0.782014  -0.656642
    O   O16   0.461131  0.915842  0.752507  -0.593147
    O   O17   0.465150  0.956402  0.802543  -0.587326
    O   O18   0.542937  0.606832  0.169929  -0.662737
    O   O19   0.538678  0.610814  0.219713  -0.673248
    O   O20   0.633313  0.654036  0.189701  -0.594167
    O   O21   0.630532  0.657354  0.239267  -0.611024
    O   O22   0.539408  0.697202  0.208679  -0.684391
    O   O23   0.542297  0.974646  0.438464  -0.676879
    O   O24   0.535465  0.699922  0.257921  -0.642553
    O   O25   0.448762  0.649637  0.186074  -0.615589
    O   O26   0.443240  0.653040  0.235652  -0.618337
    O   O27   0.530229  0.333444  0.531054  -0.643823
    O   O28   0.542090  0.291639  0.538405  -0.696345
    O   O29   0.449585  0.297196  0.478321  -0.636692
    O   O30   0.463729  0.255040  0.484821  -0.613571
    O   O31   0.557133  0.285360  0.440060  -0.662309
    O   O32   0.566647  0.242000  0.444852  -0.627285
    O   O33   0.634981  0.316139  0.492080  -0.620838
    O   O34   0.517974  0.933081  0.445673  -0.633015
    O   O35   0.644703  0.272685  0.496714  -0.591818
    O   O36   0.997882  0.121085  0.946342  -0.670585
    O   O37   0.992482  0.092864  0.972931  -0.661596
    O   O38   0.128565  0.120922  0.947320  -0.670440
    O   O39   0.123165  0.092684  0.973887  -0.665017
    O   O40   0.129542  0.174617  0.005407  -0.658031
    O   O41   0.124145  0.146377  0.031974  -0.670578
    O   O42   0.998800  0.174771  0.004383  -0.665734
    O   O43   0.993399  0.146549  0.030971  -0.666609
    O   O44   0.544416  0.659690  0.807975  -0.665561
    O   O45   0.642612  0.991834  0.480456  -0.604733
    O   O46   0.547583  0.655896  0.758259  -0.680973
    O   O47   0.634783  0.615103  0.790516  -0.611280
    O   O48   0.639340  0.611901  0.741014  -0.613427
    O   O49   0.540288  0.569193  0.768797  -0.696591
    O   O50   0.543343  0.566669  0.719635  -0.649032
    O   O51   0.450238  0.614194  0.789104  -0.589910
    O   O52   0.451995  0.611058  0.739622  -0.607735
    O   O53   0.977265  0.657216  0.969639  -0.666133
    O   O54   0.972455  0.605220  0.948210  -0.641125
    O   O55   0.108034  0.656423  0.968798  -0.660934
    O   O56   0.620048  0.948670  0.485005  -0.630087
    O   O57   0.103226  0.604425  0.947359  -0.642312
    O   O58   0.107147  0.661699  0.029800  -0.642073
    O   O59   0.102325  0.609703  0.008360  -0.661234
    O   O60   0.976296  0.662523  0.030686  -0.640411
    O   O61   0.971481  0.610528  0.009260  -0.672165
    O   O62   0.559961  0.283810  0.196206  -0.661289
    O   O63   0.563886  0.324700  0.245961  -0.692026
    O   O64   0.651112  0.311129  0.174520  -0.578628
    O   O65   0.656913  0.351634  0.224544  -0.585372
    O   O66   0.557588  0.341078  0.159588  -0.688214
    O   O67   0.566445  0.023810  0.532111  -0.635667
    O   O68   0.561786  0.381002  0.209931  -0.666502
    O   O69   0.466727  0.310477  0.178367  -0.594255
    O   O70   0.469266  0.351049  0.228420  -0.596936
    O   O71   0.544422  0.980651  0.536756  -0.658391
    O   O72   0.126776  0.095868  0.470023  -0.618422
