# generated using pymatgen
data_CuH5C28N11O24
_symmetry_space_group_name_H-M   'P 1'
_cell_length_a   17.77700200
_cell_length_b   16.34213300
_cell_length_c   23.42026700
_cell_angle_alpha   90.00000000
_cell_angle_beta   90.01327300
_cell_angle_gamma   90.00000000
_symmetry_Int_Tables_number   1
_chemical_formula_structural   CuH5C28N11O24
_chemical_formula_sum   'Cu2 H10 C56 N22 O48'
_cell_volume   6803.91833332
_cell_formula_units_Z   2
loop_
 _symmetry_equiv_pos_site_id
 _symmetry_equiv_pos_as_xyz
  1  'x, y, z'
loop_
 _atom_site_type_symbol
 _atom_site_label
 _atom_site_symmetry_multiplicity
 _atom_site_fract_x
 _atom_site_fract_y
 _atom_site_fract_z
 _atom_site_occupancy
  Cu  Cu1  1  0.50056400  0.58331900  0.49959100  1
  Cu  Cu2  1  0.50049900  0.41948400  0.49956200  1
  H  H1  1  0.31521700  0.48897700  0.94531300  1
  H  H2  1  0.68568600  0.48991000  0.05413100  1
  H  H3  1  0.58665000  0.59149100  0.21530600  1
  H  H4  1  0.41349900  0.59089300  0.78410400  1
  H  H5  1  0.40567500  0.42181400  0.21441000  1
  H  H6  1  0.59547700  0.42243200  0.78482300  1
  H  H7  1  0.53932200  0.86796400  0.58434800  1
  H  H8  1  0.42835700  0.13696100  0.42737700  1
  H  H9  1  0.45178600  0.86786300  0.41753200  1
  H  H10  1  0.56234800  0.13544300  0.57609700  1
  C  C1  1  0.35518300  0.50149100  0.50305600  1
  C  C2  1  0.64588800  0.50116000  0.49604700  1
  C  C3  1  0.49916300  0.50118000  0.38973000  1
  C  C4  1  0.50192000  0.50202900  0.60946200  1
  C  C5  1  0.56735400  0.51144400  0.88200900  1
  C  C6  1  0.43347000  0.51131500  0.11739700  1
  C  C7  1  0.43672900  0.49351900  0.88100000  1
  C  C8  1  0.56415100  0.49388700  0.11841100  1
  C  C9  1  0.43511500  0.49639300  0.93993200  1
  C  C10  1  0.56576500  0.49678200  0.05948700  1
  C  C11  1  0.50127100  0.49858000  0.97019500  1
  C  C12  1  0.49960000  0.49864000  0.02921900  1
  C  C13  1  0.56879800  0.50112800  0.94106300  1
  C  C14  1  0.43206000  0.50097300  0.05834900  1
  C  C15  1  0.36740500  0.49396700  0.96864100  1
  C  C16  1  0.63348400  0.49461500  0.03078500  1
  C  C17  1  0.36508000  0.49611700  0.02747200  1
  C  C18  1  0.63579900  0.49662600  0.97194800  1
  C  C19  1  0.54757400  0.55293400  0.23816700  1
  C  C20  1  0.45301300  0.55286500  0.76123400  1
  C  C21  1  0.55056500  0.54945600  0.29709000  1
  C  C22  1  0.45009300  0.54958400  0.70229600  1
  C  C23  1  0.49805500  0.50290700  0.32693300  1
  C  C24  1  0.50306800  0.50374800  0.67232300  1
  C  C25  1  0.44222500  0.46202700  0.29659800  1
  C  C26  1  0.55894900  0.46289100  0.70265400  1
  C  C27  1  0.44599400  0.45820800  0.23774500  1
  C  C28  1  0.55509000  0.45878900  0.76152100  1
  C  C29  1  0.49776300  0.50455600  0.20803000  1
  C  C30  1  0.50310100  0.50475000  0.79133100  1
  C  C31  1  0.85135500  0.56056000  0.50976100  1
  C  C32  1  0.15756600  0.41982900  0.51739500  1
  C  C33  1  0.14951200  0.56072000  0.49165000  1
  C  C34  1  0.84397100  0.42006900  0.48291700  1
  C  C35  1  0.77383900  0.56813800  0.50471200  1
  C  C36  1  0.23506000  0.42654400  0.52273700  1
  C  C37  1  0.22706300  0.56840500  0.49600500  1
  C  C38  1  0.76661200  0.42669800  0.47678800  1
  C  C39  1  0.72977300  0.49959600  0.49144700  1
  C  C40  1  0.27142600  0.49971500  0.50824600  1
  C  C41  1  0.88577600  0.48612900  0.50076200  1
  C  C42  1  0.11537100  0.48610400  0.50038200  1
  C  C43  1  0.96663000  0.48156400  0.50082600  1
  C  C44  1  0.03452000  0.48149400  0.50063400  1
  C  C45  1  0.52006800  0.83452200  0.54731200  1
  C  C46  1  0.45895200  0.16946600  0.46019000  1
  C  C47  1  0.47255300  0.83459400  0.45417900  1
  C  C48  1  0.53297900  0.16868000  0.54299800  1
  C  C49  1  0.52355000  0.75013600  0.54636400  1
  C  C50  1  0.46052300  0.25385800  0.46006800  1
  C  C51  1  0.47298400  0.75011200  0.45400200  1
  C  C52  1  0.53594700  0.25303500  0.54162200  1
  C  C53  1  0.49557600  0.87711900  0.50098900  1
  C  C54  1  0.49515100  0.12642600  0.50180500  1
  C  C55  1  0.49467500  0.96491000  0.50141400  1
  C  C56  1  0.49453900  0.03863500  0.50170900  1
  N  N1  1  0.50225400  0.50339700  0.85263600  1
  N  N2  1  0.49859100  0.50345500  0.14674900  1
  N  N3  1  0.50059000  0.70634600  0.49944700  1
  N  N4  1  0.50054300  0.29661400  0.49988200  1
  N  N5  1  0.55293400  0.71235600  0.59641000  1
  N  N6  1  0.42158900  0.29349300  0.41507800  1
  N  N7  1  0.44484200  0.71215400  0.40364800  1
  N  N8  1  0.57814200  0.29160500  0.58540900  1
  N  N9  1  0.29380500  0.48567500  0.05463900  1
  N  N10  1  0.70708800  0.48625400  0.94478500  1
  N  N11  1  0.60862500  0.59358600  0.32601100  1
  N  N12  1  0.39122500  0.59263500  0.67354000  1
  N  N13  1  0.37692000  0.43034900  0.32449600  1
  N  N14  1  0.62438100  0.43144700  0.67477300  1
  N  N15  1  0.89685500  0.63082300  0.52088000  1
  N  N16  1  0.12010300  0.34603600  0.53304500  1
  N  N17  1  0.10370000  0.63108800  0.48161100  1
  N  N18  1  0.88177800  0.34644600  0.46734100  1
  N  N19  1  0.74098600  0.64693300  0.51298300  1
  N  N20  1  0.27614000  0.35914800  0.54608100  1
  N  N21  1  0.25963900  0.64735300  0.48781900  1
  N  N22  1  0.72629200  0.35936200  0.45268500  1
  O  O1  1  0.39114500  0.57171300  0.50126900  1
  O  O2  1  0.60967000  0.43121600  0.49550500  1
  O  O3  1  0.60992100  0.57109500  0.50134600  1
  O  O4  1  0.39125300  0.43156100  0.49993600  1
  O  O5  1  0.49886400  0.57092600  0.41667500  1
  O  O6  1  0.50566700  0.43172400  0.58264000  1
  O  O7  1  0.49724600  0.57157300  0.58243000  1
  O  O8  1  0.50043000  0.43082900  0.41659500  1
  O  O9  1  0.62977700  0.53477900  0.85404400  1
  O  O10  1  0.37098400  0.53439400  0.14538700  1
  O  O11  1  0.37266200  0.48000800  0.85200300  1
  O  O12  1  0.62824500  0.48060400  0.14742600  1
  O  O13  1  0.53114600  0.73907600  0.64602200  1
  O  O14  1  0.61479900  0.67042100  0.59337100  1
  O  O15  1  0.44399100  0.27838200  0.36329900  1
  O  O16  1  0.35136800  0.31227500  0.42310300  1
  O  O17  1  0.46691400  0.73968300  0.35432600  1
  O  O18  1  0.38307800  0.66991900  0.40606800  1
  O  O19  1  0.56263500  0.27192700  0.63789700  1
  O  O20  1  0.64572900  0.31656300  0.57357100  1
  O  O21  1  0.23445900  0.51857700  0.03169100  1
  O  O22  1  0.28500000  0.42642500  0.09114200  1
  O  O23  1  0.76639500  0.51933800  0.96766600  1
  O  O24  1  0.71596800  0.42688100  0.90839000  1
  O  O25  1  0.64567200  0.55906600  0.36737700  1
  O  O26  1  0.63577600  0.65964600  0.30294100  1
  O  O27  1  0.35357800  0.55670500  0.63307800  1
  O  O28  1  0.36365400  0.65858500  0.69648000  1
  O  O29  1  0.34807400  0.46999300  0.36737200  1
  O  O30  1  0.33540900  0.37669800  0.29823800  1
  O  O31  1  0.65355100  0.47173200  0.63231700  1
  O  O32  1  0.66585300  0.37773100  0.70100000  1
  O  O33  1  0.89177300  0.69504000  0.48828700  1
  O  O34  1  0.94413900  0.63076200  0.56327600  1
  O  O35  1  0.08039600  0.30655800  0.49543500  1
  O  O36  1  0.12700000  0.31686000  0.58445100  1
  O  O37  1  0.10935300  0.69476400  0.51465600  1
  O  O38  1  0.05608400  0.63193400  0.43943500  1
  O  O39  1  0.92049400  0.30647900  0.50529300  1
  O  O40  1  0.87550400  0.31744200  0.41584100  1
  O  O41  1  0.75992000  0.68991200  0.55747600  1
  O  O42  1  0.71007100  0.68380800  0.46969400  1
  O  O43  1  0.31653200  0.36969000  0.59182600  1
  O  O44  1  0.26542500  0.28544700  0.52675200  1
  O  O45  1  0.23956600  0.69076700  0.44381800  1
  O  O46  1  0.29054400  0.68411300  0.53115900  1
  O  O47  1  0.68844200  0.36966000  0.40567500  1
  O  O48  1  0.73591100  0.28577000  0.47255500  1
