# generated using pymatgen
data_Zn2H13C26N3O8
_symmetry_space_group_name_H-M   'P 1'
_cell_length_a   6.63777200
_cell_length_b   9.12290300
_cell_length_c   13.30036400
_cell_angle_alpha   100.19532200
_cell_angle_beta   89.50125800
_cell_angle_gamma   90.05888400
_symmetry_Int_Tables_number   1
_chemical_formula_structural   Zn2H13C26N3O8
_chemical_formula_sum   'Zn2 H13 C26 N3 O8'
_cell_volume   792.66595039
_cell_formula_units_Z   1
loop_
 _symmetry_equiv_pos_site_id
 _symmetry_equiv_pos_as_xyz
  1  'x, y, z'
loop_
 _atom_site_type_symbol
 _atom_site_label
 _atom_site_symmetry_multiplicity
 _atom_site_fract_x
 _atom_site_fract_y
 _atom_site_fract_z
 _atom_site_occupancy
  Zn  Zn1  1  0.96218300  0.87414100  0.00153100  1
  Zn  Zn2  1  0.00622300  0.19813500  0.01798800  1
  H  H1  1  0.13219100  0.63170100  0.86623000  1
  H  H2  1  0.16891100  0.36732400  0.87886700  1
  H  H3  1  0.83618200  0.44057300  0.15328000  1
  H  H4  1  0.79946300  0.70495000  0.14064400  1
  H  H5  1  0.13993700  0.96079500  0.31805500  1
  H  H6  1  0.83191700  0.15198100  0.34932200  1
  H  H7  1  0.81857300  0.15119300  0.53003500  1
  H  H8  1  0.81402800  0.13349600  0.70697400  1
  H  H9  1  0.14697100  0.89954700  0.67048500  1
  H  H10  1  0.92346200  0.97658200  0.60520400  1
  H  H11  1  0.64974600  0.80150900  0.51954600  1
  H  H12  1  0.79447900  0.65570400  0.34268800  1
  H  H13  1  0.17357800  0.74775200  0.32663300  1
  C  C1  1  0.70118000  0.03055200  0.87024200  1
  C  C2  1  0.25895900  0.99152300  0.86204600  1
  C  C3  1  0.26661000  0.04384000  0.14980700  1
  C  C4  1  0.70951000  0.07870300  0.15743300  1
  C  C5  1  0.06379800  0.58956900  0.92946300  1
  C  C6  1  0.08896400  0.44211400  0.93796300  1
  C  C7  1  0.90457000  0.48270400  0.09004700  1
  C  C8  1  0.87940400  0.63015900  0.08154600  1
  C  C9  1  0.29266700  0.00232000  0.32468800  1
  C  C10  1  0.38550000  0.04615600  0.24189600  1
  C  C11  1  0.58310000  0.09432400  0.24909600  1
  C  C12  1  0.67651900  0.11619900  0.34311400  1
  C  C13  1  0.57806200  0.08013300  0.42737900  1
  C  C14  1  0.39036400  0.01576500  0.41660700  1
  C  C15  1  0.67048700  0.10139500  0.52119200  1
  C  C16  1  0.57456800  0.05829900  0.60377600  1
  C  C17  1  0.38836600  0.98969100  0.59244600  1
  C  C18  1  0.29644600  0.96744200  0.49761900  1
  C  C19  1  0.66901400  0.07900800  0.69708800  1
  C  C20  1  0.58049300  0.02982900  0.77890200  1
  C  C21  1  0.38709500  0.97435200  0.77088100  1
  C  C22  1  0.29569900  0.94711400  0.67641000  1
  C  C23  1  0.80072700  0.81025700  0.49006000  1
  C  C24  1  0.87483400  0.73516600  0.39800700  1
  C  C25  1  0.07032000  0.78322100  0.38953700  1
  C  C26  1  0.10814800  0.88425900  0.47739000  1
  N  N1  1  0.01089500  0.39070700  0.01872000  1
  N  N2  1  0.95747600  0.68156700  0.00079000  1
  N  N3  1  0.94349300  0.90103600  0.53777100  1
  O  O1  1  0.79646800  0.15289200  0.90891200  1
  O  O2  1  0.74932700  0.90412900  0.89870300  1
  O  O3  1  0.16730200  0.87672800  0.88860000  1
  O  O4  1  0.21106300  0.12713900  0.90722800  1
  O  O5  1  0.17252400  0.92076000  0.11095700  1
  O  O6  1  0.21781600  0.16970500  0.12106600  1
  O  O7  1  0.80013800  0.19419900  0.13094500  1
  O  O8  1  0.75833500  0.94360100  0.11215400  1
