# generated using pymatgen
data_FeH10C25N3O10
_symmetry_space_group_name_H-M   'P 1'
_cell_length_a   9.40651900
_cell_length_b   17.24017600
_cell_length_c   17.05428800
_cell_angle_alpha   106.34508700
_cell_angle_beta   89.03509900
_cell_angle_gamma   76.28801000
_symmetry_Int_Tables_number   1
_chemical_formula_structural   FeH10C25N3O10
_chemical_formula_sum   'Fe2 H20 C50 N6 O20'
_cell_volume   2567.90350752
_cell_formula_units_Z   2
loop_
 _symmetry_equiv_pos_site_id
 _symmetry_equiv_pos_as_xyz
  1  'x, y, z'
loop_
 _atom_site_type_symbol
 _atom_site_label
 _atom_site_symmetry_multiplicity
 _atom_site_fract_x
 _atom_site_fract_y
 _atom_site_fract_z
 _atom_site_occupancy
  Fe  Fe1  1  0.48192500  0.99233200  0.35234200  1
  Fe  Fe2  1  0.49248200  0.01074200  0.65355100  1
  H  H1  1  0.22839700  0.00651200  0.87479400  1
  H  H2  1  0.73493900  0.01601800  0.13781500  1
  H  H3  1  0.18381100  0.01827000  0.09974500  1
  H  H4  1  0.94202500  0.02639000  0.68651600  1
  H  H5  1  0.02807100  0.98889600  0.32208400  1
  H  H6  1  0.16904900  0.27778400  0.43790100  1
  H  H7  1  0.21025100  0.44687500  0.66713000  1
  H  H8  1  0.82927800  0.56034400  0.33551700  1
  H  H9  1  0.87781900  0.56487800  0.19931500  1
  H  H10  1  0.72590000  0.56531800  0.06957300  1
  H  H11  1  0.47967300  0.68285000  0.12201900  1
  H  H12  1  0.66579900  0.64985300  0.63041600  1
  H  H13  1  0.75840800  0.70459200  0.77792300  1
  H  H14  1  0.91757200  0.80800800  0.76426700  1
  H  H15  1  0.88187100  0.85546800  0.93263900  1
  H  H16  1  0.62046200  0.86255600  0.00093400  1
  H  H17  1  0.43926000  0.99884700  0.98555000  1
  H  H18  1  0.20163700  0.44572000  0.80724700  1
  H  H19  1  0.39445400  0.44128300  0.91886600  1
  H  H20  1  0.62303900  0.31649600  0.84864500  1
  C  C1  1  0.09927700  0.01621900  0.77419600  1
  C  C2  1  0.12255900  0.00651000  0.85112800  1
  C  C3  1  0.01072300  0.99836600  0.89980300  1
  C  C4  1  0.87553100  0.99376700  0.86809900  1
  C  C5  1  0.85168600  0.00626600  0.79195300  1
  C  C6  1  0.96174600  0.01942400  0.74667500  1
  C  C7  1  0.84289200  0.01202200  0.15959000  1
  C  C8  1  0.86788000  0.00173000  0.23617700  1
  C  C9  1  0.00728600  0.99582900  0.26201500  1
  C  C10  1  0.11943000  0.00254300  0.21302100  1
  C  C11  1  0.09445100  0.01253200  0.13662300  1
  C  C12  1  0.95624400  0.01580000  0.10912300  1
  C  C13  1  0.74818100  0.99792200  0.29047200  1
  C  C14  1  0.62636400  0.83937200  0.36725900  1
  C  C15  1  0.26261200  0.00302800  0.24443700  1
  C  C16  1  0.32599100  0.14200300  0.46068600  1
  C  C17  1  0.65659900  0.86611200  0.54174700  1
  C  C18  1  0.71463000  0.99959700  0.75430500  1
  C  C19  1  0.38606900  0.16507700  0.63498300  1
  C  C20  1  0.21945000  0.02054600  0.72039800  1
  C  C21  1  0.28891700  0.22386100  0.52204700  1
  C  C22  1  0.20535400  0.28972000  0.49894800  1
  C  C23  1  0.17281400  0.36973000  0.55162400  1
  C  C24  1  0.22840500  0.38385300  0.62724500  1
  C  C25  1  0.30825900  0.31822800  0.65255100  1
  C  C26  1  0.33295200  0.23642100  0.60143700  1
  C  C27  1  0.91409400  0.56714900  0.48401300  1
  C  C28  1  0.08330600  0.43949100  0.52672400  1
  C  C29  1  0.79543200  0.62282300  0.37707700  1
  C  C30  1  0.72326700  0.68727200  0.34789300  1
  C  C31  1  0.68180900  0.76850200  0.40033600  1
  C  C32  1  0.70302600  0.78231300  0.48329100  1
  C  C33  1  0.77329700  0.71694700  0.51207000  1
  C  C34  1  0.82473200  0.63702300  0.45823600  1
  C  C35  1  0.68535600  0.66690000  0.26246600  1
  C  C36  1  0.77090300  0.60499600  0.19820500  1
  C  C37  1  0.69371900  0.60523000  0.13173000  1
  C  C38  1  0.56612900  0.66666667  0.15992500  1
  C  C39  1  0.78825000  0.73345300  0.60009300  1
  C  C40  1  0.73181300  0.69435500  0.64853300  1
  C  C41  1  0.77952400  0.72195300  0.72350600  1
  C  C42  1  0.86221700  0.77559100  0.71543200  1
  C  C43  1  0.75974800  0.97240700  0.91071200  1
  C  C44  1  0.78086300  0.90298600  0.93790200  1
  C  C45  1  0.64768500  0.90655600  0.97260800  1
  C  C46  1  0.55462200  0.97772200  0.96410000  1
  C  C47  1  0.37325800  0.33798800  0.73126200  1
  C  C48  1  0.30853700  0.40253300  0.79959400  1
  C  C49  1  0.40666700  0.40026700  0.85683600  1
  C  C50  1  0.52479700  0.33504200  0.81947800  1
  N  N1  1  0.03964300  0.99462000  0.98036000  1
  N  N2  1  0.92793200  0.02262500  0.02992000  1
  N  N3  1  0.07684300  0.51868000  0.57020900  1
  N  N4  1  0.99445900  0.58154900  0.54867200  1
  N  N5  1  0.92281000  0.48779000  0.43965700  1
  N  N6  1  0.00605300  0.42479200  0.46080300  1
  O  O1  1  0.61760200  0.99692000  0.26472900  1
  O  O2  1  0.67678100  0.83648200  0.29401000  1
  O  O3  1  0.77144900  0.99513800  0.36540800  1
  O  O4  1  0.53255700  0.90752200  0.41188300  1
  O  O5  1  0.30364200  0.96481500  0.29994300  1
  O  O6  1  0.34218300  0.04823100  0.22347700  1
  O  O7  1  0.46432100  0.10390900  0.43484900  1
  O  O8  1  0.22068000  0.11031100  0.42638100  1
  O  O9  1  0.52145800  0.89479100  0.57715300  1
  O  O10  1  0.74971500  0.91318600  0.55762800  1
  O  O11  1  0.66385900  0.04651400  0.70745400  1
  O  O12  1  0.65203800  0.94026500  0.75834000  1
  O  O13  1  0.19358500  0.03126300  0.64829700  1
  O  O14  1  0.44018100  0.08884900  0.58682600  1
  O  O15  1  0.35459200  0.00899200  0.74170500  1
  O  O16  1  0.36334900  0.17560000  0.71386200  1
  O  O17  1  0.55987900  0.70430800  0.23961500  1
  O  O18  1  0.86778900  0.78308300  0.64029500  1
  O  O19  1  0.62211600  0.01817100  0.92626000  1
  O  O20  1  0.50557900  0.29700200  0.74279800  1
