data_DB0-m29_o96_o150_f0_pts.sym.131_repeat
_audit_creation_date              2024-02-20
_audit_creation_method            'Materials Studio'
_symmetry_space_group_name_H-M    'P1'
_symmetry_Int_Tables_number       1
_symmetry_cell_setting            triclinic
loop_
_symmetry_equiv_pos_as_xyz
  x,y,z
_cell_length_a                    16.8651
_cell_length_b                    9.2527
_cell_length_c                    26.7002
_cell_angle_alpha                 94.3511
_cell_angle_beta                  89.7178
_cell_angle_gamma                 69.8364
loop_
_atom_site_label
_atom_site_type_symbol
_atom_site_fract_x
_atom_site_fract_y
_atom_site_fract_z
_atom_site_U_iso_or_equiv
_atom_site_adp_type
_atom_site_occupancy
C1     C     0.78951   0.95108   0.91899   0.00000  Uiso   1.00
C2     C     0.85304   0.88402   0.88424   0.00000  Uiso   1.00
C3     C     0.92641   0.88953   0.90531   0.00000  Uiso   1.00
N1     N     0.91036   0.95372   0.95303   0.00000  Uiso   1.00
C4     C     0.82630   0.99019   0.96163   0.00000  Uiso   1.00
C5     C     0.00040   0.85068   0.88050   0.00000  Uiso   1.00
C6     C     0.07288   0.88793   0.89996   0.00000  Uiso   1.00
C7     C     0.13001   0.92018   0.86998   0.00000  Uiso   1.00
C8     C     0.18958   0.94471   0.89995   0.00000  Uiso   1.00
C9     C     0.16719   0.92853   0.94855   0.00000  Uiso   1.00
N2     N     0.09550   0.89326   0.94831   0.00000  Uiso   1.00
C10    C     0.21342   0.94940   0.99341   0.00000  Uiso   1.00
C11    C     0.17395   0.00545   0.03772   0.00000  Uiso   1.00
C12    C     0.21080   0.04398   0.08042   0.00000  Uiso   1.00
C13    C     0.14727   0.11104   0.11517   0.00000  Uiso   1.00
C14    C     0.07383   0.10615   0.09403   0.00000  Uiso   1.00
N3     N     0.08985   0.04226   0.04628   0.00000  Uiso   1.00
C15    C     0.99979   0.14539   0.11881   0.00000  Uiso   1.00
C16    C     0.92715   0.10864   0.09935   0.00000  Uiso   1.00
C17    C     0.86986   0.07693   0.12936   0.00000  Uiso   1.00
C18    C     0.81033   0.05226   0.09938   0.00000  Uiso   1.00
C19    C     0.83289   0.06788   0.05076   0.00000  Uiso   1.00
N4     N     0.90466   0.10291   0.05099   0.00000  Uiso   1.00
C20    C     0.78678   0.04648   0.00591   0.00000  Uiso   1.00
H1     H     0.00450   0.80768   0.84147   0.00000  Uiso   1.00
H2     H     0.27969   0.93431   0.98890   0.00000  Uiso   1.00
H3     H     0.99572   0.18833   0.15784   0.00000  Uiso   1.00
H4     H     0.72054   0.06135   0.01042   0.00000  Uiso   1.00
H5     H     0.06600   0.86580   0.97870   0.00000  Uiso   1.00
H6     H     0.93432   0.12987   0.02057   0.00000  Uiso   1.00
C21    C     0.86917   0.06347   0.18000   0.00000  Uiso   1.00
C22    C     0.80436   0.02584   0.20037   0.00000  Uiso   1.00
C23    C     0.74122   0.00379   0.17044   0.00000  Uiso   1.00
C24    C     0.74402   0.01623   0.11884   0.00000  Uiso   1.00
C25    C     0.70625   0.97600   0.90779   0.00000  Uiso   1.00
C26    C     0.68975   0.92624   0.85979   0.00000  Uiso   1.00
C27    C     0.75613   0.84995   0.82539   0.00000  Uiso   1.00
C28    C     0.83855   0.83024   0.83713   0.00000  Uiso   1.00
C29    C     0.13057   0.93407   0.81936   0.00000  Uiso   1.00
C30    C     0.19532   0.97193   0.79899   0.00000  Uiso   1.00
C31    C     0.25854   0.99371   0.82892   0.00000  Uiso   1.00
C32    C     0.25583   0.98093   0.88050   0.00000  Uiso   1.00
C33    C     0.29410   0.01860   0.09168   0.00000  Uiso   1.00
C34    C     0.31062   0.06778   0.13976   0.00000  Uiso   1.00
C35    C     0.24423   0.14395   0.17417   0.00000  Uiso   1.00
C36    C     0.16179   0.16422   0.16235   0.00000  Uiso   1.00
H7     H     0.91767   0.08016   0.20356   0.00000  Uiso   1.00
H8     H     0.69602   0.99873   0.09497   0.00000  Uiso   1.00
H9     H     0.65532   0.03618   0.93468   0.00000  Uiso   1.00
H10    H     0.74390   0.81192   0.78790   0.00000  Uiso   1.00
H11    H     0.88891   0.77582   0.80941   0.00000  Uiso   1.00
H12    H     0.08204   0.91747   0.79580   0.00000  Uiso   1.00
H13    H     0.30391   0.99813   0.90437   0.00000  Uiso   1.00
H14    H     0.34501   0.95856   0.06476   0.00000  Uiso   1.00
H15    H     0.25642   0.18161   0.21171   0.00000  Uiso   1.00
H16    H     0.11143   0.21860   0.19008   0.00000  Uiso   1.00
H17    H     0.80318   0.01658   0.24043   0.00000  Uiso   1.00
H18    H     0.19644   0.98146   0.75895   0.00000  Uiso   1.00
O1     O     0.48087   0.84909   0.70752   0.00000  Uiso   1.00
O2     O     0.46071   0.71924   0.77204   0.00000  Uiso   1.00
C37    C     0.46913   0.72706   0.72355   0.00000  Uiso   1.00
O3     O     0.39942   0.01164   0.82627   0.00000  Uiso   1.00
O4     O     0.32770   0.02844   0.75483   0.00000  Uiso   1.00
C38    C     0.32916   0.02014   0.80367   0.00000  Uiso   1.00
O5     O     0.53847   0.05249   0.67437   0.00000  Uiso   1.00
O6     O     0.59110   0.88752   0.80140   0.00000  Uiso   1.00
C39    C     0.60322   0.96313   0.84255   0.00000  Uiso   1.00
O7     O     0.45378   0.18947   0.74123   0.00000  Uiso   1.00
C40    C     0.49065   0.18469   0.69715   0.00000  Uiso   1.00
O8     O     0.54209   0.08463   0.86277   0.00000  Uiso   1.00
Fe1    Fe    0.48232   0.98613   0.76921   0.00000  Uiso   1.00
O9     O     0.54808   0.80474   0.25819   0.00000  Uiso   1.00
C41    C     0.51443   0.80794   0.30315   0.00000  Uiso   1.00
O10    O     0.45857   0.91063   0.13639   0.00000  Uiso   1.00
O11    O     0.46812   0.93934   0.32705   0.00000  Uiso   1.00
O12    O     0.40906   0.10548   0.19847   0.00000  Uiso   1.00
C42    C     0.39714   0.03085   0.15704   0.00000  Uiso   1.00
Fe2    Fe    0.51829   0.00844   0.23039   0.00000  Uiso   1.00
O13    O     0.60050   0.98487   0.17316   0.00000  Uiso   1.00
O14    O     0.67240   0.96821   0.24452   0.00000  Uiso   1.00
C43    C     0.67072   0.97700   0.19571   0.00000  Uiso   1.00
O15    O     0.51934   0.14558   0.29204   0.00000  Uiso   1.00
O16    O     0.53483   0.27889   0.22732   0.00000  Uiso   1.00
C44    C     0.52841   0.26968   0.27588   0.00000  Uiso   1.00
H19    H     0.53297   0.54151   0.25200   0.00000  Uiso   1.00
C45    C     0.52643   0.40061   0.31067   0.00000  Uiso   1.00
C46    C     0.51923   0.39325   0.36175   0.00000  Uiso   1.00
H20    H     0.51978   0.28709   0.37625   0.00000  Uiso   1.00
C47    C     0.51366   0.51969   0.39440   0.00000  Uiso   1.00
C48    C     0.51338   0.65529   0.37550   0.00000  Uiso   1.00
H21    H     0.50633   0.75617   0.40077   0.00000  Uiso   1.00
C49    C     0.52087   0.66263   0.32420   0.00000  Uiso   1.00
C50    C     0.52891   0.53426   0.29206   0.00000  Uiso   1.00
C51    C     0.45993   0.43046   0.46800   0.00000  Uiso   1.00
H22    H     0.42238   0.38325   0.44361   0.00000  Uiso   1.00
C52    C     0.45667   0.41646   0.51895   0.00000  Uiso   1.00
H23    H     0.41637   0.35944   0.53355   0.00000  Uiso   1.00
C53    C     0.50215   0.47931   0.55118   0.00000  Uiso   1.00
C54    C     0.55244   0.55397   0.53170   0.00000  Uiso   1.00
C55    C     0.55454   0.56990   0.48080   0.00000  Uiso   1.00
H24    H     0.59533   0.62574   0.46608   0.00000  Uiso   1.00
C56    C     0.50828   0.50853   0.44871   0.00000  Uiso   1.00
C57    C     0.49633   0.33422   0.62465   0.00000  Uiso   1.00
H25    H     0.50681   0.23151   0.59961   0.00000  Uiso   1.00
C58    C     0.48492   0.32920   0.67578   0.00000  Uiso   1.00
C59    C     0.47300   0.45975   0.70764   0.00000  Uiso   1.00
H26    H     0.46694   0.45392   0.74766   0.00000  Uiso   1.00
C60    C     0.47369   0.59431   0.68890   0.00000  Uiso   1.00
C61    C     0.48234   0.60064   0.63788   0.00000  Uiso   1.00
H27    H     0.47723   0.70911   0.62333   0.00000  Uiso   1.00
C62    C     0.49445   0.47050   0.60553   0.00000  Uiso   1.00
C63    C     0.60700   0.60732   0.56334   0.00000  Uiso   1.00
N5     N     0.65099   0.65029   0.58883   0.00000  Uiso   1.00
