data_DB0-m29_o96_o100_f0_pts.sym.14_repeat
_audit_creation_date              2024-02-24
_audit_creation_method            'Materials Studio'
_symmetry_space_group_name_H-M    'P1'
_symmetry_Int_Tables_number       1
_symmetry_cell_setting            triclinic
loop_
_symmetry_equiv_pos_as_xyz
  x,y,z
_cell_length_a                    17.3211
_cell_length_b                    14.2473
_cell_length_c                    17.2013
_cell_angle_alpha                 91.6090
_cell_angle_beta                  91.0198
_cell_angle_gamma                 99.8924
loop_
_atom_site_label
_atom_site_type_symbol
_atom_site_fract_x
_atom_site_fract_y
_atom_site_fract_z
_atom_site_U_iso_or_equiv
_atom_site_adp_type
_atom_site_occupancy
C1     C     0.21878   0.99772   0.12017   0.00000  Uiso   1.00
C2     C     0.16765   0.95237   0.17145   0.00000  Uiso   1.00
C3     C     0.09324   0.95032   0.14104   0.00000  Uiso   1.00
N1     N     0.09735   0.99005   0.07061   0.00000  Uiso   1.00
C4     C     0.17449   0.01863   0.05746   0.00000  Uiso   1.00
C5     C     0.02711   0.92061   0.17846   0.00000  Uiso   1.00
C6     C     0.94972   0.93802   0.15206   0.00000  Uiso   1.00
C7     C     0.89134   0.95864   0.20026   0.00000  Uiso   1.00
C8     C     0.82826   0.96602   0.15409   0.00000  Uiso   1.00
C9     C     0.84917   0.95079   0.07820   0.00000  Uiso   1.00
N2     N     0.92346   0.93307   0.07741   0.00000  Uiso   1.00
C10    C     0.79842   0.95471   0.00929   0.00000  Uiso   1.00
C11    C     0.82648   0.98713   0.94156   0.00000  Uiso   1.00
C12    C     0.78190   0.00539   0.87815   0.00000  Uiso   1.00
C13    C     0.83283   0.04765   0.82530   0.00000  Uiso   1.00
C14    C     0.90739   0.05088   0.85581   0.00000  Uiso   1.00
N3     N     0.90353   0.01414   0.92741   0.00000  Uiso   1.00
C15    C     0.97360   0.07952   0.81814   0.00000  Uiso   1.00
C16    C     0.05094   0.06482   0.84676   0.00000  Uiso   1.00
C17    C     0.10851   0.03977   0.80012   0.00000  Uiso   1.00
C18    C     0.17206   0.03504   0.84648   0.00000  Uiso   1.00
C19    C     0.15232   0.05675   0.92166   0.00000  Uiso   1.00
N4     N     0.07844   0.07581   0.92092   0.00000  Uiso   1.00
C20    C     0.20282   0.05485   0.99098   0.00000  Uiso   1.00
H1     H     0.03132   0.89212   0.23553   0.00000  Uiso   1.00
H2     H     0.73565   0.94130   0.01686   0.00000  Uiso   1.00
H3     H     0.96976   0.10235   0.75899   0.00000  Uiso   1.00
H4     H     0.26563   0.06928   0.98378   0.00000  Uiso   1.00
H5     H     0.95355   0.91385   0.02921   0.00000  Uiso   1.00
C21    C     0.10820   0.02048   0.72160   0.00000  Uiso   1.00
C22    C     0.17576   0.99805   0.68995   0.00000  Uiso   1.00
C23    C     0.24213   0.99510   0.73644   0.00000  Uiso   1.00
C24    C     0.24020   0.01253   0.81637   0.00000  Uiso   1.00
C25    C     0.29843   0.01621   0.13585   0.00000  Uiso   1.00
C26    C     0.32488   0.98418   0.20520   0.00000  Uiso   1.00
C27    C     0.27213   0.93451   0.25596   0.00000  Uiso   1.00
C28    C     0.19263   0.91947   0.24006   0.00000  Uiso   1.00
C29    C     0.89009   0.97440   0.27954   0.00000  Uiso   1.00
C30    C     0.82217   0.99544   0.31127   0.00000  Uiso   1.00
C31    C     0.75660   0.00076   0.26459   0.00000  Uiso   1.00
C32    C     0.75964   0.98688   0.18442   0.00000  Uiso   1.00
C33    C     0.70213   0.98675   0.86309   0.00000  Uiso   1.00
C34    C     0.67527   0.01563   0.79273   0.00000  Uiso   1.00
C35    C     0.72781   0.06250   0.74037   0.00000  Uiso   1.00
C36    C     0.80748   0.07762   0.75572   0.00000  Uiso   1.00
H6     H     0.05736   0.02324   0.68498   0.00000  Uiso   1.00
H7     H     0.29091   0.01080   0.85344   0.00000  Uiso   1.00
H8     H     0.33911   0.05467   0.09623   0.00000  Uiso   1.00
H9     H     0.29240   0.91040   0.31045   0.00000  Uiso   1.00
H10    H     0.15247   0.88292   0.28104   0.00000  Uiso   1.00
H11    H     0.70966   0.99136   0.14713   0.00000  Uiso   1.00
H12    H     0.66161   0.95057   0.90399   0.00000  Uiso   1.00
H13    H     0.70714   0.08424   0.68519   0.00000  Uiso   1.00
H14    H     0.84752   0.11197   0.71364   0.00000  Uiso   1.00
H15    H     0.17635   0.98451   0.62788   0.00000  Uiso   1.00
H16    H     0.82093   0.00678   0.37355   0.00000  Uiso   1.00
O1     O     0.61835   0.01264   0.26200   0.00000  Uiso   1.00
C37    C     0.68403   0.01572   0.30217   0.00000  Uiso   1.00
O2     O     0.56019   0.82652   0.33079   0.00000  Uiso   1.00
O3     O     0.68232   0.02131   0.37837   0.00000  Uiso   1.00
O4     O     0.52602   0.92062   0.42697   0.00000  Uiso   1.00
C38    C     0.54213   0.83776   0.40382   0.00000  Uiso   1.00
Fe1    Fe    0.53211   0.00456   0.33676   0.00000  Uiso   1.00
O5     O     0.43275   0.94847   0.27862   0.00000  Uiso   1.00
O6     O     0.45120   0.08646   0.21246   0.00000  Uiso   1.00
C39    C     0.40751   0.00515   0.22909   0.00000  Uiso   1.00
O7     O     0.54702   0.13915   0.37945   0.00000  Uiso   1.00
O8     O     0.42741   0.07989   0.42617   0.00000  Uiso   1.00
C40    C     0.48780   0.14937   0.42386   0.00000  Uiso   1.00
C41    C     0.48393   0.52077   0.79309   0.00000  Uiso   1.00
C42    C     0.46635   0.24351   0.54504   0.00000  Uiso   1.00
C43    C     0.40574   0.51563   0.80964   0.00000  Uiso   1.00
C44    C     0.35044   0.50633   0.75000   0.00000  Uiso   1.00
C45    C     0.50685   0.51662   0.71691   0.00000  Uiso   1.00
C46    C     0.45154   0.50730   0.65714   0.00000  Uiso   1.00
C47    C     0.37329   0.50217   0.67379   0.00000  Uiso   1.00
C48    C     0.46190   0.33127   0.57968   0.00000  Uiso   1.00
C49    C     0.47983   0.41526   0.53977   0.00000  Uiso   1.00
C50    C     0.47586   0.50291   0.57617   0.00000  Uiso   1.00
C51    C     0.49482   0.58668   0.53587   0.00000  Uiso   1.00
C52    C     0.49161   0.67487   0.57145   0.00000  Uiso   1.00
C53    C     0.51092   0.75847   0.53214   0.00000  Uiso   1.00
C54    C     0.48700   0.23951   0.46728   0.00000  Uiso   1.00
C55    C     0.50626   0.32311   0.42798   0.00000  Uiso   1.00
C56    C     0.50286   0.41126   0.46351   0.00000  Uiso   1.00
C57    C     0.52175   0.49502   0.42320   0.00000  Uiso   1.00
C58    C     0.51775   0.58266   0.45958   0.00000  Uiso   1.00
C59    C     0.53558   0.66661   0.41963   0.00000  Uiso   1.00
C60    C     0.49076   0.48089   0.28247   0.00000  Uiso   1.00
C61    C     0.54609   0.49063   0.34223   0.00000  Uiso   1.00
C62    C     0.62438   0.49618   0.32559   0.00000  Uiso   1.00
C63    C     0.51370   0.47674   0.20628   0.00000  Uiso   1.00
C64    C     0.59192   0.48230   0.18974   0.00000  Uiso   1.00
C65    C     0.53127   0.75440   0.45429   0.00000  Uiso   1.00
C66    C     0.64725   0.49202   0.24938   0.00000  Uiso   1.00
H17    H     0.52726   0.52806   0.83986   0.00000  Uiso   1.00
H18    H     0.38779   0.51889   0.86937   0.00000  Uiso   1.00
H19    H     0.28915   0.50231   0.76300   0.00000  Uiso   1.00
H20    H     0.56814   0.52065   0.70394   0.00000  Uiso   1.00
H21    H     0.32994   0.49489   0.62704   0.00000  Uiso   1.00
H22    H     0.44559   0.33320   0.63968   0.00000  Uiso   1.00
H23    H     0.47582   0.68153   0.63147   0.00000  Uiso   1.00
H24    H     0.52224   0.31647   0.36801   0.00000  Uiso   1.00
H25    H     0.55169   0.66465   0.35958   0.00000  Uiso   1.00
H26    H     0.42944   0.47653   0.29543   0.00000  Uiso   1.00
H27    H     0.66775   0.50379   0.37233   0.00000  Uiso   1.00
H28    H     0.47035   0.46912   0.15952   0.00000  Uiso   1.00
H29    H     0.60988   0.47905   0.13001   0.00000  Uiso   1.00
H30    H     0.70857   0.49638   0.23638   0.00000  Uiso   1.00
O9     O     0.56645   0.05041   0.72011   0.00000  Uiso   1.00
O10    O     0.54895   0.91321   0.78734   0.00000  Uiso   1.00
C67    C     0.59236   0.99432   0.76973   0.00000  Uiso   1.00
O11    O     0.45161   0.85901   0.62046   0.00000  Uiso   1.00
O12    O     0.57085   0.91813   0.57289   0.00000  Uiso   1.00
C68    C     0.51048   0.84868   0.57561   0.00000  Uiso   1.00
O13    O     0.43750   0.17133   0.66852   0.00000  Uiso   1.00
O14    O     0.38098   0.98578   0.73833   0.00000  Uiso   1.00
C69    C     0.31470   0.98027   0.69863   0.00000  Uiso   1.00
O15    O     0.47182   0.07735   0.57235   0.00000  Uiso   1.00
C70    C     0.45550   0.16011   0.59547   0.00000  Uiso   1.00
O16    O     0.31573   0.97298   0.62247   0.00000  Uiso   1.00
Fe2    Fe    0.46662   0.99384   0.66279   0.00000  Uiso   1.00
O17    O     0.95383   0.97124   0.32664   0.00000  Uiso   1.00
H31    H     0.94245   0.90794   0.35032   0.00000  Uiso   1.00
O18    O     0.04542   0.11918   0.97947   0.00000  Uiso   1.00
H32    H     0.06474   0.18803   0.97328   0.00000  Uiso   1.00
