# generated using pymatgen
data_ZnH16C23(NO2)3
_symmetry_space_group_name_H-M   'P 1'
_cell_length_a   11.04829000
_cell_length_b   9.88603900
_cell_length_c   15.97642300
_cell_angle_alpha   90.00000000
_cell_angle_beta   89.99536900
_cell_angle_gamma   90.00000000
_symmetry_Int_Tables_number   1
_chemical_formula_structural   ZnH16C23(NO2)3
_chemical_formula_sum   'Zn2 H32 C46 N6 O12'
_cell_volume   1745.00603733
_cell_formula_units_Z   2
loop_
 _symmetry_equiv_pos_site_id
 _symmetry_equiv_pos_as_xyz
  1  'x, y, z'
loop_
 _atom_site_type_symbol
 _atom_site_label
 _atom_site_symmetry_multiplicity
 _atom_site_fract_x
 _atom_site_fract_y
 _atom_site_fract_z
 _atom_site_occupancy
  Zn  Zn1  1  0.50605500  0.65342700  0.49912300  1
  Zn  Zn2  1  0.49788300  0.34548800  0.49964500  1
  H  H1  1  0.35786100  0.64284700  0.92093300  1
  H  H2  1  0.33993400  0.39166700  0.93124400  1
  H  H3  1  0.33386500  0.60323700  0.05794100  1
  H  H4  1  0.34654000  0.37093500  0.06820100  1
  H  H5  1  0.46994400  0.28701600  0.91883500  1
  H  H6  1  0.50566700  0.71722900  0.93515700  1
  H  H7  1  0.67799500  0.60017700  0.06575300  1
  H  H8  1  0.68678700  0.42112400  0.07483800  1
  H  H9  1  0.68858000  0.57971900  0.92676800  1
  H  H10  1  0.67798800  0.39844400  0.93296800  1
  H  H11  1  0.11121600  0.09173400  0.63081200  1
  H  H12  1  0.08392100  0.95732900  0.44439400  1
  H  H13  1  0.18789100  0.78213200  0.51730900  1
  H  H14  1  0.20329300  0.31161400  0.61756200  1
  H  H15  1  0.89233000  0.91032800  0.37245200  1
  H  H16  1  0.92034200  0.04315800  0.55861000  1
  H  H17  1  0.80133600  0.68962400  0.38286500  1
  H  H18  1  0.81671300  0.21682300  0.48379000  1
  H  H19  1  0.77602400  0.12669700  0.70835800  1
  H  H20  1  0.78414000  0.87944200  0.70500800  1
  H  H21  1  0.33609900  0.23954400  0.39459200  1
  H  H22  1  0.34782600  0.75508900  0.39030600  1
  H  H23  1  0.67052900  0.75878400  0.60487700  1
  H  H24  1  0.65702900  0.24470300  0.61060200  1
  H  H25  1  0.06834600  0.26740200  0.28014300  1
  H  H26  1  0.19926100  0.34805700  0.25800600  1
  H  H27  1  0.23903600  0.70453300  0.18962500  1
  H  H28  1  0.17410200  0.64561700  0.27794400  1
  H  H29  1  0.58847400  0.07042300  0.06154500  1
  H  H30  1  0.65083600  0.20360800  0.01296600  1
  H  H31  1  0.61843400  0.84047800  0.12085500  1
  H  H32  1  0.51603600  0.81448200  0.19769400  1
  C  C1  1  0.26334500  0.50495800  0.50787900  1
  C  C2  1  0.49670700  0.49664300  0.33570400  1
  C  C3  1  0.74066600  0.49400900  0.49115100  1
  C  C4  1  0.50756700  0.50230300  0.66300600  1
  C  C5  1  0.43114300  0.62139700  0.04523400  1
  C  C6  1  0.44135400  0.37199800  0.04543400  1
  C  C7  1  0.43587200  0.37914600  0.95014900  1
  C  C8  1  0.44743600  0.62959000  0.95117800  1
  C  C9  1  0.50858000  0.50214700  0.75282300  1
  C  C10  1  0.50269800  0.49992600  0.07861100  1
  C  C11  1  0.50672600  0.50105800  0.91981100  1
  C  C12  1  0.63509700  0.49453000  0.95269900  1
  C  C13  1  0.63322000  0.50476800  0.04735200  1
  C  C14  1  0.50834800  0.50182500  0.82824600  1
  C  C15  1  0.49960900  0.49775600  0.17037600  1
  C  C16  1  0.49760900  0.49685000  0.24583200  1
  C  C17  1  0.10749200  0.75330900  0.48415200  1
  C  C18  1  0.11924100  0.29392700  0.58494600  1
  C  C19  1  0.04580400  0.85677200  0.44577000  1
  C  C20  1  0.06585200  0.16995500  0.59544200  1
  C  C21  1  0.93785700  0.83139200  0.40710900  1
  C  C22  1  0.95805300  0.14383800  0.55680500  1
  C  C23  1  0.88500300  0.70680500  0.41604200  1
  C  C24  1  0.89671400  0.24637300  0.51714400  1
  C  C25  1  0.93976100  0.60600400  0.46366300  1
  C  C26  1  0.94390100  0.37701800  0.51357700  1
  C  C27  1  0.06026200  0.62260500  0.48681800  1
  C  C28  1  0.06441800  0.39378900  0.53663100  1
  C  C29  1  0.87665600  0.48831200  0.48444200  1
  C  C30  1  0.12752900  0.51101800  0.51527900  1
  C  C31  1  0.34694200  0.13356900  0.39347900  1
  C  C32  1  0.35680300  0.86114100  0.38912300  1
  C  C33  1  0.28122600  0.06635700  0.33338600  1
  C  C34  1  0.28466700  0.92713500  0.33190700  1
  C  C35  1  0.43210200  0.92787700  0.44531900  1
  C  C36  1  0.42641000  0.06885100  0.44768200  1
  C  C37  1  0.57719700  0.92977800  0.55123100  1
  C  C38  1  0.57222500  0.07128500  0.55310000  1
  C  C39  1  0.65675100  0.86468500  0.60544300  1
  C  C40  1  0.64803100  0.13834600  0.60900100  1
  C  C41  1  0.72449000  0.93357000  0.66312100  1
  C  C42  1  0.71976300  0.07091000  0.66508300  1
  C  C43  1  0.21388000  0.14701800  0.27132800  1
  C  C44  1  0.20605400  0.84520000  0.27691000  1
  C  C45  1  0.49950100  0.24469500  0.07864400  1
  C  C46  1  0.46221400  0.75632400  0.08329800  1
  N  N1  1  0.50726700  0.85714300  0.49732100  1
  N  N2  1  0.49659800  0.14176500  0.50136400  1
  N  N3  1  0.16025800  0.27265500  0.29496800  1
  N  N4  1  0.24052000  0.71078400  0.25481100  1
  N  N5  1  0.56869200  0.15654300  0.02638400  1
  N  N6  1  0.55537400  0.77176500  0.14447300  1
  O  O1  1  0.32564900  0.61749800  0.50427700  1
  O  O2  1  0.31787700  0.38618800  0.50320900  1
  O  O3  1  0.50193900  0.61283100  0.37476800  1
  O  O4  1  0.49343800  0.38033400  0.37465800  1
  O  O5  1  0.68604900  0.61279700  0.49559400  1
  O  O6  1  0.67835400  0.38130500  0.49477000  1
  O  O7  1  0.51087900  0.61868800  0.62409900  1
  O  O8  1  0.50198000  0.38603400  0.62400300  1
  O  O9  1  0.21070500  0.11195300  0.19817600  1
  O  O10  1  0.10778200  0.88768300  0.25424700  1
  O  O11  1  0.47978400  0.21081300  0.15075800  1
  O  O12  1  0.40433600  0.85547400  0.06189400  1
