# Generated by REPEAT Assigner based on pymatgen
data_DB0-m3_o450_o4_f0_fsc.sym.9_sqe
_audit_creation_date              2022-05-24
_audit_creation_method            REPEAT_Assigner
_cell_length_a                    12.767639
_cell_length_b                    9.247017
_cell_length_c                    8.563994
_cell_angle_alpha                 90.000000
_cell_angle_beta                  95.023157
_cell_angle_gamma                 90.000000
_cell_volume                      1007.203957
_symmetry_space_group_name_H-M    P1
_symmetry_Int_Tables_number       1
loop_
    _symmetry_equiv_pos_site_id
    _symmetry_equiv_pos_as_xyz
    1  x,y,z
loop_
    _atom_site_type_symbol
    _atom_site_label
    _atom_site_fract_x
    _atom_site_fract_y
    _atom_site_fract_z
    _atom_type_partial_charge
    C   C1   0.709170  0.006288  0.166375  0.081145
    C   C2   0.816724  0.985524  0.177640  -0.512777
    H   H1   0.859729  0.974981  0.291525  0.192502
    C   C3   0.870245  0.985282  0.043081  0.523711
    C   C4   0.813004  0.987335  0.896264  0.108047
    C   C5   0.705922  0.007812  0.887816  -0.116765
    C   C6   0.656804  0.028260  0.021972  -0.245639
    N   N1   0.981666  0.982309  0.059756  -0.350694
    N   N2   0.021099  0.015915  0.936920  -0.017324
    C   C7   0.185756  0.013936  0.818791  -0.470139
    H   H2   0.142997  0.024232  0.704710  0.180030
    C   C8   0.293271  0.994624  0.830861  0.231099
    C   C9   0.345591  0.974709  0.975761  -0.297133
    C   C10  0.295625  0.992567  0.109684  0.013365
    C   C11  0.188018  0.009207  0.099708  -0.189055
    H   H3   0.149896  0.018793  0.207069  0.068404
    C   C12  0.132144  0.012711  0.952930  0.365829
    H   H4   0.574752  0.053972  0.013898  0.154141
    H   H5   0.427983  0.951154  0.984425  0.151607
    O   O1   0.603595  0.126561  0.681861  -0.721797
    O   O2   0.611439  0.877191  0.681386  -0.728341
    C   C13  0.641158  0.003850  0.738958  0.951111
    O   O3   0.394853  0.874923  0.650580  -0.674790
    O   O4   0.387009  0.124119  0.646682  -0.687753
    C   C14  0.356078  0.997771  0.695977  0.706212
    O   O5   0.397811  0.873853  0.315942  -0.676224
    O   O6   0.390094  0.123486  0.316230  -0.692859
    C   C15  0.360222  0.996654  0.258815  0.820124
    O   O7   0.606829  0.125387  0.346255  -0.739498
    O   O8   0.614564  0.876729  0.349955  -0.718311
    C   C16  0.646146  0.002898  0.301298  0.880953
    Zn  Zn1  0.504435  0.840770  0.499465  1.020799
    Zn  Zn2  0.497841  0.159734  0.497778  1.048227
    C   C17  0.411514  0.433221  0.485136  0.121548
    C   C18  0.415371  0.575058  0.486546  0.174638
    N   N3   0.497163  0.349752  0.497078  0.009341
    N   N4   0.505074  0.650754  0.499953  -0.002583
    C   C19  0.590413  0.420555  0.510866  -0.108218
    C   C20  0.594528  0.571947  0.512208  -0.081798
    H   H6   0.662921  0.359599  0.521170  0.168916
    H   H7   0.669874  0.626036  0.523139  0.177329
    C   C21  0.299763  0.594870  0.470421  -0.195705
    C   C22  0.295257  0.424851  0.468876  -0.074041
    H   H8   0.270103  0.642822  0.576754  0.103488
    H   H9   0.263336  0.378705  0.574431  0.081063
    H   H10  0.271087  0.643861  0.356434  0.097769
    H   H11  0.264227  0.379708  0.354057  0.084403
    O   O9   0.859342  0.967074  0.759782  -0.315364
    C   C23  0.869474  0.105878  0.699155  0.006147
    H   H12  0.862873  0.186728  0.793446  0.008420
    H   H13  0.806664  0.124848  0.603531  0.064189
    H   H14  0.947399  0.116906  0.652475  0.022252
