# generated using pymatgen
data_ZnH8C14INO4
_symmetry_space_group_name_H-M   'P 1'
_cell_length_a   9.76497400
_cell_length_b   10.94860100
_cell_length_c   17.49773400
_cell_angle_alpha   90.00953000
_cell_angle_beta   86.25387200
_cell_angle_gamma   90.00396200
_symmetry_Int_Tables_number   1
_chemical_formula_structural   ZnH8C14INO4
_chemical_formula_sum   'Zn2 H16 C28 I2 N2 O8'
_cell_volume   1866.73466212
_cell_formula_units_Z   2
loop_
 _symmetry_equiv_pos_site_id
 _symmetry_equiv_pos_as_xyz
  1  'x, y, z'
loop_
 _atom_site_type_symbol
 _atom_site_label
 _atom_site_symmetry_multiplicity
 _atom_site_fract_x
 _atom_site_fract_y
 _atom_site_fract_z
 _atom_site_occupancy
  Zn  Zn1  1  0.34449900  0.50004300  0.49921000  1
  Zn  Zn2  1  0.65550100  0.49995700  0.50079000  1
  H  H1  1  0.66573100  0.58056800  0.74164500  1
  H  H2  1  0.33426900  0.41943200  0.25835500  1
  H  H3  1  0.65647100  0.51325700  0.99520900  1
  H  H4  1  0.34352900  0.48674300  0.00479100  1
  H  H5  1  0.26423000  0.40996700  0.88744600  1
  H  H6  1  0.73577100  0.59003300  0.11255400  1
  H  H7  1  0.34428000  0.41434300  0.12087700  1
  H  H8  1  0.65572100  0.58565700  0.87912300  1
  H  H9  1  0.71905200  0.88986400  0.50251500  1
  H  H10  1  0.28094900  0.11013700  0.49748500  1
  H  H11  1  0.71904200  0.11060400  0.50034700  1
  H  H12  1  0.28095900  0.88939600  0.49965300  1
  H  H13  1  0.88282900  0.36594800  0.41453500  1
  H  H14  1  0.11717200  0.63405200  0.58546500  1
  H  H15  1  0.13454000  0.36611800  0.41304200  1
  H  H16  1  0.86546100  0.63388300  0.58695900  1
  C  C1  1  0.50006100  0.73922300  0.50190300  1
  C  C2  1  0.49993900  0.26077800  0.49809700  1
  C  C3  1  0.48099100  0.49537900  0.65011300  1
  C  C4  1  0.51901000  0.50462200  0.34988700  1
  C  C5  1  0.47038000  0.49356700  0.73435300  1
  C  C6  1  0.52962000  0.50643400  0.26564700  1
  C  C7  1  0.57735100  0.54131500  0.77294500  1
  C  C8  1  0.42265000  0.45868600  0.22705500  1
  C  C9  1  0.57190900  0.54327800  0.85187900  1
  C  C10  1  0.42809100  0.45672300  0.14812100  1
  C  C11  1  0.45926400  0.49564400  0.89384800  1
  C  C12  1  0.54073700  0.50435600  0.10615300  1
  C  C13  1  0.35240400  0.44830900  0.85542600  1
  C  C14  1  0.64759600  0.55169100  0.14457500  1
  C  C15  1  0.35697100  0.44582700  0.77649800  1
  C  C16  1  0.64302900  0.55417400  0.22350200  1
  C  C17  1  0.44616300  0.49561000  0.97830800  1
  C  C18  1  0.55383800  0.50439000  0.02169300  1
  C  C19  1  0.62208600  0.93716500  0.50146900  1
  C  C20  1  0.37791500  0.06283500  0.49853100  1
  C  C21  1  0.62208000  0.06309900  0.50012700  1
  C  C22  1  0.37792000  0.93690100  0.49987300  1
  C  C23  1  0.49999900  0.12674900  0.49863000  1
  C  C24  1  0.50000100  0.87325100  0.50137100  1
  C  C25  1  0.93416900  0.42564800  0.45270800  1
  C  C26  1  0.06583100  0.57435300  0.54729200  1
  C  C27  1  0.07549400  0.42588800  0.45175200  1
  C  C28  1  0.92450700  0.57411300  0.54824800  1
  I  I1  1  0.80908600  0.64257700  0.27229400  1
  I  I2  1  0.19091500  0.35742300  0.72770600  1
  N  N1  1  0.13968200  0.50032700  0.49902400  1
  N  N2  1  0.86031900  0.49967300  0.50097600  1
  O  O1  1  0.38221700  0.68195200  0.50080000  1
  O  O2  1  0.61778300  0.31804800  0.49920000  1
  O  O3  1  0.61803200  0.68197600  0.50235300  1
  O  O4  1  0.38196800  0.31802400  0.49764700  1
  O  O5  1  0.36831500  0.49739200  0.61333000  1
  O  O6  1  0.63168600  0.50260900  0.38667000  1
  O  O7  1  0.60393300  0.49740100  0.61485700  1
  O  O8  1  0.39606800  0.50259900  0.38514300  1
