# generated using pymatgen
data_CuH18C23NClO4
_symmetry_space_group_name_H-M   'P 1'
_cell_length_a   15.86213100
_cell_length_b   14.47121700
_cell_length_c   10.69507900
_cell_angle_alpha   90.00000000
_cell_angle_beta   90.01102600
_cell_angle_gamma   90.00000000
_symmetry_Int_Tables_number   1
_chemical_formula_structural   CuH18C23NClO4
_chemical_formula_sum   'Cu2 H36 C46 N2 Cl2 O8'
_cell_volume   2454.99480253
_cell_formula_units_Z   2
loop_
 _symmetry_equiv_pos_site_id
 _symmetry_equiv_pos_as_xyz
  1  'x, y, z'
loop_
 _atom_site_type_symbol
 _atom_site_label
 _atom_site_symmetry_multiplicity
 _atom_site_fract_x
 _atom_site_fract_y
 _atom_site_fract_z
 _atom_site_occupancy
  Cu  Cu1  1  0.49290500  0.59488800  0.49601100  1
  Cu  Cu2  1  0.49299300  0.40986600  0.49530700  1
  H  H1  1  0.36444200  0.43129400  0.91831700  1
  H  H2  1  0.37270400  0.58968000  0.07185700  1
  H  H3  1  0.48324200  0.34539100  0.07406800  1
  H  H4  1  0.50162100  0.65931100  0.91698800  1
  H  H5  1  0.61332000  0.41503500  0.91946600  1
  H  H6  1  0.62159700  0.57343900  0.07290500  1
  H  H7  1  0.91927900  0.59359000  0.65488000  1
  H  H8  1  0.92471300  0.42178200  0.66397700  1
  H  H9  1  0.06104200  0.58299100  0.66411200  1
  H  H10  1  0.06648200  0.41118400  0.65505600  1
  H  H11  1  0.06089600  0.35385100  0.50529200  1
  H  H12  1  0.06674300  0.65016300  0.52204600  1
  H  H13  1  0.91911500  0.35459600  0.52191200  1
  H  H14  1  0.92497500  0.65090800  0.50511700  1
  H  H15  1  0.06115900  0.57006600  0.31619500  1
  H  H16  1  0.06663100  0.44553900  0.30851800  1
  H  H17  1  0.91937400  0.55920000  0.30835000  1
  H  H18  1  0.92484000  0.43467300  0.31606100  1
  H  H19  1  0.63438300  0.93065300  0.52670100  1
  H  H20  1  0.62956100  0.08827900  0.55079700  1
  H  H21  1  0.44368900  0.07934700  0.31506800  1
  H  H22  1  0.42725400  0.93675700  0.33466800  1
  H  H23  1  0.40683700  0.08543100  0.64680400  1
  H  H24  1  0.42211700  0.93096700  0.66368900  1
  H  H25  1  0.36114900  0.07499600  0.49359800  1
  H  H26  1  0.36174900  0.91947900  0.52287600  1
  H  H27  1  0.55598500  0.07522800  0.67515800  1
  H  H28  1  0.57344200  0.92291100  0.66417300  1
  H  H29  1  0.67691300  0.02125000  0.37253100  1
  H  H30  1  0.74905000  0.19362100  0.07203800  1
  H  H31  1  0.60110900  0.23465200  0.03497500  1
  H  H32  1  0.49013200  0.17257100  0.16747100  1
  H  H33  1  0.45487500  0.94678200  0.12268300  1
  H  H34  1  0.64953600  0.77232900  0.98690800  1
  H  H35  1  0.70859400  0.76079700  0.19868200  1
  H  H36  1  0.64197600  0.83779200  0.37169900  1
  C  C1  1  0.33116800  0.50219100  0.49543400  1
  C  C2  1  0.49276800  0.50328100  0.25544800  1
  C  C3  1  0.65470800  0.50257400  0.49501100  1
  C  C4  1  0.49320000  0.50148000  0.73585000  1
  C  C5  1  0.42733500  0.54996000  0.03583400  1
  C  C6  1  0.48823700  0.41672100  0.03721300  1
  C  C7  1  0.42282500  0.46365800  0.95489400  1
  C  C8  1  0.49322500  0.50167100  0.87534800  1
  C  C9  1  0.49769700  0.58800300  0.95407700  1
  C  C10  1  0.55867100  0.45473000  0.95547700  1
  C  C11  1  0.56319000  0.54110800  0.03636200  1
  C  C12  1  0.49283300  0.50305800  0.11594600  1
  C  C13  1  0.04066500  0.58654200  0.56502100  1
  C  C14  1  0.04051700  0.41551500  0.55894200  1
  C  C15  1  0.94516200  0.41822100  0.56493100  1
  C  C16  1  0.94531500  0.58924900  0.55882300  1
  C  C17  1  0.74517400  0.50259400  0.49495000  1
  C  C18  1  0.07249400  0.50229000  0.49521400  1
  C  C19  1  0.91338100  0.50246700  0.49504200  1
  C  C20  1  0.94530300  0.49982700  0.36147000  1
  C  C21  1  0.04066400  0.50491700  0.36157300  1
  C  C22  1  0.82114400  0.50255700  0.49496300  1
  C  C23  1  0.16473200  0.50220100  0.49531400  1
  C  C24  1  0.24070100  0.50216600  0.49538400  1
  C  C25  1  0.56890100  0.05582800  0.57668400  1
  C  C26  1  0.57389200  0.95137700  0.56829900  1
  C  C27  1  0.50212400  0.05462100  0.36072200  1
  C  C28  1  0.49358800  0.94974900  0.36203600  1
  C  C29  1  0.49722800  0.09054200  0.49522900  1
  C  C30  1  0.49776800  0.91431500  0.49690700  1
  C  C31  1  0.41960200  0.95030500  0.56360900  1
  C  C32  1  0.41571300  0.05499800  0.55254400  1
  C  C33  1  0.49572600  0.81299900  0.49946900  1
  C  C34  1  0.49603800  0.19174700  0.49593600  1
  C  C35  1  0.57405400  0.09290900  0.28322000  1
  C  C36  1  0.65809100  0.06957000  0.30181400  1
  C  C37  1  0.72044300  0.10597700  0.22670900  1
  C  C38  1  0.70013000  0.16556400  0.13127400  1
  C  C39  1  0.61719700  0.18859600  0.11080600  1
  C  C40  1  0.55463000  0.15287000  0.18620700  1
  C  C41  1  0.54302000  0.90078200  0.26106700  1
  C  C42  1  0.51100800  0.90662600  0.14107100  1
  C  C43  1  0.54863900  0.86040000  0.04358400  1
  C  C44  1  0.62001500  0.80860800  0.06364400  1
  C  C45  1  0.65296100  0.80220600  0.18226800  1
  C  C46  1  0.61456500  0.84706300  0.28080400  1
  N  N1  1  0.49425300  0.73301200  0.49966800  1
  N  N2  1  0.49476200  0.27172700  0.49676500  1
  Cl  Cl1  1  0.82581800  0.07504000  0.25178700  1
  Cl  Cl2  1  0.50370600  0.86602200  0.89480900  1
  O  O1  1  0.37041100  0.58169300  0.49170000  1
  O  O2  1  0.37047900  0.42275200  0.49992700  1
  O  O3  1  0.49546700  0.58269000  0.31412900  1
  O  O4  1  0.49546200  0.42379300  0.31370200  1
  O  O5  1  0.61543500  0.58215000  0.49139100  1
  O  O6  1  0.61549700  0.42299100  0.49956100  1
  O  O7  1  0.49572900  0.58102900  0.67761900  1
  O  O8  1  0.49575800  0.42201700  0.67718800  1
