# generated using pymatgen
data_Zn3H40C54(N2O5)4
_symmetry_space_group_name_H-M   'P 1'
_cell_length_a   35.49919800
_cell_length_b   35.49933100
_cell_length_c   23.82951700
_cell_angle_alpha   90.00000000
_cell_angle_beta   90.00000000
_cell_angle_gamma   90.00000000
_symmetry_Int_Tables_number   1
_chemical_formula_structural   Zn3H40C54(N2O5)4
_chemical_formula_sum   'Zn12 H160 C216 N32 O80'
_cell_volume   30029.90442274
_cell_formula_units_Z   4
loop_
 _symmetry_equiv_pos_site_id
 _symmetry_equiv_pos_as_xyz
  1  'x, y, z'
loop_
 _atom_site_type_symbol
 _atom_site_label
 _atom_site_symmetry_multiplicity
 _atom_site_fract_x
 _atom_site_fract_y
 _atom_site_fract_z
 _atom_site_occupancy
  Zn  Zn1  1  0.04254700  0.49982300  0.49957900  1
  Zn  Zn2  1  0.00000400  0.99963000  0.43643500  1
  Zn  Zn3  1  0.49974500  0.49990700  0.06353000  1
  Zn  Zn4  1  0.49994000  0.49974000  0.93637900  1
  Zn  Zn5  1  0.49990900  0.95717200  0.49978200  1
  Zn  Zn6  1  0.95720100  0.49988300  0.50031100  1
  Zn  Zn7  1  0.49984100  0.04251800  0.50045700  1
  Zn  Zn8  1  0.54250100  0.99963800  0.99974300  1
  Zn  Zn9  1  0.99990900  0.45713900  0.99960000  1
  Zn  Zn10  1  0.45716100  0.00003900  0.00053000  1
  Zn  Zn11  1  0.99980500  0.54248800  0.00025300  1
  Zn  Zn12  1  0.99971300  0.00004100  0.56358300  1
  H  H1  1  0.94025900  0.31119000  0.49763100  1
  H  H2  1  0.81082100  0.55995500  0.99942200  1
  H  H3  1  0.90157700  0.11633200  0.33351700  1
  H  H4  1  0.12189400  0.08700000  0.46852200  1
  H  H5  1  0.09126700  0.11795400  0.39770400  1
  H  H6  1  0.06703600  0.08851100  0.34760400  1
  H  H7  1  0.11583100  0.10110600  0.33603200  1
  H  H8  1  0.08783600  0.87714400  0.47528100  1
  H  H9  1  0.12138700  0.90874100  0.40807400  1
  H  H10  1  0.09390000  0.93330900  0.35594300  1
  H  H11  1  0.10702200  0.88460500  0.34466000  1
  H  H12  1  0.87657800  0.91238700  0.47147100  1
  H  H13  1  0.56089800  0.18866600  0.99982300  1
  H  H14  1  0.90689700  0.88057400  0.40122300  1
  H  H15  1  0.93122900  0.90935300  0.35039700  1
  H  H16  1  0.88221300  0.89737300  0.33962400  1
  H  H17  1  0.08698600  0.12191900  0.53142600  1
  H  H18  1  0.11787000  0.09145400  0.60246000  1
  H  H19  1  0.08837800  0.06730500  0.65258500  1
  H  H20  1  0.10093500  0.11612700  0.66398100  1
  H  H21  1  0.87725300  0.08782400  0.52495800  1
  H  H22  1  0.90887100  0.12140800  0.59209700  1
  H  H23  1  0.93348300  0.09394800  0.64421200  1
  H  H24  1  0.18898600  0.43988700  0.99858500  1
  H  H25  1  0.88478800  0.10707300  0.65557100  1
  H  H26  1  0.91235800  0.87661000  0.52857900  1
  H  H27  1  0.88046100  0.90710300  0.59858300  1
  H  H28  1  0.90918000  0.93151900  0.64939500  1
  H  H29  1  0.89715000  0.88253200  0.66034900  1
  H  H30  1  0.12299500  0.91333100  0.53353300  1
  H  H31  1  0.09246000  0.88322600  0.60515100  1
  H  H32  1  0.06758300  0.91323400  0.65378100  1
  H  H33  1  0.11651000  0.90162200  0.66628800  1
  H  H34  1  0.41309100  0.62252200  0.96613900  1
  H  H35  1  0.55875400  0.81111700  0.00514300  1
  H  H36  1  0.38336000  0.59204200  0.89414100  1
  H  H37  1  0.41364000  0.56747600  0.84553500  1
  H  H38  1  0.40179300  0.61637400  0.83327800  1
  H  H39  1  0.62184500  0.58705700  0.96861900  1
  H  H40  1  0.59139800  0.61820500  0.89780900  1
  H  H41  1  0.56714800  0.58890600  0.84753700  1
  H  H42  1  0.61597900  0.60142300  0.83611300  1
  H  H43  1  0.58816700  0.37758500  0.97453400  1
  H  H44  1  0.62143300  0.40953200  0.90736900  1
  H  H45  1  0.59372900  0.43400300  0.85539500  1
  H  H46  1  0.18836100  0.55968900  0.00484400  1
  H  H47  1  0.60713700  0.38539800  0.84391700  1
  H  H48  1  0.37640900  0.41232700  0.97180000  1
  H  H49  1  0.40677700  0.38039100  0.90170500  1
  H  H50  1  0.43119300  0.40908200  0.85085900  1
  H  H51  1  0.38217600  0.39713400  0.83999800  1
  H  H52  1  0.58663100  0.62215700  0.03172700  1
  H  H53  1  0.61775000  0.59187000  0.10271400  1
  H  H54  1  0.58843700  0.56752200  0.15286600  1
  H  H55  1  0.60073600  0.61640600  0.16430900  1
  H  H56  1  0.37735300  0.58775600  0.02551000  1
  H  H57  1  0.44103600  0.18863600  0.99690500  1
  H  H58  1  0.40916300  0.62108800  0.09274300  1
  H  H59  1  0.43372900  0.59343300  0.14467500  1
  H  H60  1  0.38508000  0.60667200  0.15617800  1
  H  H61  1  0.41264100  0.37610400  0.02761500  1
  H  H62  1  0.38044300  0.40647700  0.09745300  1
  H  H63  1  0.40893600  0.43102300  0.14840600  1
  H  H64  1  0.39708900  0.38198500  0.15931300  1
  H  H65  1  0.62290400  0.41341900  0.03366800  1
  H  H66  1  0.59245600  0.38353400  0.10556600  1
  H  H67  1  0.56776200  0.41369700  0.15418900  1
  H  H68  1  0.81122100  0.44009400  0.99639900  1
  H  H69  1  0.61669500  0.40201400  0.16648100  1
  H  H70  1  0.94005000  0.37992000  0.49746700  1
  H  H71  1  0.37957400  0.06066400  0.49571300  1
  H  H72  1  0.05977300  0.61969600  0.50094000  1
  H  H73  1  0.31087300  0.06004100  0.49545000  1
  H  H74  1  0.62024200  0.93904800  0.50278800  1
  H  H75  1  0.06069700  0.37954200  0.50368800  1
  H  H76  1  0.61971100  0.05975600  0.49975800  1
  H  H77  1  0.93906500  0.62021500  0.49791100  1
  H  H78  1  0.37993600  0.94001900  0.50195800  1
  H  H79  1  0.43841300  0.87962300  0.99861200  1
  H  H80  1  0.87951900  0.56060800  0.99987400  1
  H  H81  1  0.56133100  0.11994700  0.00022700  1
  H  H82  1  0.12027900  0.43910800  0.99820100  1
  H  H83  1  0.55906200  0.87981900  0.00478400  1
  H  H84  1  0.05964500  0.68841700  0.50071400  1
  H  H85  1  0.11964000  0.55975900  0.00449200  1
  H  H86  1  0.44062100  0.11992600  0.99725600  1
  H  H87  1  0.87995400  0.43990700  0.99676800  1
  H  H88  1  0.92868000  0.18484500  0.41767200  1
  H  H89  1  0.86173600  0.18268500  0.45340400  1
  H  H90  1  0.87208200  0.23254000  0.44737700  1
  H  H91  1  0.85480600  0.21346600  0.51299400  1
  H  H92  1  0.18445500  0.07143900  0.41665100  1
  H  H93  1  0.18231500  0.13847000  0.45143300  1
  H  H94  1  0.23221200  0.12825900  0.44578500  1
  H  H95  1  0.68895100  0.93977600  0.50303400  1
  H  H96  1  0.21293100  0.14585000  0.51109500  1
  H  H97  1  0.07453800  0.81522100  0.42316400  1
  H  H98  1  0.13992100  0.81688800  0.46427000  1
  H  H99  1  0.12975400  0.76704000  0.45757400  1
  H  H100  1  0.14454900  0.78620400  0.52447000  1
  H  H101  1  0.81437300  0.92610700  0.42346300  1
  H  H102  1  0.81611200  0.86027300  0.46296000  1
  H  H103  1  0.76621900  0.87075800  0.45840000  1
  H  H104  1  0.78643900  0.85519300  0.52420100  1
  H  H105  1  0.07137700  0.18456600  0.58302800  1
  H  H106  1  0.06006600  0.31084100  0.50385000  1
  H  H107  1  0.13844100  0.18234700  0.54838600  1
  H  H108  1  0.12823500  0.23225500  0.55383300  1
  H  H109  1  0.14588100  0.21286400  0.48862800  1
  H  H110  1  0.81536600  0.07449900  0.57743100  1
  H  H111  1  0.81696200  0.13990900  0.53639300  1
  H  H112  1  0.76712900  0.12972600  0.54328900  1
  H  H113  1  0.78616100  0.14456400  0.47632900  1
  H  H114  1  0.92603000  0.81448200  0.57689000  1
  H  H115  1  0.86023500  0.81614400  0.53725900  1
  H  H116  1  0.87071900  0.76625900  0.54200300  1
  H  H117  1  0.68843100  0.05963600  0.50006000  1
  H  H118  1  0.85521300  0.78638100  0.47610500  1
  H  H119  1  0.18498500  0.92862300  0.58178900  1
  H  H120  1  0.18277100  0.86170400  0.54596100  1
  H  H121  1  0.23263600  0.87203800  0.55185600  1
  H  H122  1  0.21347200  0.85481100  0.48627000  1
  H  H123  1  0.42813300  0.68470500  0.91830000  1
  H  H124  1  0.36116000  0.68201300  0.95384500  1
  H  H125  1  0.37120900  0.73194600  0.94815800  1
  H  H126  1  0.35397100  0.71258300  0.01360800  1
  H  H127  1  0.68441100  0.57137300  0.91613000  1
  H  H128  1  0.93978400  0.68892300  0.49773900  1
  H  H129  1  0.68278100  0.63844300  0.95083400  1
  H  H130  1  0.73260300  0.62792000  0.94500200  1
  H  H131  1  0.71355100  0.64566300  0.01037000  1
  H  H132  1  0.57521300  0.31565200  0.92254000  1
  H  H133  1  0.64055300  0.31768800  0.96366900  1
  H  H134  1  0.63070300  0.26777400  0.95703100  1
  H  H135  1  0.64535300  0.28707000  0.02391400  1
  H  H136  1  0.31425600  0.42610800  0.92372000  1
  H  H137  1  0.31595400  0.36030400  0.96335300  1
  H  H138  1  0.26606900  0.37081700  0.95870300  1
  H  H139  1  0.31120500  0.94023500  0.50169100  1
  H  H140  1  0.28624000  0.35529600  0.02456100  1
  H  H141  1  0.57060900  0.68468300  0.08410500  1
  H  H142  1  0.63775400  0.68326100  0.04969900  1
  H  H143  1  0.62705300  0.73304900  0.05544000  1
  H  H144  1  0.64499100  0.71403000  0.99016900  1
  H  H145  1  0.31545700  0.57448300  0.07771300  1
  H  H146  1  0.31724700  0.63990900  0.03683700  1
  H  H147  1  0.26737500  0.62987100  0.04355400  1
  H  H148  1  0.28654600  0.64471400  0.97668600  1
  H  H149  1  0.42654400  0.31403200  0.07589800  1
  H  H150  1  0.43894600  0.81089300  0.99897200  1
  H  H151  1  0.36082000  0.31547900  0.03597500  1
  H  H152  1  0.37148600  0.26563200  0.04073600  1
  H  H153  1  0.35603000  0.28571400  0.97478400  1
  H  H154  1  0.68499800  0.42859600  0.08136900  1
  H  H155  1  0.68251900  0.36168400  0.04556400  1
  H  H156  1  0.73242200  0.37187800  0.05125900  1
  H  H157  1  0.71309500  0.35469600  0.98575400  1
  H  H158  1  0.91334900  0.12287500  0.46627500  1
  H  H159  1  0.88321100  0.09232300  0.39471100  1
  H  H160  1  0.91319600  0.06741300  0.34608500  1
  C  C1  1  0.00055000  0.42605400  0.50034000  1
  C  C2  1  0.49922900  0.99870200  0.60979300  1
  C  C3  1  0.67356200  0.96605100  0.50237100  1
  C  C4  1  0.03378200  0.32619300  0.50245500  1
  C  C5  1  0.67326800  0.03323000  0.50069400  1
  C  C6  1  0.96606100  0.67353600  0.49840200  1
  C  C7  1  0.32640200  0.96661100  0.50033700  1
  C  C8  1  0.46525200  0.82621200  0.00030200  1
  C  C9  1  0.82618400  0.53366400  0.99881200  1
  C  C10  1  0.53456100  0.17338300  0.99922200  1
  C  C11  1  0.17357400  0.46613600  0.99993400  1
  C  C12  1  0.53239700  0.82634300  0.00374300  1
  C  C13  1  0.99869800  0.49953000  0.39027000  1
  C  C14  1  0.17322100  0.53328300  0.00343700  1
  C  C15  1  0.46738100  0.17336800  0.99757800  1
  C  C16  1  0.82640300  0.46649000  0.99709900  1
  C  C17  1  0.96667800  0.36521800  0.49890700  1
  C  C18  1  0.36504600  0.03394000  0.49702200  1
  C  C19  1  0.03314600  0.63442400  0.50019200  1
  C  C20  1  0.63474000  0.96580100  0.50223900  1
  C  C21  1  0.03397100  0.36501700  0.50234600  1
  C  C22  1  0.63444100  0.03313100  0.50053700  1
  C  C23  1  0.96581700  0.63471400  0.49849300  1
  C  C24  1  0.50052800  0.00098500  0.39045000  1
  C  C25  1  0.36523800  0.96664700  0.50047500  1
  C  C26  1  0.46511000  0.86504900  0.00010600  1
  C  C27  1  0.86500700  0.53386600  0.99907500  1
  C  C28  1  0.53463900  0.13455600  0.99943600  1
  C  C29  1  0.13475200  0.46585700  0.99973700  1
  C  C30  1  0.53240400  0.86516700  0.00351700  1
  C  C31  1  0.13439400  0.53315500  0.00323700  1
  C  C32  1  0.46730900  0.13454500  0.99776900  1
  C  C33  1  0.86523900  0.46654300  0.99731100  1
  C  C34  1  0.00038700  0.38476300  0.50054500  1
  C  C35  1  0.50104800  0.00043400  0.10980300  1
  C  C36  1  0.38478700  0.00035400  0.49887800  1
  C  C37  1  0.99939400  0.61492900  0.49940100  1
  C  C38  1  0.61495100  0.99937500  0.50129200  1
  C  C39  1  0.49872800  0.88475500  0.00163600  1
  C  C40  1  0.88476800  0.50027200  0.99838000  1
  C  C41  1  0.50097400  0.11491000  0.99873100  1
  C  C42  1  0.11493300  0.49940200  0.00135900  1
  C  C43  1  0.00016100  0.30690200  0.50073800  1
  C  C44  1  0.30692600  0.00013700  0.49856400  1
  C  C45  1  0.99973300  0.69276900  0.49919100  1
  C  C46  1  0.99923900  0.50012200  0.10961000  1
  C  C47  1  0.69279100  0.99972600  0.50158900  1
  C  C48  1  0.49886800  0.80689100  0.00207200  1
  C  C49  1  0.80690700  0.50002200  0.99788900  1
  C  C50  1  0.50096700  0.19275200  0.99831700  1
  C  C51  1  0.19277300  0.49980900  0.00176300  1
  C  C52  1  0.92628300  0.99983500  0.50059100  1
  C  C53  1  0.99990200  0.07340300  0.50044300  1
  C  C54  1  0.07342500  0.99987700  0.49942900  1
  C  C55  1  0.99985000  0.92626100  0.49957300  1
  C  C56  1  0.42626800  0.49972800  0.00066100  1
  C  C57  1  0.49861800  0.99925800  0.89046300  1
  C  C58  1  0.49977600  0.57339000  0.00068800  1
  C  C59  1  0.57340900  0.49996600  0.99926700  1
  C  C60  1  0.49995000  0.42624900  0.99920400  1
  C  C61  1  0.91210600  0.20066900  0.49430500  1
  C  C62  1  0.87269000  0.20780800  0.47578700  1
  C  C63  1  0.20035200  0.08839800  0.49304900  1
  C  C64  1  0.20741900  0.12773200  0.47408700  1
  C  C65  1  0.08806900  0.79904400  0.50093900  1
  C  C66  1  0.12811100  0.79182000  0.48579400  1
  C  C67  1  0.79916000  0.91184500  0.50143400  1
  C  C68  1  0.00049200  0.49950300  0.89024700  1
  C  C69  1  0.79148400  0.87199600  0.48569500  1
  C  C70  1  0.08841100  0.20032800  0.50660300  1
  C  C71  1  0.12772900  0.20741700  0.52561900  1
  C  C72  1  0.79906000  0.08807400  0.49973500  1
  C  C73  1  0.79185500  0.12810600  0.51496100  1
  C  C74  1  0.91184400  0.79914000  0.49894500  1
  C  C75  1  0.87198000  0.79148400  0.51462800  1
  C  C76  1  0.20070900  0.91210000  0.50508300  1
  C  C77  1  0.20786700  0.87267100  0.52352000  1
  C  C78  1  0.41136800  0.70018600  0.99499600  1
  C  C79  1  0.00109200  0.50025000  0.66978700  1
  C  C80  1  0.37193400  0.70713900  0.97641500  1
  C  C81  1  0.70058400  0.58828200  0.99243400  1
  C  C82  1  0.70785800  0.62756300  0.97340300  1
  C  C83  1  0.58880200  0.29954100  0.00032100  1
  C  C84  1  0.62889400  0.29255900  0.98521800  1
  C  C85  1  0.29901000  0.41192100  0.00170500  1
  C  C86  1  0.29131900  0.37206300  0.98602900  1
  C  C87  1  0.58761700  0.70087900  0.00786000  1
  C  C88  1  0.62683600  0.70829200  0.02705900  1
  C  C89  1  0.29924300  0.58816300  0.00001600  1
  C  C90  1  0.49893000  0.99867300  0.66996900  1
  C  C91  1  0.29213600  0.62820200  0.01530100  1
  C  C92  1  0.41256900  0.29868300  0.99787500  1
  C  C93  1  0.37270400  0.29087000  0.01338300  1
  C  C94  1  0.70052300  0.41202100  0.00460100  1
  C  C95  1  0.70760500  0.37257600  0.02302100  1
  C  C96  1  0.94193900  0.10680200  0.39822300  1
  C  C97  1  0.90779800  0.09503800  0.36626400  1
  C  C98  1  0.10663700  0.05942100  0.39897100  1
  C  C99  1  0.09448800  0.09395100  0.36828900  1
  C  C100  1  0.06294800  0.89328800  0.40409800  1
  C  C101  1  0.99865400  0.49945700  0.33009600  1
  C  C102  1  0.09857500  0.90570000  0.37658900  1
  C  C103  1  0.89235800  0.93932300  0.40186600  1
  C  C104  1  0.90383300  0.90443000  0.37151300  1
  C  C105  1  0.05933000  0.10679200  0.60097100  1
  C  C106  1  0.09382900  0.09471900  0.63179700  1
  C  C107  1  0.89342200  0.06297000  0.59616600  1
  C  C108  1  0.90585600  0.09861100  0.62361200  1
  C  C109  1  0.93920000  0.89252300  0.59820000  1
  C  C110  1  0.90426900  0.90408300  0.62838700  1
  C  C111  1  0.10693400  0.94195100  0.60155100  1
  C  C112  1  0.42607900  0.00051600  0.49925700  1
  C  C113  1  0.50082100  0.00101300  0.33027900  1
  C  C114  1  0.09519400  0.90782700  0.63356700  1
  C  C115  1  0.44199500  0.60682700  0.89820500  1
  C  C116  1  0.40802500  0.59499600  0.86589800  1
  C  C117  1  0.60664700  0.55963800  0.89885300  1
  C  C118  1  0.59459300  0.59425100  0.86830000  1
  C  C119  1  0.56308900  0.39372500  0.90351100  1
  C  C120  1  0.59860200  0.40639400  0.87593800  1
  C  C121  1  0.39229300  0.43915300  0.90214800  1
  C  C122  1  0.40376800  0.40421100  0.87191900  1
  C  C123  1  0.55912400  0.60688500  0.10137800  1
  C  C124  1  0.50111400  0.00069300  0.16997300  1
  C  C125  1  0.59371900  0.59498000  0.13210600  1
  C  C126  1  0.39354900  0.56268800  0.09652400  1
  C  C127  1  0.40610200  0.59822600  0.12414300  1
  C  C128  1  0.43924200  0.39214900  0.09738000  1
  C  C129  1  0.40419200  0.40356300  0.12738300  1
  C  C130  1  0.60703600  0.44222200  0.10159900  1
  C  C131  1  0.59531100  0.40819200  0.13384700  1
  C  C132  1  0.99898300  0.49978600  0.16978300  1
  C  C133  1  0.49855500  0.99901000  0.83028500  1
  C  C134  1  0.00076400  0.49984500  0.83008300  1
  C  C135  1  0.00106400  0.50021700  0.72033000  1
  C  C136  1  0.49873400  0.99871800  0.72051500  1
  C  C137  1  0.99869100  0.49947400  0.27954900  1
  C  C138  1  0.50099700  0.00098100  0.27973500  1
  C  C139  1  0.50110300  0.00086300  0.22051700  1
  C  C140  1  0.99920200  0.57364500  0.49956800  1
  C  C141  1  0.99881600  0.49959300  0.22032900  1
  C  C142  1  0.49859000  0.99884600  0.77973700  1
  C  C143  1  0.00094300  0.50006400  0.77954300  1
  C  C144  1  0.96992600  0.17298800  0.47785200  1
  C  C145  1  0.17284700  0.03040800  0.47724800  1
  C  C146  1  0.03098200  0.82677600  0.47976600  1
  C  C147  1  0.82662900  0.96913400  0.48066900  1
  C  C148  1  0.03040300  0.17285700  0.52238700  1
  C  C149  1  0.82683000  0.03097400  0.52073300  1
  C  C150  1  0.96911400  0.82664100  0.51973500  1
  C  C151  1  0.57366600  0.99917800  0.50096500  1
  C  C152  1  0.17304400  0.96990500  0.52170200  1
  C  C153  1  0.46936100  0.67288200  0.97852100  1
  C  C154  1  0.67283800  0.53037200  0.97681200  1
  C  C155  1  0.53156900  0.32694200  0.97910300  1
  C  C156  1  0.32656500  0.46915400  0.98086200  1
  C  C157  1  0.52977400  0.67293800  0.02324900  1
  C  C158  1  0.32686300  0.53098700  0.02095000  1
  C  C159  1  0.46966300  0.32645000  0.01893400  1
  C  C160  1  0.67301600  0.46988400  0.02131400  1
  C  C161  1  0.97058300  0.13404100  0.47557500  1
  C  C162  1  0.49870400  0.92604800  0.00113800  1
  C  C163  1  0.13388500  0.02972700  0.47551700  1
  C  C164  1  0.03036400  0.86572900  0.47782400  1
  C  C165  1  0.86556300  0.96977700  0.47795300  1
  C  C166  1  0.02972100  0.13389900  0.52424800  1
  C  C167  1  0.86578800  0.03035600  0.52253000  1
  C  C168  1  0.96975600  0.86557900  0.52231200  1
  C  C169  1  0.13410200  0.97056400  0.52411800  1
  C  C170  1  0.47023500  0.63394800  0.97596700  1
  C  C171  1  0.63387100  0.52976300  0.97525600  1
  C  C172  1  0.53074900  0.36589400  0.97724100  1
  C  C173  1  0.92606000  0.50045000  0.99890300  1
  C  C174  1  0.36549800  0.46974000  0.97812900  1
  C  C175  1  0.52930800  0.63396900  0.02482000  1
  C  C176  1  0.36582100  0.53030400  0.02274500  1
  C  C177  1  0.47010700  0.36538700  0.02161400  1
  C  C178  1  0.63408000  0.47061500  0.02389900  1
  C  C179  1  0.00008600  0.11457100  0.49998800  1
  C  C180  1  0.11459500  0.00007400  0.49979000  1
  C  C181  1  0.99998500  0.88507500  0.49996600  1
  C  C182  1  0.88509600  0.99998400  0.50029300  1
  C  C183  1  0.49979200  0.61456000  0.00038900  1
  C  C184  1  0.50096200  0.07362500  0.99915500  1
  C  C185  1  0.61457700  0.50013300  0.99957800  1
  C  C186  1  0.50026400  0.38506200  0.99941400  1
  C  C187  1  0.38508000  0.49992000  0.00044200  1
  C  C188  1  0.00014700  0.19221700  0.50028900  1
  C  C189  1  0.19224000  0.00013500  0.49923100  1
  C  C190  1  0.99999500  0.80742200  0.49944600  1
  C  C191  1  0.80744500  0.99999800  0.50108500  1
  C  C192  1  0.49943500  0.69220400  0.00121200  1
  C  C193  1  0.69222100  0.50006600  0.99871900  1
  C  C194  1  0.50066900  0.30740800  0.99869200  1
  C  C195  1  0.07364800  0.49918100  0.00092700  1
  C  C196  1  0.30742800  0.50005100  0.00127000  1
  C  C197  1  0.00012600  0.23262300  0.50052600  1
  C  C198  1  0.23264600  0.00011500  0.49888200  1
  C  C199  1  0.99996600  0.76702700  0.49923800  1
  C  C200  1  0.76704900  0.99996900  0.50141300  1
  C  C201  1  0.49920300  0.73261000  0.00167000  1
  C  C202  1  0.73262700  0.49999600  0.99825900  1
  C  C203  1  0.50085100  0.26701200  0.99841400  1
  C  C204  1  0.26703200  0.50007200  0.00160900  1
  C  C205  1  0.00010500  0.26653500  0.50065900  1
  C  C206  1  0.00104800  0.50018700  0.60961600  1
  C  C207  1  0.26655800  0.00008900  0.49868100  1
  C  C208  1  0.99988800  0.73312200  0.49917400  1
  C  C209  1  0.73314400  0.99988700  0.50155300  1
  C  C210  1  0.49901100  0.76652200  0.00193000  1
  C  C211  1  0.76653900  0.49995800  0.99800900  1
  C  C212  1  0.50093900  0.23310700  0.99831100  1
  C  C213  1  0.23312800  0.49999700  0.00174700  1
  C  C214  1  0.96663700  0.32638300  0.49898700  1
  C  C215  1  0.32622200  0.03375500  0.49685500  1
  C  C216  1  0.03324000  0.67325000  0.50007800  1
  N  N1  1  0.93906200  0.19331000  0.45595100  1
  N  N2  1  0.69301900  0.56116700  0.95443700  1
  N  N3  1  0.56337400  0.30692900  0.95973400  1
  N  N4  1  0.30612000  0.43764500  0.96141600  1
  N  N5  1  0.56045200  0.69323800  0.04574300  1
  N  N6  1  0.30675100  0.56268400  0.04048300  1
  N  N7  1  0.43818700  0.30590800  0.03826800  1
  N  N8  1  0.69335800  0.43897800  0.04303800  1
  N  N9  1  0.93955600  0.11400800  0.45368400  1
  N  N10  1  0.11362500  0.06090200  0.45456100  1
  N  N11  1  0.06235600  0.88589500  0.45960400  1
  N  N12  1  0.19301100  0.06125400  0.45499700  1
  N  N13  1  0.88551000  0.93825400  0.45752400  1
  N  N14  1  0.06087300  0.11367300  0.54535500  1
  N  N15  1  0.88598700  0.06234700  0.54067300  1
  N  N16  1  0.93820700  0.88556300  0.54256900  1
  N  N17  1  0.11410600  0.93953700  0.54608300  1
  N  N18  1  0.43938600  0.61382400  0.95370400  1
  N  N19  1  0.61361900  0.56099100  0.95445600  1
  N  N20  1  0.56261800  0.38624400  0.95899400  1
  N  N21  1  0.38539700  0.43816100  0.95779500  1
  N  N22  1  0.56056700  0.61383800  0.04577500  1
  N  N23  1  0.06266600  0.80657900  0.46037700  1
  N  N24  1  0.38607200  0.56222400  0.04104000  1
  N  N25  1  0.43840900  0.38519100  0.04174400  1
  N  N26  1  0.61407500  0.43966900  0.04610500  1
  N  N27  1  0.80623100  0.93760600  0.46118300  1
  N  N28  1  0.06123000  0.19305500  0.54462600  1
  N  N29  1  0.80666600  0.06264700  0.54023500  1
  N  N30  1  0.93756500  0.80627600  0.53922600  1
  N  N31  1  0.19339900  0.93903000  0.54349900  1
  N  N32  1  0.43841700  0.69310600  0.95667000  1
  O  O1  1  0.03310600  0.44353400  0.50130300  1
  O  O2  1  0.94387100  0.46805400  0.99765300  1
  O  O3  1  0.46846000  0.05599500  0.99839800  1
  O  O4  1  0.05583900  0.53157400  0.00220100  1
  O  O5  1  0.46623000  0.94367600  0.99985100  1
  O  O6  1  0.05620300  0.46662000  0.99913500  1
  O  O7  1  0.53343300  0.05599700  0.00042600  1
  O  O8  1  0.94351200  0.53300500  0.00071200  1
  O  O9  1  0.03353900  0.49917400  0.58350900  1
  O  O10  1  0.50034900  0.96620600  0.58371100  1
  O  O11  1  0.96848500  0.50099900  0.58363900  1
  O  O12  1  0.44386100  0.96810400  0.50049700  1
  O  O13  1  0.49847100  0.03125600  0.58378500  1
  O  O14  1  0.96620900  0.50056700  0.41638000  1
  O  O15  1  0.50126700  0.96842900  0.41645400  1
  O  O16  1  0.03126000  0.49869500  0.41625100  1
  O  O17  1  0.49943700  0.03348300  0.41652900  1
  O  O18  1  0.53353500  0.00109100  0.08366100  1
  O  O19  1  0.00032600  0.46774400  0.08314200  1
  O  O20  1  0.46847200  0.99952500  0.08386400  1
  O  O21  1  0.99841600  0.53279200  0.08399100  1
  O  O22  1  0.46613100  0.99862000  0.91661000  1
  O  O23  1  0.96664000  0.55617200  0.49859900  1
  O  O24  1  0.00128600  0.46683000  0.91585900  1
  O  O25  1  0.53119200  0.00013800  0.91640800  1
  O  O26  1  0.99942600  0.53188300  0.91671100  1
  O  O27  1  0.94362100  0.00094300  0.54912300  1
  O  O28  1  0.99902200  0.05612800  0.54904400  1
  O  O29  1  0.05564300  0.00074600  0.54764500  1
  O  O30  1  0.99881400  0.94409900  0.54773700  1
  O  O31  1  0.05610400  0.99894800  0.45086600  1
  O  O32  1  0.00072300  0.05557400  0.45226300  1
  O  O33  1  0.94407500  0.99874800  0.45239100  1
  O  O34  1  0.55588500  0.03158800  0.49973400  1
  O  O35  1  0.00091300  0.94355100  0.45100200  1
  O  O36  1  0.44364300  0.50075600  0.04916300  1
  O  O37  1  0.49896800  0.55602100  0.04922200  1
  O  O38  1  0.55566200  0.50071900  0.04751200  1
  O  O39  1  0.49892100  0.44399200  0.04745000  1
  O  O40  1  0.55605200  0.49911600  0.95072500  1
  O  O41  1  0.50058600  0.55565400  0.95243600  1
  O  O42  1  0.44402300  0.49875400  0.95242200  1
  O  O43  1  0.50093900  0.44363600  0.95071000  1
  O  O44  1  0.91969100  0.20061400  0.54420700  1
  O  O45  1  0.96813600  0.44383900  0.49923000  1
  O  O46  1  0.20036100  0.08104300  0.54302600  1
  O  O47  1  0.07857400  0.79904200  0.55011000  1
  O  O48  1  0.79990700  0.92086800  0.55078700  1
  O  O49  1  0.08110100  0.20025400  0.45661200  1
  O  O50  1  0.79897300  0.07860800  0.45055100  1
  O  O51  1  0.92091200  0.79981300  0.44960800  1
  O  O52  1  0.20058800  0.91971800  0.45519400  1
  O  O53  1  0.41889000  0.70002400  0.04491800  1
  O  O54  1  0.70065800  0.58094400  0.04241600  1
  O  O55  1  0.57928500  0.29948200  0.04948300  1
  O  O56  1  0.55619200  0.96661600  0.50185000  1
  O  O57  1  0.29974400  0.42098100  0.05104300  1
  O  O58  1  0.58038000  0.70090900  0.95784600  1
  O  O59  1  0.29917600  0.57873800  0.95081500  1
  O  O60  1  0.42172600  0.29941700  0.94857600  1
  O  O61  1  0.70032900  0.41963200  0.95470900  1
  O  O62  1  0.97198800  0.11006600  0.37392400  1
  O  O63  1  0.11034700  0.02985500  0.37353300  1
  O  O64  1  0.03438100  0.88980900  0.37618000  1
  O  O65  1  0.88895900  0.96878700  0.37606500  1
  O  O66  1  0.02973200  0.11054100  0.62631600  1
  O  O67  1  0.03161400  0.55586300  0.50066900  1
  O  O68  1  0.88996200  0.03441900  0.62412500  1
  O  O69  1  0.96862500  0.88916100  0.62411100  1
  O  O70  1  0.11021200  0.97201300  0.62580900  1
  O  O71  1  0.47210800  0.61033600  0.87415800  1
  O  O72  1  0.61030500  0.53011300  0.87329100  1
  O  O73  1  0.53450300  0.39012100  0.87566900  1
  O  O74  1  0.38894600  0.46858700  0.87625700  1
  O  O75  1  0.52953000  0.61044000  0.12679800  1
  O  O76  1  0.39003700  0.53407600  0.12433000  1
  O  O77  1  0.46862000  0.38891300  0.12344400  1
  O  O78  1  0.44355800  0.03307300  0.49837800  1
  O  O79  1  0.61042300  0.47233400  0.12568700  1
  O  O80  1  0.53120000  0.94368300  0.00188400  1
