# Generated by REPEAT Assigner based on pymatgen
data_DB0-m2_o11_o17_f0_pcu.sym.78_sqe
_audit_creation_date              2022-05-24
_audit_creation_method            REPEAT_Assigner
_cell_length_a                    14.987709
_cell_length_b                    11.028094
_cell_length_c                    9.555762
_cell_angle_alpha                 90.020551
_cell_angle_beta                  90.008225
_cell_angle_gamma                 90.009000
_cell_volume                      1579.432324
_symmetry_space_group_name_H-M    P1
_symmetry_Int_Tables_number       1
loop_
    _symmetry_equiv_pos_site_id
    _symmetry_equiv_pos_as_xyz
    1  x,y,z
loop_
    _atom_site_type_symbol
    _atom_site_label
    _atom_site_fract_x
    _atom_site_fract_y
    _atom_site_fract_z
    _atom_type_partial_charge
    O   O1   0.505616  0.335030  0.659506  -0.656759
    O   O2   0.512129  0.331934  0.418858  -0.620624
    C   C1   0.509939  0.276777  0.540055  0.753275
    O   O3   0.375199  0.501206  0.654205  -0.443971
    O   O4   0.376031  0.507708  0.413046  -0.532308
    C   C2   0.333931  0.503260  0.533361  0.549000
    Cu  Cu1  0.504542  0.511635  0.675121  0.887675
    Cu  Cu2  0.505840  0.507599  0.395277  0.852799
    O   O5   0.497112  0.687016  0.651243  -0.554104
    O   O6   0.505829  0.684355  0.411003  -0.595444
    O   O7   0.634406  0.512887  0.656708  -0.632887
    O   O8   0.635092  0.516407  0.417027  -0.543638
    C   C3   0.500349  0.742371  0.530719  0.697325
    C   C4   0.676868  0.517245  0.536820  0.783452
    C   C5   0.821789  0.546413  0.413813  0.293592
    C   C6   0.775030  0.519920  0.535768  -0.231306
    C   C7   0.821593  0.495706  0.657402  -0.147066
    C   C8   0.913615  0.494538  0.657055  0.084529
    C   C9   0.959830  0.514803  0.534461  0.084822
    C   C10  0.914139  0.539667  0.412356  -0.028643
    C   C11  0.959478  0.471200  0.779344  -0.153005
    C   C12  0.051363  0.468649  0.779297  -0.249990
    C   C13  0.097670  0.487912  0.656554  0.237875
    C   C14  0.051903  0.510200  0.534108  -0.060591
    C   C15  0.098324  0.527900  0.411321  0.245559
    C   C16  0.052889  0.549559  0.288732  -0.280601
    C   C17  0.961248  0.555302  0.288868  -0.091138
    C   C18  0.189703  0.485164  0.656430  -0.277617
    C   C19  0.236297  0.503166  0.533271  0.038513
    C   C20  0.190188  0.523661  0.410513  -0.263340
    H   H1   0.786391  0.476525  0.753541  0.131259
    H   H2   0.923736  0.455093  0.875810  0.114414
    H   H3   0.086713  0.450847  0.875756  0.137165
    H   H4   0.224669  0.468368  0.753387  0.144853
    H   H5   0.225468  0.538526  0.313436  0.135104
    H   H6   0.088777  0.562009  0.191679  0.153826
    H   H7   0.928008  0.569637  0.190055  0.114611
    C   C21  0.511521  0.943778  0.421931  0.008015
    C   C22  0.497607  0.875069  0.534919  -0.321861
    H   H8   0.522943  0.900443  0.321798  0.116132
    H   H9   0.484078  0.914684  0.635982  0.179220
    C   C23  0.510716  0.078024  0.425478  -0.044764
    C   C24  0.511808  0.143868  0.543615  -0.286585
    H   H10  0.510647  0.123989  0.325322  0.109048
    H   H11  0.514696  0.102386  0.645829  0.161437
    C   C25  0.455199  0.440856  0.958492  -0.107476
    N   N1   0.502646  0.514182  0.884491  0.063746
    H   H12  0.421216  0.365919  0.908035  0.151579
    C   C26  0.444446  0.457220  0.111595  0.192894
    N   N2   0.507550  0.502912  0.185966  -0.329696
    H   H13  0.384605  0.423407  0.161685  0.088804
    H   H14  0.568371  0.509739  0.136877  0.272630
    O   O9   0.777712  0.580799  0.297664  -0.418795
    C   C27  0.782936  0.695992  0.250993  0.888266
    O   O10  0.824046  0.771801  0.317879  -0.571193
    C   C28  0.737888  0.730995  0.118190  -0.622251
    H   H15  0.703896  0.650788  0.072867  0.164163
    H   H16  0.788205  0.765426  0.042972  0.175085
    H   H17  0.688178  0.803010  0.139860  0.168088
    O   O11  0.513437  0.622549  0.939940  -0.302741
    C   C29  0.444037  0.699819  0.952547  0.741701
    O   O12  0.370601  0.672047  0.907886  -0.492079
    C   C30  0.457533  0.820724  0.018560  -0.552500
    H   H18  0.528215  0.830401  0.050748  0.155618
    H   H19  0.413751  0.828992  0.111625  0.168455
    H   H20  0.440580  0.892880  0.942255  0.168447
