# generated using pymatgen
data_Cu3H34(C15O4)3
_symmetry_space_group_name_H-M   'P 1'
_cell_length_a   43.52778300
_cell_length_b   30.12975700
_cell_length_c   29.88735300
_cell_angle_alpha   90.00000000
_cell_angle_beta   132.96746400
_cell_angle_gamma   90.00000000
_symmetry_Int_Tables_number   1
_chemical_formula_structural   Cu3H34(C15O4)3
_chemical_formula_sum   'Cu12 H136 C180 O48'
_cell_volume   28681.83535574
_cell_formula_units_Z   4
loop_
 _symmetry_equiv_pos_site_id
 _symmetry_equiv_pos_as_xyz
  1  'x, y, z'
loop_
 _atom_site_type_symbol
 _atom_site_label
 _atom_site_symmetry_multiplicity
 _atom_site_fract_x
 _atom_site_fract_y
 _atom_site_fract_z
 _atom_site_occupancy
  Cu  Cu1  1  0.50000000  0.95757300  0.50000000  1
  Cu  Cu2  1  0.00000000  0.45757300  0.50000000  1
  Cu  Cu3  1  0.50000000  0.04431200  0.50000000  1
  Cu  Cu4  1  0.00000000  0.54431200  0.50000000  1
  Cu  Cu5  1  0.99997000  0.00006300  0.04454400  1
  Cu  Cu6  1  0.00003000  0.00006300  0.95545500  1
  Cu  Cu7  1  0.49997000  0.50006300  0.04454400  1
  Cu  Cu8  1  0.50003000  0.50006300  0.95545500  1
  Cu  Cu9  1  0.45816600  0.00012900  0.95950800  1
  Cu  Cu10  1  0.54183400  0.00012900  0.04049200  1
  Cu  Cu11  1  0.95816600  0.50012900  0.95950800  1
  Cu  Cu12  1  0.04183400  0.50012900  0.04049200  1
  H  H1  1  0.21314600  0.95569000  0.26843900  1
  H  H2  1  0.78685400  0.95569000  0.73156100  1
  H  H3  1  0.71314600  0.45569000  0.26843900  1
  H  H4  1  0.28685400  0.45569000  0.73156100  1
  H  H5  1  0.28361800  0.96298200  0.34336200  1
  H  H6  1  0.71638200  0.96298200  0.65663800  1
  H  H7  1  0.78361800  0.46298200  0.34336200  1
  H  H8  1  0.21638200  0.46298200  0.65663800  1
  H  H9  1  0.28361200  0.07165800  0.28441000  1
  H  H10  1  0.71638800  0.07165800  0.71559000  1
  H  H11  1  0.78361200  0.57165800  0.28441000  1
  H  H12  1  0.21638800  0.57165800  0.71559000  1
  H  H13  1  0.28723700  0.04535900  0.34215500  1
  H  H14  1  0.71276300  0.04536000  0.65784500  1
  H  H15  1  0.78723700  0.54535900  0.34215500  1
  H  H16  1  0.21276300  0.54536000  0.65784500  1
  H  H17  1  0.21671800  0.03809300  0.27621400  1
  H  H18  1  0.78328200  0.03809300  0.72378600  1
  H  H19  1  0.71671800  0.53809300  0.27621400  1
  H  H20  1  0.28328200  0.53809300  0.72378600  1
  H  H21  1  0.21304600  0.07104600  0.22226300  1
  H  H22  1  0.78695400  0.07104600  0.77773700  1
  H  H23  1  0.71304600  0.57104600  0.22226300  1
  H  H24  1  0.28695400  0.57104600  0.77773700  1
  H  H25  1  0.28437400  0.96669400  0.21976200  1
  H  H26  1  0.71562600  0.96669400  0.78023800  1
  H  H27  1  0.78437400  0.46669400  0.21976200  1
  H  H28  1  0.21562600  0.46669400  0.78023800  1
  H  H29  1  0.28804700  0.02635900  0.21935200  1
  H  H30  1  0.71195300  0.02635900  0.78064800  1
  H  H31  1  0.78804700  0.52635900  0.21935200  1
  H  H32  1  0.21195300  0.52635900  0.78064800  1
  H  H33  1  0.21384300  0.97377800  0.14538000  1
  H  H34  1  0.78615700  0.97377800  0.85462000  1
  H  H35  1  0.71384300  0.47377800  0.14538000  1
  H  H36  1  0.28615700  0.47377800  0.85462000  1
  H  H37  1  0.28789600  0.92966400  0.29760200  1
  H  H38  1  0.71210400  0.92966400  0.70239800  1
  H  H39  1  0.78789600  0.42966400  0.29760200  1
  H  H40  1  0.21210400  0.42966400  0.70239800  1
  H  H41  1  0.21742300  0.92899100  0.21879000  1
  H  H42  1  0.78257700  0.92899100  0.78121000  1
  H  H43  1  0.71742300  0.42899100  0.21879000  1
  H  H44  1  0.28257700  0.42899100  0.78121000  1
  H  H45  1  0.21747000  0.03347100  0.15263900  1
  H  H46  1  0.78253000  0.03347100  0.84736100  1
  H  H47  1  0.71747000  0.53347100  0.15263900  1
  H  H48  1  0.28253000  0.53347100  0.84736100  1
  H  H49  1  0.50436100  0.07029800  0.72483500  1
  H  H50  1  0.49563900  0.07029800  0.27516500  1
  H  H51  1  0.00436100  0.57029800  0.72483500  1
  H  H52  1  0.99563900  0.57029800  0.27516500  1
  H  H53  1  0.50609600  0.07108900  0.64563400  1
  H  H54  1  0.49390400  0.07108900  0.35436600  1
  H  H55  1  0.00609600  0.57108900  0.64563400  1
  H  H56  1  0.99390400  0.57108900  0.35436600  1
  H  H57  1  0.48951900  0.93003600  0.62759300  1
  H  H58  1  0.51048100  0.93003600  0.37240700  1
  H  H59  1  0.98951900  0.43003600  0.62759300  1
  H  H60  1  0.01048100  0.43003600  0.37240700  1
  H  H61  1  0.48977700  0.92908100  0.70850200  1
  H  H62  1  0.51022300  0.92908100  0.29149800  1
  H  H63  1  0.98977700  0.42908100  0.70850200  1
  H  H64  1  0.01022300  0.42908100  0.29149800  1
  H  H65  1  0.44773800  0.95114600  0.72600900  1
  H  H66  1  0.55226200  0.95114600  0.27399100  1
  H  H67  1  0.94773800  0.45114600  0.72600900  1
  H  H68  1  0.05226200  0.45114600  0.27399100  1
  H  H69  1  0.54606500  0.04526500  0.90702600  1
  H  H70  1  0.45393500  0.04526500  0.09297400  1
  H  H71  1  0.04606500  0.54526500  0.90702600  1
  H  H72  1  0.95393500  0.54526500  0.09297400  1
  H  H73  1  0.54666900  0.04630200  0.82665800  1
  H  H74  1  0.45333100  0.04630200  0.17334200  1
  H  H75  1  0.04666900  0.54630200  0.82665800  1
  H  H76  1  0.95333100  0.54630200  0.17334200  1
  H  H77  1  0.97650200  0.77975300  0.90981600  1
  H  H78  1  0.02349800  0.77975300  0.09018400  1
  H  H79  1  0.47650200  0.27975300  0.90981600  1
  H  H80  1  0.52349800  0.27975300  0.09018400  1
  H  H81  1  0.97696600  0.86058200  0.90994300  1
  H  H82  1  0.02303400  0.86058200  0.09005700  1
  H  H83  1  0.47696600  0.36058200  0.90994300  1
  H  H84  1  0.52303400  0.36058200  0.09005700  1
  H  H85  1  0.56321800  0.22042600  0.08638300  1
  H  H86  1  0.43678200  0.22042600  0.91361700  1
  H  H87  1  0.06321800  0.72042600  0.08638300  1
  H  H88  1  0.93678200  0.72042600  0.91361700  1
  H  H89  1  0.56351900  0.13959400  0.08617900  1
  H  H90  1  0.43648100  0.13959400  0.91382100  1
  H  H91  1  0.06351900  0.63959400  0.08617900  1
  H  H92  1  0.93648100  0.63959400  0.91382100  1
  H  H93  1  0.02358500  0.22033200  0.95654700  1
  H  H94  1  0.97641500  0.22033200  0.04345300  1
  H  H95  1  0.52358500  0.72033200  0.95654700  1
  H  H96  1  0.47641500  0.72033200  0.04345300  1
  H  H97  1  0.02340900  0.13966500  0.95615500  1
  H  H98  1  0.97659100  0.13966500  0.04384500  1
  H  H99  1  0.52340900  0.63966500  0.95615500  1
  H  H100  1  0.47659100  0.63966500  0.04384500  1
  H  H101  1  0.43790500  0.77994700  0.96526200  1
  H  H102  1  0.56209500  0.77994600  0.03473800  1
  H  H103  1  0.93790500  0.27994700  0.96526200  1
  H  H104  1  0.06209500  0.27994600  0.03473800  1
  H  H105  1  0.43769900  0.86061200  0.96486900  1
  H  H106  1  0.56230100  0.86061200  0.03513100  1
  H  H107  1  0.93769900  0.36061200  0.96486900  1
  H  H108  1  0.06230100  0.36061200  0.03513100  1
  H  H109  1  0.45267400  0.92960300  0.85419700  1
  H  H110  1  0.38786300  0.94433700  0.71537700  1
  H  H111  1  0.39294200  0.97784200  0.77027400  1
  H  H112  1  0.37982600  0.91966500  0.76179000  1
  H  H113  1  0.43718300  0.88405900  0.74987800  1
  H  H114  1  0.44047700  0.86180100  0.80885200  1
  H  H115  1  0.48722400  0.88276100  0.82851700  1
  H  H116  1  0.54732600  0.92960300  0.14580300  1
  H  H117  1  0.61213700  0.94433700  0.28462300  1
  H  H118  1  0.60705800  0.97784200  0.22972600  1
  H  H119  1  0.62017400  0.91966500  0.23821000  1
  H  H120  1  0.56281700  0.88405900  0.25012100  1
  H  H121  1  0.55952300  0.86180100  0.19114800  1
  H  H122  1  0.51277600  0.88276100  0.17148200  1
  H  H123  1  0.95267400  0.42960300  0.85419700  1
  H  H124  1  0.88786300  0.44433700  0.71537700  1
  H  H125  1  0.89294200  0.47784200  0.77027400  1
  H  H126  1  0.87982600  0.41966500  0.76179000  1
  H  H127  1  0.93718300  0.38405900  0.74987800  1
  H  H128  1  0.94047700  0.36180100  0.80885200  1
  H  H129  1  0.98722400  0.38276100  0.82851700  1
  H  H130  1  0.04732600  0.42960300  0.14580300  1
  H  H131  1  0.11213700  0.44433700  0.28462300  1
  H  H132  1  0.10705800  0.47784200  0.22972600  1
  H  H133  1  0.12017400  0.41966500  0.23821000  1
  H  H134  1  0.06281700  0.38405900  0.25012100  1
  H  H135  1  0.05952300  0.36180100  0.19114800  1
  H  H136  1  0.01277600  0.38276100  0.17148200  1
  C  C1  1  0.49846900  0.00092100  0.58306300  1
  C  C2  1  0.50153100  0.00092100  0.41693700  1
  C  C3  1  0.99846900  0.50092100  0.58306300  1
  C  C4  1  0.00153100  0.50092100  0.41693700  1
  C  C5  1  0.42027200  0.00092600  0.41929700  1
  C  C6  1  0.57972800  0.00092600  0.58070300  1
  C  C7  1  0.92027200  0.50092600  0.41929700  1
  C  C8  1  0.07972800  0.50092600  0.58070300  1
  C  C9  1  0.27429300  0.96040200  0.29845400  1
  C  C10  1  0.72570700  0.96040200  0.70154600  1
  C  C11  1  0.77429300  0.46040200  0.29845400  1
  C  C12  1  0.22570700  0.46040200  0.70154600  1
  C  C13  1  0.27404200  0.04232400  0.29486300  1
  C  C14  1  0.72595800  0.04232400  0.70513700  1
  C  C15  1  0.77404200  0.54232400  0.29486300  1
  C  C16  1  0.22595800  0.54232400  0.70513700  1
  C  C17  1  0.22647300  0.04041400  0.25035800  1
  C  C18  1  0.77352600  0.04041400  0.74964100  1
  C  C19  1  0.72647300  0.54041400  0.25035800  1
  C  C20  1  0.27352600  0.54041400  0.74964100  1
  C  C21  1  0.12620300  0.00008200  0.12507100  1
  C  C22  1  0.87379700  0.00008200  0.87492900  1
  C  C23  1  0.62620300  0.50008200  0.12507100  1
  C  C24  1  0.37379700  0.50008200  0.87492900  1
  C  C25  1  0.29052700  0.00047000  0.28917000  1
  C  C26  1  0.70947300  0.00047000  0.71083000  1
  C  C27  1  0.79052700  0.50047000  0.28917000  1
  C  C28  1  0.20947300  0.50047000  0.71083000  1
  C  C29  1  0.22675400  0.95847100  0.24791300  1
  C  C30  1  0.77324600  0.95847100  0.75208700  1
  C  C31  1  0.72675400  0.45847100  0.24791300  1
  C  C32  1  0.27324600  0.45847100  0.75208700  1
  C  C33  1  0.21054500  0.00016300  0.20922700  1
  C  C34  1  0.78945500  0.00016300  0.79077300  1
  C  C35  1  0.71054500  0.50016300  0.20922700  1
  C  C36  1  0.28945500  0.50016300  0.79077300  1
  C  C37  1  0.22703700  0.00178300  0.17801200  1
  C  C38  1  0.77296300  0.00178300  0.82198700  1
  C  C39  1  0.72703700  0.50178300  0.17801200  1
  C  C40  1  0.27296300  0.50178300  0.82198700  1
  C  C41  1  0.27461600  0.99849800  0.22558100  1
  C  C42  1  0.72538400  0.99849800  0.77441900  1
  C  C43  1  0.77461600  0.49849800  0.22558100  1
  C  C44  1  0.22538400  0.49849800  0.77441900  1
  C  C45  1  0.16424400  0.00004000  0.16298600  1
  C  C46  1  0.83575500  0.00004000  0.83701400  1
  C  C47  1  0.66424400  0.50004000  0.16298600  1
  C  C48  1  0.33575500  0.50004000  0.83701400  1
  C  C49  1  0.33682600  0.00065700  0.33549000  1
  C  C50  1  0.66317400  0.00065700  0.66451000  1
  C  C51  1  0.83682600  0.50065700  0.33549000  1
  C  C52  1  0.16317400  0.50065700  0.66451000  1
  C  C53  1  0.37486500  0.00080200  0.37363700  1
  C  C54  1  0.62513400  0.00080200  0.62636300  1
  C  C55  1  0.87486500  0.50080200  0.37363700  1
  C  C56  1  0.12513400  0.50080200  0.62636300  1
  C  C57  1  0.50173100  0.03926000  0.70433800  1
  C  C58  1  0.49826900  0.03926000  0.29566200  1
  C  C59  1  0.00173100  0.53926000  0.70433800  1
  C  C60  1  0.99826900  0.53926000  0.29566200  1
  C  C61  1  0.50243100  0.03973300  0.65909200  1
  C  C62  1  0.49756900  0.03973300  0.34090800  1
  C  C63  1  0.00243100  0.53973300  0.65909200  1
  C  C64  1  0.99756900  0.53973300  0.34090800  1
  C  C65  1  0.49778200  0.00064200  0.63098000  1
  C  C66  1  0.50221800  0.00064200  0.36901900  1
  C  C67  1  0.99778200  0.50064200  0.63098000  1
  C  C68  1  0.00221800  0.50064200  0.36901900  1
  C  C69  1  0.49263700  0.96109800  0.64843400  1
  C  C70  1  0.50736300  0.96109800  0.35156600  1
  C  C71  1  0.99263700  0.46109800  0.64843400  1
  C  C72  1  0.00736300  0.46109800  0.35156600  1
  C  C73  1  0.49240300  0.96059200  0.69408500  1
  C  C74  1  0.50759700  0.96059200  0.30591500  1
  C  C75  1  0.99240300  0.46059200  0.69408500  1
  C  C76  1  0.00759700  0.46059200  0.30591500  1
  C  C77  1  0.49676800  0.99967500  0.72203800  1
  C  C78  1  0.50323100  0.99967500  0.27796200  1
  C  C79  1  0.99676800  0.49967500  0.72203800  1
  C  C80  1  0.00323100  0.49967500  0.27796200  1
  C  C81  1  0.46981700  0.97095500  0.76662200  1
  C  C82  1  0.53018300  0.97095500  0.23337800  1
  C  C83  1  0.96981700  0.47095500  0.76662200  1
  C  C84  1  0.03018300  0.47095500  0.23337800  1
  C  C85  1  0.47081000  0.96811600  0.81367400  1
  C  C86  1  0.52919000  0.96811600  0.18632600  1
  C  C87  1  0.97081000  0.46811600  0.81367400  1
  C  C88  1  0.02919000  0.46811600  0.18632600  1
  C  C89  1  0.49773500  0.99621100  0.86375800  1
  C  C90  1  0.50226500  0.99621100  0.13624200  1
  C  C91  1  0.99773500  0.49621100  0.86375800  1
  C  C92  1  0.00226500  0.49621100  0.13624200  1
  C  C93  1  0.52478800  0.02382600  0.86784300  1
  C  C94  1  0.47521200  0.02382600  0.13215700  1
  C  C95  1  0.02478800  0.52382600  0.86784300  1
  C  C96  1  0.97521200  0.52382600  0.13215700  1
  C  C97  1  0.52454100  0.02507400  0.82179600  1
  C  C98  1  0.47545900  0.02507400  0.17820400  1
  C  C99  1  0.02454100  0.52507400  0.82179600  1
  C  C100  1  0.97545900  0.52507400  0.17820400  1
  C  C101  1  0.49675300  0.99893200  0.77077700  1
  C  C102  1  0.50324700  0.99893200  0.22922300  1
  C  C103  1  0.99675300  0.49893200  0.77077700  1
  C  C104  1  0.00324700  0.49893200  0.22922300  1
  C  C105  1  0.00000000  0.91478600  0.00000000  1
  C  C106  1  0.50000000  0.41478600  0.00000000  1
  C  C107  1  0.08079300  0.00035600  0.07991300  1
  C  C108  1  0.91920700  0.00035600  0.92008700  1
  C  C109  1  0.58079300  0.50035600  0.07991300  1
  C  C110  1  0.41920700  0.50035600  0.92008700  1
  C  C111  1  0.00000000  0.08533400  0.00000000  1
  C  C112  1  0.50000000  0.58533400  0.00000000  1
  C  C113  1  0.50000000  0.08540000  0.00000000  1
  C  C114  1  0.00000000  0.58540000  0.00000000  1
  C  C115  1  0.49857600  0.99794500  0.91312600  1
  C  C116  1  0.50142400  0.99794500  0.08687400  1
  C  C117  1  0.99857600  0.49794500  0.91312600  1
  C  C118  1  0.00142400  0.49794500  0.08687400  1
  C  C119  1  0.50000000  0.91489100  0.00000000  1
  C  C120  1  0.00000000  0.41489100  0.00000000  1
  C  C121  1  0.98663400  0.79740400  0.94944600  1
  C  C122  1  0.01336600  0.79740400  0.05055400  1
  C  C123  1  0.48663400  0.29740400  0.94944600  1
  C  C124  1  0.51336600  0.29740400  0.05055400  1
  C  C125  1  0.98727300  0.84314700  0.94979800  1
  C  C126  1  0.01272700  0.84314700  0.05020200  1
  C  C127  1  0.48727300  0.34314700  0.94979800  1
  C  C128  1  0.51272700  0.34314700  0.05020200  1
  C  C129  1  0.00000000  0.86621800  0.00000000  1
  C  C130  1  0.50000000  0.36621800  0.00000000  1
  C  C131  1  0.00000000  0.77436800  0.00000000  1
  C  C132  1  0.50000000  0.27436800  0.00000000  1
  C  C133  1  0.53526200  0.20277500  0.04845800  1
  C  C134  1  0.46473800  0.20277500  0.95154100  1
  C  C135  1  0.03526200  0.70277500  0.04845800  1
  C  C136  1  0.96473800  0.70277500  0.95154100  1
  C  C137  1  0.53551200  0.15703200  0.04802000  1
  C  C138  1  0.46448700  0.15703200  0.95198000  1
  C  C139  1  0.03551200  0.65703200  0.04802000  1
  C  C140  1  0.96448700  0.65703200  0.95198000  1
  C  C141  1  0.50000000  0.13396400  0.00000000  1
  C  C142  1  0.00000000  0.63396400  0.00000000  1
  C  C143  1  0.50000000  0.22581100  0.00000000  1
  C  C144  1  0.00000000  0.72581100  0.00000000  1
  C  C145  1  0.01346300  0.20276400  0.97612300  1
  C  C146  1  0.98653700  0.20276400  0.02387700  1
  C  C147  1  0.51346300  0.70276400  0.97612300  1
  C  C148  1  0.48653700  0.70276400  0.02387700  1
  C  C149  1  0.01297000  0.15702400  0.97540700  1
  C  C150  1  0.98702900  0.15702400  0.02459300  1
  C  C151  1  0.51297000  0.65702400  0.97540700  1
  C  C152  1  0.48702900  0.65702400  0.02459300  1
  C  C153  1  0.00000000  0.13392700  0.00000000  1
  C  C154  1  0.50000000  0.63392700  0.00000000  1
  C  C155  1  0.00000000  0.22583900  0.00000000  1
  C  C156  1  0.50000000  0.72583900  0.00000000  1
  C  C157  1  0.46542400  0.79751200  0.98100700  1
  C  C158  1  0.53457600  0.79751200  0.01899300  1
  C  C159  1  0.96542400  0.29751200  0.98100700  1
  C  C160  1  0.03457600  0.29751200  0.01899300  1
  C  C161  1  0.46519700  0.84324700  0.98025800  1
  C  C162  1  0.53480300  0.84324700  0.01974200  1
  C  C163  1  0.96519700  0.34324700  0.98025800  1
  C  C164  1  0.03480300  0.34324700  0.01974200  1
  C  C165  1  0.50000000  0.86632800  0.00000000  1
  C  C166  1  0.00000000  0.36632800  0.00000000  1
  C  C167  1  0.50000000  0.77443900  0.00000000  1
  C  C168  1  0.00000000  0.27443900  0.00000000  1
  C  C169  1  0.44465000  0.93305300  0.81048500  1
  C  C170  1  0.39834700  0.94445500  0.76114000  1
  C  C171  1  0.45290800  0.88766300  0.79835700  1
  C  C172  1  0.55535000  0.93305300  0.18951500  1
  C  C173  1  0.60165300  0.94445500  0.23886000  1
  C  C174  1  0.54709200  0.88766300  0.20164300  1
  C  C175  1  0.94465000  0.43305300  0.81048500  1
  C  C176  1  0.89834700  0.44445500  0.76114000  1
  C  C177  1  0.95290800  0.38766300  0.79835700  1
  C  C178  1  0.05535000  0.43305300  0.18951500  1
  C  C179  1  0.10165300  0.44445500  0.23886000  1
  C  C180  1  0.04709200  0.38766300  0.20164300  1
  O  O1  1  0.48734000  0.96431600  0.55096400  1
  O  O2  1  0.51266000  0.96431600  0.44903600  1
  O  O3  1  0.98734000  0.46431600  0.55096400  1
  O  O4  1  0.01266000  0.46431600  0.44903600  1
  O  O5  1  0.51035100  0.03758000  0.57433000  1
  O  O6  1  0.48964900  0.03758000  0.42567000  1
  O  O7  1  0.01035100  0.53758000  0.57433000  1
  O  O8  1  0.98964900  0.53758000  0.42567000  1
  O  O9  1  0.44028600  0.96431600  0.42724700  1
  O  O10  1  0.55971400  0.96431600  0.57275300  1
  O  O11  1  0.94028600  0.46431600  0.42724700  1
  O  O12  1  0.05971400  0.46431600  0.57275300  1
  O  O13  1  0.43984900  0.03757200  0.45135000  1
  O  O14  1  0.56015100  0.03757200  0.54865000  1
  O  O15  1  0.93984900  0.53757200  0.45135000  1
  O  O16  1  0.06015100  0.53757200  0.54865000  1
  O  O17  1  0.99899400  0.93552200  0.03762000  1
  O  O18  1  0.00100600  0.93552200  0.96238000  1
  O  O19  1  0.49899400  0.43552200  0.03762000  1
  O  O20  1  0.50100600  0.43552200  0.96238000  1
  O  O21  1  0.06103700  0.99916100  0.09885400  1
  O  O22  1  0.93896300  0.99916100  0.90114600  1
  O  O23  1  0.56103700  0.49916100  0.09885400  1
  O  O24  1  0.43896300  0.49916100  0.90114600  1
  O  O25  1  0.06110000  0.99765300  0.02186100  1
  O  O26  1  0.93889900  0.99765300  0.97813800  1
  O  O27  1  0.56110000  0.49765300  0.02186100  1
  O  O28  1  0.43889900  0.49765300  0.97813800  1
  O  O29  1  0.99751400  0.06454200  0.03597300  1
  O  O30  1  0.00248600  0.06454200  0.96402700  1
  O  O31  1  0.49751400  0.56454200  0.03597300  1
  O  O32  1  0.50248600  0.56454200  0.96402700  1
  O  O33  1  0.46380800  0.06466500  0.96601400  1
  O  O34  1  0.53619200  0.06466500  0.03398600  1
  O  O35  1  0.96380800  0.56466500  0.96601400  1
  O  O36  1  0.03619200  0.56466500  0.03398600  1
  O  O37  1  0.46282700  0.00083500  0.89904200  1
  O  O38  1  0.53717300  0.00083500  0.10095800  1
  O  O39  1  0.96282700  0.50083500  0.89904200  1
  O  O40  1  0.03717300  0.50083500  0.10095800  1
  O  O41  1  0.53505000  0.00237400  0.96894500  1
  O  O42  1  0.46495000  0.00237400  0.03105400  1
  O  O43  1  0.03505000  0.50237400  0.96894500  1
  O  O44  1  0.96495000  0.50237400  0.03105400  1
  O  O45  1  0.46394000  0.93564800  0.96771500  1
  O  O46  1  0.53606000  0.93564800  0.03228500  1
  O  O47  1  0.96394000  0.43564800  0.96771500  1
  O  O48  1  0.03606000  0.43564800  0.03228500  1
