# Generated by REPEAT Assigner based on pymatgen
data_DB0-m3_o8_o29_f0_pcu.sym.91
_audit_creation_date              2022-05-24
_audit_creation_method            REPEAT_Assigner
_cell_length_a                    15.915585
_cell_length_b                    17.103241
_cell_length_c                    27.618329
_cell_angle_alpha                 89.989087
_cell_angle_beta                  92.724654
_cell_angle_gamma                 89.119535
_cell_volume                      7508.543895
_symmetry_space_group_name_H-M    P1
_symmetry_Int_Tables_number       1
loop_
    _symmetry_equiv_pos_site_id
    _symmetry_equiv_pos_as_xyz
    1  x,y,z
loop_
    _atom_site_type_symbol
    _atom_site_label
    _atom_site_fract_x
    _atom_site_fract_y
    _atom_site_fract_z
    _atom_type_partial_charge
    O   O1   0.425086  0.613574  0.498068  -0.707159
    O   O2   0.584985  0.386834  0.502063  -0.703174
    O   O3   0.569876  0.619595  0.502193  -0.697433
    O   O4   0.440196  0.380812  0.498312  -0.700384
    C   C1   0.495117  0.653170  0.500129  0.844318
    C   C2   0.514954  0.347237  0.500189  0.843690
    O   O5   0.432764  0.497076  0.570370  -0.678881
    O   O6   0.577283  0.503687  0.429950  -0.677186
    O   O7   0.577580  0.502711  0.574262  -0.684311
    O   O8   0.432513  0.497341  0.426053  -0.688008
    C   C3   0.505213  0.499808  0.594981  0.750376
    C   C4   0.504865  0.500601  0.405337  0.752282
    Zn  Zn1  0.409561  0.496227  0.497574  1.083576
    Zn  Zn2  0.600511  0.504180  0.502744  1.088187
    C   C5   0.492209  0.564944  0.823503  0.456044
    C   C6   0.500539  0.434746  0.176339  0.454307
    O   O9   0.479388  0.631534  0.798213  -0.511964
    O   O10  0.496809  0.367416  0.201170  -0.511948
    N   N1   0.505743  0.497855  0.799795  -0.229040
    N   N2   0.504797  0.502627  0.200542  -0.230137
    C   C7   0.519459  0.430077  0.823788  0.468592
    C   C8   0.509239  0.571222  0.177060  0.468213
    C   C9   0.580132  0.490280  0.725166  -0.181981
    C   C10  0.577899  0.516338  0.279167  -0.178894
    C   C11  0.580196  0.491300  0.675262  -0.065415
    C   C12  0.578177  0.515320  0.329077  -0.072531
    C   C13  0.430600  0.507253  0.671340  -0.076680
    C   C14  0.431451  0.486994  0.324966  -0.070771
    C   C15  0.430912  0.507245  0.721265  -0.187804
    C   C16  0.431680  0.487031  0.275052  -0.193354
    C   C17  0.505578  0.498413  0.748244  0.272278
    C   C18  0.504763  0.502040  0.252085  0.276105
    C   C19  0.506285  0.497340  0.899360  -0.022852
    C   C20  0.505513  0.503213  0.101015  -0.027821
    C   C21  0.492884  0.565688  0.873416  -0.033042
    C   C22  0.501443  0.434077  0.126470  -0.030796
    C   C23  0.479209  0.634821  0.897340  -0.078444
    C   C24  0.497366  0.364150  0.102048  -0.078065
    C   C25  0.519745  0.428072  0.874482  -0.091034
    C   C26  0.509353  0.573256  0.126378  -0.085688
    C   C27  0.505333  0.499476  0.648058  -0.077117
    C   C28  0.504818  0.500950  0.352262  -0.077352
    H   H1   0.371305  0.514063  0.650942  0.105161
    H   H2   0.373393  0.475277  0.342186  0.104276
    H   H3   0.372343  0.513527  0.739260  0.131803
    H   H4   0.374214  0.475899  0.253906  0.132820
    H   H5   0.466414  0.688732  0.877794  0.126154
    H   H6   0.491944  0.309421  0.121085  0.126479
    C   C29  0.504467  0.570912  0.024751  -0.028405
    C   C30  0.514221  0.429954  0.975817  -0.015705
    C   C31  0.507092  0.430858  0.026115  0.150264
    C   C32  0.497701  0.569384  0.974064  0.159213
    C   C33  0.505688  0.501689  0.050572  0.011751
    C   C34  0.506074  0.498866  0.949802  0.001185
    C   C35  0.511416  0.640455  0.050335  -0.149505
    C   C36  0.530740  0.361468  0.950892  -0.155825
    C   C37  0.514024  0.642531  0.100059  0.221830
    C   C38  0.533788  0.359643  0.901326  0.227677
    O   O11  0.511764  0.636764  0.203736  -0.478639
    O   O12  0.530889  0.365142  0.797509  -0.478330
    C   C39  0.481698  0.636916  0.946952  -0.219078
    C   C40  0.500304  0.362302  0.052587  -0.218601
    H   H7   0.636274  0.526623  0.349538  0.106552
    H   H8   0.639407  0.484896  0.657980  0.104201
    H   H9   0.635357  0.527860  0.261251  0.127063
    H   H10  0.638803  0.483621  0.746231  0.127964
    H   H11  0.518846  0.696038  0.032994  0.040679
    H   H12  0.545677  0.306897  0.968864  0.041720
    H   H13  0.467250  0.692721  0.962724  0.183715
    H   H14  0.493621  0.305551  0.036220  0.183577
    C   C41  0.489581  0.738837  0.500054  -0.249066
    C   C42  0.520491  0.261571  0.500264  -0.251156
    C   C43  0.561882  0.782735  0.502001  -0.041026
    C   C44  0.448190  0.217672  0.498422  -0.034460
    C   C45  0.557009  0.863335  0.501814  -0.156432
    C   C46  0.453063  0.137072  0.498605  -0.158627
    C   C47  0.479025  0.900962  0.499675  0.473150
    C   C48  0.531048  0.099445  0.500642  0.472383
    C   C49  0.407101  0.856965  0.497806  -0.365686
    C   C50  0.602970  0.143442  0.502415  -0.364350
    C   C51  0.412051  0.776464  0.497983  0.083877
    C   C52  0.598021  0.223944  0.502234  0.081733
    N   N3   0.470611  0.983439  0.499336  -0.243390
    N   N4   0.539462  0.016968  0.500978  -0.242134
    H   H15  0.386784  0.245639  0.496835  0.105697
    H   H16  0.623288  0.754768  0.503667  0.110122
    H   H17  0.394526  0.105755  0.497133  0.061857
    H   H18  0.615547  0.894652  0.503373  0.061563
    H   H19  0.346196  0.885937  0.496154  0.133871
    H   H20  0.663876  0.114470  0.503990  0.133525
    H   H21  0.354465  0.743721  0.496463  0.084363
    H   H22  0.655606  0.256686  0.503676  0.087351
    N   N5   0.726034  0.509435  0.506120  -0.170744
    N   N6   0.284038  0.490972  0.494199  -0.154203
    C   C53  0.770910  0.462960  0.477314  0.034767
    C   C54  0.239172  0.537326  0.523081  0.007514
    C   C55  0.857590  0.465708  0.478978  -0.168119
    C   C56  0.152493  0.534580  0.521415  -0.160262
    C   C57  0.898546  0.516926  0.510685  0.483248
    C   C58  0.111529  0.483485  0.489631  0.483563
    C   C59  0.851181  0.563828  0.539783  -0.366953
    C   C60  0.158885  0.436699  0.460461  -0.355921
    C   C61  0.764713  0.559465  0.537108  0.159702
    C   C62  0.245353  0.441064  0.463135  0.129573
    N   N7   0.987195  0.522728  0.514200  -0.214748
    N   N8   0.022879  0.477686  0.486114  -0.217090
    H   H23  0.271237  0.577087  0.547845  0.161890
    H   H24  0.738854  0.423098  0.452613  0.142342
    H   H25  0.119438  0.572994  0.545361  0.076725
    H   H26  0.890651  0.427187  0.455098  0.079055
    H   H27  0.881913  0.604144  0.564741  0.154119
    H   H28  0.128146  0.396479  0.435443  0.151268
    H   H29  0.727873  0.596454  0.560016  0.118418
    H   H30  0.282188  0.404173  0.440165  0.138598
    S   S1   0.524862  0.737997  0.126341  -0.154244
    C   C63  0.412657  0.758147  0.119274  0.044572
    H   H31  0.394101  0.800005  0.147648  0.081587
    H   H32  0.377683  0.703208  0.123631  -0.001338
    H   H33  0.397364  0.783485  0.082895  -0.007187
    S   S2   0.557765  0.265752  0.876020  -0.156129
    C   C64  0.449022  0.235579  0.876938  0.042346
    H   H34  0.436406  0.192340  0.847680  0.082435
    H   H35  0.406722  0.287021  0.870456  -0.000523
    H   H36  0.437227  0.208975  0.912553  -0.006127
