# generated using pymatgen
data_Zn2H19C32N2ClO8
_symmetry_space_group_name_H-M   'P 1'
_cell_length_a   8.51869500
_cell_length_b   12.98966700
_cell_length_c   14.19123300
_cell_angle_alpha   90.63317000
_cell_angle_beta   93.35623700
_cell_angle_gamma   86.46165400
_symmetry_Int_Tables_number   1
_chemical_formula_structural   Zn2H19C32N2ClO8
_chemical_formula_sum   'Zn2 H19 C32 N2 Cl1 O8'
_cell_volume   1564.60572014
_cell_formula_units_Z   1
loop_
 _symmetry_equiv_pos_site_id
 _symmetry_equiv_pos_as_xyz
  1  'x, y, z'
loop_
 _atom_site_type_symbol
 _atom_site_label
 _atom_site_symmetry_multiplicity
 _atom_site_fract_x
 _atom_site_fract_y
 _atom_site_fract_z
 _atom_site_occupancy
  Zn  Zn1  1  0.49018600  0.51138900  0.89495700  1
  Zn  Zn2  1  0.50788100  0.48793700  0.10440600  1
  H  H1  1  0.01458500  0.56976700  0.04188000  1
  H  H2  1  0.70543800  0.83055000  0.99813400  1
  H  H3  1  0.68290400  0.98432400  0.02740800  1
  H  H4  1  0.65059500  0.16445500  0.00971200  1
  H  H5  1  0.98348000  0.42955300  0.95746000  1
  H  H6  1  0.29262800  0.16878000  0.00125800  1
  H  H7  1  0.31516300  0.01500500  0.97198100  1
  H  H8  1  0.34747200  0.83487400  0.98967000  1
  H  H9  1  0.73537100  0.42022000  0.45199600  1
  H  H10  1  0.69076500  0.39783100  0.60721300  1
  H  H11  1  0.70776700  0.58454800  0.57190600  1
  H  H12  1  0.67503500  0.60721600  0.41264100  1
  H  H13  1  0.47185500  0.65528700  0.41869100  1
  H  H14  1  0.25554300  0.45800400  0.57743000  1
  H  H15  1  0.27151800  0.59151100  0.54662400  1
  H  H16  1  0.30426600  0.40065800  0.42900700  1
  H  H17  1  0.50280500  0.34354600  0.57968100  1
  H  H18  1  0.58451100  0.32928000  0.42961800  1
  H  H19  1  0.25636900  0.53312500  0.39449900  1
  C  C1  1  0.12567900  0.70742600  0.01748800  1
  C  C2  1  0.99790600  0.65168300  0.03132200  1
  C  C3  1  0.84889100  0.69728500  0.02200000  1
  C  C4  1  0.82578900  0.80158100  0.00933200  1
  C  C5  1  0.95386900  0.86275300  0.00806200  1
  C  C6  1  0.10406800  0.81386900  0.00672000  1
  C  C7  1  0.93403600  0.97077300  0.00459000  1
  C  C8  1  0.06403000  0.02855300  0.99479600  1
  C  C9  1  0.21097700  0.97688800  0.98629200  1
  C  C10  1  0.23077500  0.87149800  0.99419900  1
  C  C11  1  0.78708900  0.02243900  0.01309500  1
  C  C12  1  0.76729200  0.12782900  0.00518400  1
  C  C13  1  0.89399800  0.18545700  0.99265500  1
  C  C14  1  0.04419700  0.13657300  0.99131900  1
  C  C15  1  0.87238700  0.29189800  0.98187400  1
  C  C16  1  0.00016000  0.34763800  0.96802800  1
  C  C17  1  0.14917700  0.30203800  0.97736400  1
  C  C18  1  0.17227700  0.19774400  0.99004900  1
  C  C19  1  0.28197400  0.36693700  0.98469600  1
  C  C20  1  0.27662600  0.64719700  0.01070500  1
  C  C21  1  0.71609300  0.63238800  0.01467000  1
  C  C22  1  0.72144200  0.35212900  0.98865800  1
  C  C23  1  0.57779600  0.40743000  0.56433900  1
  C  C24  1  0.58099500  0.59614300  0.54965200  1
  C  C25  1  0.56095800  0.59397100  0.44294600  1
  C  C26  1  0.49255700  0.50959300  0.58797900  1
  C  C27  1  0.61007500  0.40568300  0.46047100  1
  C  C28  1  0.50562000  0.48965400  0.41139600  1
  C  C29  1  0.33768500  0.48139600  0.43895300  1
  C  C30  1  0.32745700  0.51244300  0.54170500  1
  C  C31  1  0.51234900  0.47950800  0.30888900  1
  C  C32  1  0.48578400  0.51979100  0.69047800  1
  N  N1  1  0.51563800  0.47472800  0.22755600  1
  N  N2  1  0.48244200  0.52460000  0.77180800  1
  Cl  Cl1  1  0.50603200  0.71719700  0.59325800  1
  O  O1  1  0.33855300  0.39052600  0.06948400  1
  O  O2  1  0.32910700  0.40589200  0.90727300  1
  O  O3  1  0.32025000  0.61933800  0.92618800  1
  O  O4  1  0.33947000  0.60342100  0.08817600  1
  O  O5  1  0.65951500  0.60879800  0.92988400  1
  O  O6  1  0.66896700  0.59343100  0.09209300  1
  O  O7  1  0.67782100  0.37999100  0.07317400  1
  O  O8  1  0.65859800  0.39590600  0.91118800  1
