# generated using pymatgen
data_ZnH14C20(NO2)2
_symmetry_space_group_name_H-M   'P 1'
_cell_length_a   15.06894400
_cell_length_b   8.44934500
_cell_length_c   13.34108900
_cell_angle_alpha   90.00000000
_cell_angle_beta   98.32765500
_cell_angle_gamma   90.00000000
_symmetry_Int_Tables_number   1
_chemical_formula_structural   ZnH14C20(NO2)2
_chemical_formula_sum   'Zn2 H28 C40 N4 O8'
_cell_volume   1680.71326958
_cell_formula_units_Z   2
loop_
 _symmetry_equiv_pos_site_id
 _symmetry_equiv_pos_as_xyz
  1  'x, y, z'
loop_
 _atom_site_type_symbol
 _atom_site_label
 _atom_site_symmetry_multiplicity
 _atom_site_fract_x
 _atom_site_fract_y
 _atom_site_fract_z
 _atom_site_occupancy
  Zn  Zn1  1  0.50157800  0.49030500  0.88847200  1
  Zn  Zn2  1  0.49842200  0.49030500  0.11152800  1
  H  H1  1  0.56690800  0.99007200  0.05044000  1
  H  H2  1  0.43309200  0.99007200  0.94956000  1
  H  H3  1  0.80434200  0.73764300  0.01498700  1
  H  H4  1  0.19806700  0.24267600  0.99297100  1
  H  H5  1  0.19565800  0.73764400  0.98501300  1
  H  H6  1  0.80193300  0.24267600  0.00702800  1
  H  H7  1  0.11655900  0.98873500  0.14937300  1
  H  H8  1  0.88344100  0.98873800  0.85062700  1
  H  H9  1  0.35603200  0.49038800  0.23013500  1
  H  H10  1  0.64396800  0.49038800  0.76986500  1
  H  H11  1  0.63789900  0.49033900  0.27258200  1
  H  H12  1  0.36210100  0.49033900  0.72741800  1
  H  H13  1  0.72166600  0.49039700  0.44095700  1
  H  H14  1  0.27833400  0.49039700  0.55904300  1
  H  H15  1  0.72400500  0.49041200  0.62531500  1
  H  H16  1  0.27599500  0.49041200  0.37468500  1
  H  H17  1  0.04804900  0.82838800  0.25567800  1
  H  H18  1  0.98052100  0.91150900  0.34307300  1
  H  H19  1  0.06083600  0.03577400  0.29288400  1
  H  H20  1  0.90235300  0.21018800  0.15694200  1
  H  H21  1  0.92093600  0.16326700  0.28992800  1
  H  H22  1  0.82321600  0.08541900  0.21112900  1
  H  H23  1  0.95195100  0.82839100  0.74432200  1
  H  H24  1  0.01948000  0.91151200  0.65692700  1
  H  H25  1  0.93916400  0.03577700  0.70711600  1
  H  H26  1  0.09764700  0.21019100  0.84305800  1
  H  H27  1  0.07906400  0.16327100  0.71007300  1
  H  H28  1  0.17678400  0.08542300  0.78887100  1
  C  C1  1  0.68007800  0.84884500  0.03263800  1
  C  C2  1  0.32025800  0.13151000  0.96824900  1
  C  C3  1  0.31992200  0.84884500  0.96736200  1
  C  C4  1  0.67974200  0.13151000  0.03175100  1
  C  C5  1  0.76979200  0.84832700  0.02200900  1
  C  C6  1  0.23133800  0.13201600  0.98198200  1
  C  C7  1  0.23020800  0.84832700  0.97799000  1
  C  C8  1  0.76866200  0.13201600  0.01801800  1
  C  C9  1  0.81500700  0.99043800  0.01902900  1
  C  C10  1  0.18499400  0.99043800  0.98097100  1
  C  C11  1  0.63709600  0.99016400  0.04256800  1
  C  C12  1  0.36290400  0.99016400  0.95743200  1
  C  C13  1  0.97385800  0.98702000  0.09578500  1
  C  C14  1  0.02614200  0.98702100  0.90421500  1
  C  C15  1  0.06403600  0.98823500  0.08521100  1
  C  C16  1  0.93596400  0.98823600  0.91478900  1
  C  C17  1  0.08963700  0.99074900  0.99013100  1
  C  C18  1  0.91036300  0.99074900  0.00986900  1
  C  C19  1  0.62544200  0.70552500  0.02215000  1
  C  C20  1  0.37481100  0.27479500  0.97811500  1
  C  C21  1  0.37455800  0.70552500  0.97785000  1
  C  C22  1  0.62518900  0.27479500  0.02188500  1
  C  C23  1  0.41881000  0.49039300  0.28094100  1
  C  C24  1  0.58119000  0.49039300  0.71905900  1
  C  C25  1  0.57601000  0.49036900  0.30464800  1
  C  C26  1  0.42399100  0.49036900  0.69535200  1
  C  C27  1  0.57838300  0.49039900  0.40834400  1
  C  C28  1  0.42161700  0.49039900  0.59165600  1
  C  C29  1  0.49933300  0.49040900  0.44832900  1
  C  C30  1  0.50066700  0.49040900  0.55167100  1
  C  C31  1  0.41897900  0.49040900  0.38446500  1
  C  C32  1  0.58102100  0.49040900  0.61553500  1
  C  C33  1  0.65925700  0.49040500  0.47198900  1
  C  C34  1  0.34074300  0.49040500  0.52801100  1
  C  C35  1  0.66058700  0.49041400  0.57566800  1
  C  C36  1  0.33941300  0.49041400  0.42433200  1
  C  C37  1  0.01272000  0.93684400  0.27511100  1
  C  C38  1  0.89491000  0.11702600  0.21352800  1
  C  C39  1  0.98728000  0.93684700  0.72488800  1
  C  C40  1  0.10509000  0.11702900  0.78647200  1
  N  N1  1  0.49688400  0.49035400  0.24289000  1
  N  N2  1  0.50311700  0.49035400  0.75711000  1
  N  N3  1  0.94484400  0.97916800  0.19210700  1
  N  N4  1  0.05515600  0.97917100  0.80789300  1
  O  O1  1  0.59557400  0.65105300  0.10303400  1
  O  O2  1  0.40456800  0.32923400  0.89703100  1
  O  O3  1  0.40442600  0.65105300  0.89696600  1
  O  O4  1  0.59543200  0.32923400  0.10296900  1
  O  O5  1  0.59478100  0.65747300  0.93002700  1
  O  O6  1  0.40519900  0.32324600  0.07009200  1
  O  O7  1  0.40522000  0.65747300  0.06997300  1
  O  O8  1  0.59480100  0.32324600  0.92990800  1
