# generated using pymatgen
data_ZnH4C17NO4F5
_symmetry_space_group_name_H-M   'P 1'
_cell_length_a   16.02737000
_cell_length_b   11.01514300
_cell_length_c   9.84255600
_cell_angle_alpha   90.00017600
_cell_angle_beta   90.00918100
_cell_angle_gamma   90.00438600
_symmetry_Int_Tables_number   1
_chemical_formula_structural   ZnH4C17NO4F5
_chemical_formula_sum   'Zn2 H8 C34 N2 O8 F10'
_cell_volume   1737.64193952
_cell_formula_units_Z   2
loop_
 _symmetry_equiv_pos_site_id
 _symmetry_equiv_pos_as_xyz
  1  'x, y, z'
loop_
 _atom_site_type_symbol
 _atom_site_label
 _atom_site_symmetry_multiplicity
 _atom_site_fract_x
 _atom_site_fract_y
 _atom_site_fract_z
 _atom_site_occupancy
  Zn  Zn1  1  0.49836900  0.49920200  0.65510200  1
  Zn  Zn2  1  0.49673000  0.50033200  0.34606400  1
  H  H1  1  0.05287700  0.68509800  0.38644700  1
  H  H2  1  0.04635600  0.50341800  0.73607000  1
  H  H3  1  0.58621800  0.19355300  0.74358100  1
  H  H4  1  0.43566900  0.80988200  0.76515100  1
  H  H5  1  0.49048800  0.88934600  0.28903600  1
  H  H6  1  0.30513800  0.19609100  0.85826000  1
  H  H7  1  0.39290700  0.33235400  0.74891300  1
  H  H8  1  0.58520000  0.63628700  0.88003100  1
  C  C1  1  0.50864200  0.26105300  0.50135600  1
  C  C2  1  0.33430000  0.49355400  0.50343100  1
  C  C3  1  0.49042800  0.73826100  0.50139800  1
  C  C4  1  0.66029100  0.51109800  0.49772400  1
  C  C5  1  0.96813600  0.40952500  0.56265800  1
  C  C6  1  0.02333800  0.40793100  0.43861000  1
  C  C7  1  0.24477100  0.49497100  0.50412400  1
  C  C8  1  0.74981800  0.51248700  0.49697800  1
  C  C9  1  0.02395400  0.50393500  0.62946000  1
  C  C10  1  0.07839300  0.50265600  0.50306900  1
  C  C11  1  0.97178500  0.60264200  0.56282200  1
  C  C12  1  0.91625400  0.50837200  0.49862900  1
  C  C13  1  0.02749900  0.60345500  0.43782000  1
  C  C14  1  0.97159400  0.50706900  0.37479400  1
  C  C15  1  0.16961300  0.49782700  0.50393500  1
  C  C16  1  0.82499900  0.51151300  0.49732300  1
  C  C17  1  0.54966700  0.11146100  0.74358700  1
  C  C18  1  0.53884400  0.05485500  0.86653300  1
  C  C19  1  0.49513100  0.94837200  0.87246100  1
  C  C20  1  0.47287300  0.89059700  0.75421400  1
  C  C21  1  0.49342100  0.93968600  0.62792000  1
  C  C22  1  0.51852700  0.06036500  0.62444900  1
  C  C23  1  0.51296200  0.12586800  0.50280000  1
  C  C24  1  0.50108700  0.06136300  0.38325700  1
  C  C25  1  0.49427700  0.93652800  0.38502700  1
  C  C26  1  0.48907600  0.87340100  0.50606900  1
  C  C27  1  0.38936300  0.33072900  0.12976100  1
  C  C28  1  0.34076100  0.25366400  0.05476400  1
  C  C29  1  0.34349500  0.25684800  0.91775700  1
  C  C30  1  0.39536600  0.33728200  0.85551600  1
  C  C31  1  0.44622500  0.41769800  0.92692300  1
  C  C32  1  0.44364000  0.41600600  0.06891000  1
  C  C33  1  0.54246200  0.57248500  0.07305300  1
  C  C34  1  0.54474700  0.57292800  0.93192500  1
  N  N1  1  0.49255700  0.49503900  0.14201200  1
  N  N2  1  0.49711300  0.49600500  0.85911700  1
  O  O1  1  0.50440000  0.31899800  0.61618400  1
  O  O2  1  0.50527300  0.32003800  0.38619700  1
  O  O3  1  0.37397300  0.49521400  0.61848900  1
  O  O4  1  0.37297100  0.49557500  0.38752900  1
  O  O5  1  0.49469500  0.67967600  0.61772400  1
  O  O6  1  0.49230700  0.68190200  0.38169300  1
  O  O7  1  0.62247700  0.50742000  0.61682500  1
  O  O8  1  0.62130400  0.51105300  0.37948200  1
  F  F1  1  0.05153400  0.30485500  0.37304800  1
  F  F2  1  0.47716900  0.89728900  0.99420900  1
  F  F3  1  0.59156700  0.65136600  0.14201100  1
  F  F4  1  0.37964700  0.31531600  0.26304200  1
  F  F5  1  0.28972900  0.17370500  0.11831500  1
  F  F6  1  0.93621300  0.30750600  0.62572200  1
  F  F7  1  0.94334700  0.50680900  0.24212400  1
  F  F8  1  0.94283600  0.70539000  0.62815800  1
  F  F9  1  0.49873000  0.11836300  0.26139400  1
  F  F10  1  0.56748000  0.10740900  0.98191200  1
