# Generated by REPEAT Assigner based on pymatgen
data_DB0-m3_o7_o23_f0_nbo.sym.23
_audit_creation_date              2022-05-24
_audit_creation_method            REPEAT_Assigner
_cell_length_a                    47.833207
_cell_length_b                    35.546635
_cell_length_c                    31.976073
_cell_angle_alpha                 90.000000
_cell_angle_beta                  132.184047
_cell_angle_gamma                 90.000000
_cell_volume                      40287.135666
_symmetry_space_group_name_H-M    P1
_symmetry_Int_Tables_number       1
loop_
    _symmetry_equiv_pos_site_id
    _symmetry_equiv_pos_as_xyz
    1  x,y,z
loop_
    _atom_site_type_symbol
    _atom_site_label
    _atom_site_fract_x
    _atom_site_fract_y
    _atom_site_fract_z
    _atom_type_partial_charge
    O   O1    0.056158  0.030045  0.558536  -0.659263
    O   O2    0.943821  0.027797  0.439368  -0.663807
    O   O3    0.556158  0.530045  0.558536  -0.659195
    O   O4    0.443821  0.527797  0.439368  -0.663760
    O   O5    0.056057  0.965207  0.560609  -0.666987
    O   O6    0.943718  0.962949  0.441064  -0.641012
    O   O7    0.556057  0.465207  0.560609  -0.666954
    O   O8    0.443718  0.462949  0.441064  -0.641049
    C   C1    0.073659  0.997630  0.578814  0.576655
    C   C2    0.926214  0.995332  0.420985  0.553184
    C   C3    0.573659  0.497630  0.578814  0.576552
    C   C4    0.426214  0.495332  0.420985  0.553168
    O   O9    0.003546  0.029773  0.441124  -0.694962
    O   O10   0.997918  0.028159  0.560009  -0.708645
    O   O11   0.503546  0.529773  0.441124  -0.695028
    O   O12   0.497918  0.528159  0.560009  -0.708584
    O   O13   0.002134  0.964826  0.439944  -0.725555
    O   O14   0.996159  0.963217  0.558478  -0.708269
    O   O15   0.502134  0.464826  0.439944  -0.725586
    O   O16   0.496159  0.463217  0.558478  -0.708283
    C   C5    0.003690  0.997239  0.421909  0.772205
    C   C6    0.996184  0.995762  0.577861  0.764844
    C   C7    0.503690  0.497239  0.421909  0.772301
    C   C8    0.496184  0.495762  0.577861  0.764861
    Zn  Zn1   0.999748  0.039093  0.499676  1.342221
    Zn  Zn2   0.499748  0.539093  0.499676  1.342174
    Zn  Zn3   0.000132  0.953906  0.500108  1.361241
    Zn  Zn4   0.500132  0.453906  0.500108  1.361278
    C   C9    0.022991  0.032961  0.296876  -0.198362
    C   C10   0.976922  0.032151  0.702784  -0.210118
    C   C11   0.522991  0.532961  0.296876  -0.198356
    C   C12   0.476922  0.532151  0.702784  -0.210153
    C   C13   0.024079  0.963412  0.297065  -0.271159
    C   C14   0.976014  0.962602  0.703093  -0.258519
    C   C15   0.524079  0.463412  0.297065  -0.271198
    C   C16   0.476014  0.462602  0.703093  -0.258373
    C   C17   0.025857  0.965510  0.251538  -0.138518
    C   C18   0.974280  0.964865  0.748654  -0.150043
    C   C19   0.525857  0.465510  0.251538  -0.138459
    C   C20   0.474280  0.464865  0.748654  -0.150081
    H   H1    0.048096  0.038798  0.261048  0.007848
    H   H2    0.951853  0.038135  0.738648  0.008741
    H   H3    0.548096  0.538798  0.261048  0.007853
    H   H4    0.451853  0.538136  0.738648  0.008721
    H   H5    0.053197  0.032366  0.336224  0.067449
    H   H6    0.946711  0.031449  0.663463  0.068113
    H   H7    0.553197  0.532366  0.336224  0.067448
    H   H8    0.446711  0.531449  0.663463  0.068091
    H   H9    0.008741  0.937598  0.291144  0.064062
    H   H10   0.991409  0.936793  0.709166  0.058555
    H   H11   0.508741  0.437598  0.291144  0.064070
    H   H12   0.491409  0.436793  0.709166  0.058487
    H   H13   0.053116  0.962409  0.339089  0.094771
    H   H14   0.946967  0.961479  0.661100  0.091921
    H   H15   0.553116  0.462409  0.339089  0.094776
    H   H16   0.446967  0.461479  0.661100  0.091880
    H   H17   0.055573  0.969225  0.271361  0.006488
    H   H18   0.944565  0.968536  0.728854  0.008752
    H   H19   0.555573  0.469225  0.271361  0.006479
    H   H20   0.444565  0.468536  0.728854  0.008752
    H   H21   0.014710  0.939026  0.226811  0.048824
    H   H22   0.985515  0.938461  0.773571  0.052856
    H   H23   0.514710  0.439026  0.226811  0.048812
    H   H24   0.485515  0.438461  0.773571  0.052880
    C   C21   0.001211  0.999431  0.128040  -0.094425
    C   C22   0.998903  0.999158  0.871946  -0.094382
    C   C23   0.501211  0.499431  0.128040  -0.094474
    C   C24   0.498903  0.499158  0.871946  -0.094562
    C   C25   0.003632  0.997704  0.293259  0.821048
    C   C26   0.996355  0.996884  0.706613  0.839109
    C   C27   0.503632  0.497704  0.293259  0.821043
    C   C28   0.496355  0.496884  0.706613  0.839266
    C   C29   0.019691  0.034796  0.246348  -0.117531
    C   C30   0.980257  0.034163  0.753335  -0.111429
    C   C31   0.519691  0.534796  0.246348  -0.117541
    C   C32   0.480257  0.534163  0.753335  -0.111284
    C   C33   0.002489  0.998548  0.212949  0.718849
    C   C34   0.997574  0.998019  0.786990  0.709376
    C   C35   0.502489  0.498548  0.212949  0.718827
    C   C36   0.497574  0.498019  0.786990  0.709069
    C   C37   0.962606  0.994817  0.189490  -0.149483
    C   C38   0.037452  0.994337  0.810412  -0.157320
    C   C39   0.462606  0.494817  0.189490  -0.149476
    C   C40   0.537452  0.494337  0.810412  -0.157132
    C   C41   0.963137  0.997231  0.237340  -0.301497
    C   C42   0.036868  0.996571  0.762497  -0.303841
    C   C43   0.463137  0.497231  0.237340  -0.301537
    C   C44   0.536868  0.496571  0.762497  -0.304086
    C   C45   0.001810  0.999052  0.166393  -0.463595
    C   C46   0.998287  0.998677  0.833578  -0.458969
    C   C47   0.501810  0.499052  0.166393  -0.463558
    C   C48   0.498287  0.498677  0.833578  -0.458717
    C   C49   0.004176  0.997300  0.339665  -0.461627
    C   C50   0.995762  0.996293  0.660163  -0.474278
    C   C51   0.504176  0.497300  0.339665  -0.461619
    C   C52   0.495762  0.496293  0.660163  -0.474161
    C   C53   0.004248  0.997160  0.377485  -0.094896
    C   C54   0.995651  0.995959  0.622308  -0.085108
    C   C55   0.504248  0.497160  0.377485  -0.094921
    C   C56   0.495651  0.495959  0.622308  -0.085271
    H   H25   0.948670  0.023338  0.232964  0.035127
    H   H26   0.051259  0.022675  0.766654  0.031284
    H   H27   0.448670  0.523338  0.232964  0.035134
    H   H28   0.551259  0.522675  0.766654  0.031318
    H   H29   0.948150  0.972616  0.235625  0.051705
    H   H30   0.051904  0.971944  0.764356  0.058904
    H   H31   0.448150  0.472616  0.235625  0.051716
    H   H32   0.551904  0.471944  0.764356  0.058941
    H   H33   0.944765  0.017727  0.158810  0.081353
    H   H34   0.055241  0.017344  0.840911  0.084391
    H   H35   0.444765  0.517727  0.158810  0.081357
    H   H36   0.555241  0.517344  0.840911  0.084365
    H   H37   0.009515  0.058160  0.297291  0.045900
    H   H38   0.990325  0.057332  0.702170  0.048541
    H   H39   0.509515  0.558160  0.297291  0.045909
    H   H40   0.490325  0.557332  0.702170  0.048523
    H   H41   0.001487  0.058867  0.219154  0.036565
    H   H42   0.998401  0.058316  0.780345  0.036024
    H   H43   0.501487  0.558867  0.219154  0.036567
    H   H44   0.498401  0.558316  0.780345  0.036001
    H   H45   0.950680  0.967329  0.167809  0.064284
    H   H46   0.049464  0.966919  0.832293  0.066415
    H   H47   0.450680  0.467329  0.167809  0.064283
    H   H48   0.549464  0.466919  0.832293  0.066393
    C   C57   0.327104  0.001449  0.867810  -0.231726
    C   C58   0.672783  0.999050  0.131794  -0.232396
    C   C59   0.827104  0.501449  0.867810  -0.231675
    C   C60   0.172783  0.499050  0.131794  -0.232361
    H   H49   0.312244  0.002137  0.882390  0.166551
    H   H50   0.687645  0.998246  0.117221  0.166704
    H   H51   0.812244  0.502137  0.882390  0.166541
    H   H52   0.187645  0.498246  0.117221  0.166695
    C   C61   0.365930  0.001151  0.906180  -0.131695
    C   C62   0.633956  0.998965  0.093433  -0.130691
    C   C63   0.865930  0.501151  0.906180  -0.131773
    C   C64   0.133956  0.498965  0.093433  -0.130770
    H   H53   0.381014  0.001665  0.950685  0.139783
    H   H54   0.618872  0.998132  0.048937  0.140031
    H   H55   0.881014  0.501665  0.950685  0.139795
    H   H56   0.118872  0.498131  0.048937  0.140048
    C   C65   0.384946  0.000171  0.887535  0.057061
    C   C66   0.614939  0.999859  0.112079  0.054519
    C   C67   0.884946  0.500171  0.887535  0.057154
    C   C68   0.114939  0.499859  0.112079  0.054620
    C   C69   0.364781  0.999537  0.830258  -0.132882
    C   C70   0.635103  0.000915  0.169343  -0.132898
    C   C71   0.864781  0.499537  0.830258  -0.132915
    C   C72   0.135103  0.500915  0.169343  -0.132930
    H   H57   0.378962  0.998773  0.814608  0.125118
    H   H58   0.620921  0.001635  0.184993  0.124606
    H   H59   0.878962  0.498773  0.814608  0.125134
    H   H60   0.120921  0.501635  0.184993  0.124635
    C   C73   0.325952  0.999843  0.792065  -0.195325
    C   C74   0.673933  0.001001  0.207527  -0.193569
    C   C75   0.825952  0.499843  0.792065  -0.195324
    C   C76   0.173933  0.501001  0.207527  -0.193608
    H   H61   0.310192  0.999275  0.747302  0.154018
    H   H62   0.689692  0.001729  0.252286  0.153644
    H   H63   0.810192  0.499275  0.747302  0.154020
    H   H64   0.189692  0.501729  0.252286  0.153654
    C   C77   0.307196  0.000796  0.810882  0.281801
    C   C78   0.692690  0.000054  0.188712  0.283843
    C   C79   0.807196  0.500796  0.810882  0.281786
    C   C80   0.192690  0.500054  0.188712  0.283860
    C   C81   0.266876  0.000782  0.771189  -0.179713
    C   C82   0.733008  0.999741  0.228418  -0.185565
    C   C83   0.766876  0.500782  0.771189  -0.179730
    C   C84   0.233008  0.499741  0.228418  -0.185568
    C   C85   0.232984  0.000550  0.737962  -0.174534
    C   C86   0.766898  0.999236  0.261674  -0.166528
    C   C87   0.732984  0.500550  0.737962  -0.174508
    C   C88   0.266898  0.499236  0.261674  -0.166539
    C   C89   0.174480  0.975174  0.706488  -0.180945
    C   C90   0.825231  0.971941  0.294880  -0.168787
    C   C91   0.674480  0.475174  0.706488  -0.180938
    C   C92   0.325231  0.471941  0.294880  -0.168735
    H   H65   0.191239  0.957046  0.743095  0.146487
    H   H66   0.808345  0.952810  0.259492  0.141161
    H   H67   0.691239  0.457046  0.743095  0.146486
    H   H68   0.308345  0.452810  0.259492  0.141148
    C   C93   0.135543  0.974024  0.668923  -0.179468
    C   C94   0.864161  0.970455  0.332522  -0.195075
    C   C95   0.635543  0.474024  0.668923  -0.179476
    C   C96   0.364161  0.470455  0.332522  -0.195122
    C   C97   0.114892  0.997991  0.622234  0.119741
    C   C98   0.884975  0.995753  0.377595  0.133414
    C   C99   0.614892  0.497991  0.622234  0.119752
    C   C100  0.384975  0.495753  0.377595  0.133423
    C   C101  0.133602  0.023368  0.615720  -0.178075
    C   C102  0.866426  0.022650  0.382412  -0.162864
    C   C103  0.633602  0.523368  0.615720  -0.178066
    C   C104  0.366426  0.522650  0.382412  -0.162843
    H   H69   0.117880  0.042111  0.579814  0.138925
    H   H70   0.882258  0.042430  0.417049  0.129365
    H   H71   0.617880  0.542111  0.579814  0.138914
    H   H72   0.382258  0.542430  0.417049  0.129353
    C   C105  0.172351  0.024262  0.653618  -0.193141
    C   C106  0.827685  0.023847  0.344455  -0.197904
    C   C107  0.672351  0.524262  0.653618  -0.193133
    C   C108  0.327685  0.523847  0.344455  -0.197933
    H   H73   0.186778  0.043832  0.647776  0.147548
    H   H74   0.813389  0.044646  0.348984  0.146048
    H   H75   0.686778  0.543832  0.647776  0.147550
    H   H76   0.313389  0.544646  0.348984  0.146059
    C   C109  0.192678  0.999941  0.698629  0.270768
    C   C110  0.807198  0.998290  0.301067  0.265905
    C   C111  0.692678  0.499941  0.698629  0.270745
    C   C112  0.307198  0.498290  0.301067  0.265916
    O   O17   0.031646  0.055680  0.030114  -0.667502
    O   O18   0.966625  0.055835  0.967824  -0.648993
    O   O19   0.531646  0.555680  0.030114  -0.667516
    O   O20   0.466625  0.555835  0.967824  -0.648991
    C   C113  0.999164  0.073376  0.998933  0.574685
    C   C114  0.499164  0.573376  0.998933  0.574744
    O   O21   0.032679  0.998938  0.094446  -0.706774
    O   O22   0.967451  0.000464  0.905553  -0.705808
    O   O23   0.532679  0.498938  0.094446  -0.706793
    O   O24   0.467451  0.500464  0.905553  -0.705769
    O   O25   0.967586  0.000649  0.030437  -0.771373
    O   O26   0.032545  0.998771  0.969565  -0.772052
    O   O27   0.467586  0.500649  0.030437  -0.771401
    O   O28   0.532545  0.498771  0.969565  -0.772063
    C   C115  0.000457  0.999760  0.082282  0.836021
    C   C116  0.999673  0.999581  0.917718  0.835081
    C   C117  0.500457  0.499761  0.082282  0.836069
    C   C118  0.499673  0.499581  0.917718  0.835088
    Zn  Zn5   0.042780  0.999776  0.042211  1.355746
    Zn  Zn6   0.957356  0.999609  0.957796  1.355806
    Zn  Zn7   0.542780  0.499776  0.042211  1.355757
    Zn  Zn8   0.457356  0.499609  0.957796  1.355809
    O   O29   0.033487  0.943554  0.032168  -0.652388
    O   O30   0.968515  0.943712  0.969905  -0.673654
    O   O31   0.533487  0.443555  0.032168  -0.652394
    O   O32   0.468515  0.443712  0.969905  -0.673696
    C   C119  0.000971  0.925961  0.001069  0.605923
    C   C120  0.500971  0.425961  0.001069  0.605966
    O   O33   0.500067  0.943604  0.962845  -0.687808
    O   O34   0.499582  0.943743  0.034465  -0.704094
    O   O35   0.000067  0.443604  0.962845  -0.687745
    O   O36   0.999582  0.443743  0.034465  -0.704066
    C   C121  0.499770  0.926052  0.998630  0.657473
    C   C122  0.999770  0.426052  0.998630  0.657315
    O   O37   0.443238  0.999069  0.908957  -0.688041
    O   O38   0.556649  0.000547  0.090671  -0.686756
    O   O39   0.943238  0.499069  0.908957  -0.688059
    O   O40   0.056649  0.500547  0.090671  -0.686765
    O   O41   0.444308  0.000689  0.982127  -0.720754
    O   O42   0.555577  0.998865  0.017499  -0.722286
    O   O43   0.944308  0.500689  0.982127  -0.720672
    O   O44   0.055577  0.498865  0.017499  -0.722218
    C   C123  0.426176  0.999889  0.928198  0.685596
    C   C124  0.573709  0.999709  0.071428  0.687505
    C   C125  0.926176  0.499889  0.928198  0.685515
    C   C126  0.073709  0.499709  0.071428  0.687419
    Zn  Zn9   0.499080  0.999830  0.951615  1.331301
    Zn  Zn10  0.500806  0.999645  0.047992  1.329802
    Zn  Zn11  0.999080  0.499830  0.951615  1.331268
    Zn  Zn12  0.000806  0.499645  0.047992  1.329761
    O   O45   0.500299  0.055733  0.965126  -0.704532
    O   O46   0.499827  0.055871  0.036778  -0.688217
    O   O47   0.000299  0.555733  0.965126  -0.704468
    O   O48   0.999827  0.555871  0.036778  -0.688134
    C   C127  0.500119  0.073412  0.000980  0.659967
    C   C128  0.000119  0.573412  0.000980  0.659811
    C   C129  0.499922  0.826323  0.961729  -0.211971
    C   C130  0.499289  0.826464  0.035660  -0.213997
    C   C131  0.999922  0.326323  0.961729  -0.211935
    C   C132  0.999289  0.326464  0.035660  -0.213958
    H   H77   0.500151  0.811036  0.932739  0.146602
    H   H78   0.499018  0.811289  0.064678  0.146849
    H   H79   0.000151  0.311036  0.932739  0.146593
    H   H80   0.999018  0.311289  0.064678  0.146841
    C   C133  0.499977  0.865107  0.961608  -0.130283
    C   C134  0.499344  0.865248  0.035709  -0.128536
    C   C135  0.999977  0.365107  0.961608  -0.130358
    C   C136  0.999344  0.365248  0.035709  -0.128622
    H   H81   0.500253  0.879645  0.932217  0.122094
    H   H82   0.499113  0.879897  0.065078  0.122930
    H   H83   0.000253  0.379645  0.932217  0.122108
    H   H84   0.999113  0.379897  0.065078  0.122953
    C   C137  0.499690  0.884805  0.998643  0.088939
    C   C138  0.999690  0.384805  0.998643  0.089096
    C   C139  0.499581  0.807009  0.998714  0.292862
    C   C140  0.999581  0.307009  0.998714  0.292835
    C   C141  0.499524  0.766660  0.998754  -0.180423
    C   C142  0.999524  0.266660  0.998754  -0.180425
    C   C143  0.999472  0.232774  0.998787  -0.141460
    C   C144  0.499472  0.732774  0.998787  -0.141477
    C   C145  0.965756  0.173108  0.966678  -0.179871
    C   C146  0.032968  0.172971  0.031000  -0.183130
    C   C147  0.465756  0.673108  0.966678  -0.179878
    C   C148  0.532968  0.672971  0.031000  -0.183131
    H   H85   0.939416  0.188393  0.941430  0.134500
    H   H86   0.059366  0.188149  0.056222  0.135455
    H   H87   0.439416  0.688393  0.941430  0.134500
    H   H88   0.559366  0.688149  0.056222  0.135457
    C   C149  0.965604  0.134325  0.966640  -0.162547
    C   C150  0.032969  0.134187  0.031109  -0.161879
    C   C151  0.465604  0.634325  0.966640  -0.162536
    C   C152  0.532969  0.634187  0.031109  -0.161885
    H   H89   0.938862  0.119788  0.941090  0.135937
    H   H90   0.059653  0.119539  0.056685  0.137419
    H   H91   0.438862  0.619788  0.941091  0.135933
    H   H92   0.559653  0.619539  0.056685  0.137418
    C   C153  0.999248  0.114627  0.998894  0.139065
    C   C154  0.499248  0.614627  0.998894  0.139039
    C   C155  0.999399  0.192425  0.998821  0.252913
    C   C156  0.499399  0.692425  0.998821  0.252932
    C   C157  0.500011  0.173102  0.037946  -0.218463
    C   C158  0.500724  0.172973  0.964090  -0.220003
    C   C159  0.000011  0.673102  0.037946  -0.218430
    C   C160  0.000724  0.672973  0.964090  -0.219965
    H   H93   0.499768  0.188396  0.066915  0.157004
    H   H94   0.501043  0.188166  0.935132  0.156854
    H   H95   0.999768  0.688396  0.066915  0.156994
    H   H96   0.001043  0.688166  0.935132  0.156848
    C   C161  0.499918  0.134327  0.038021  -0.139083
    C   C162  0.500627  0.134197  0.963988  -0.136730
    C   C163  0.999918  0.634327  0.038021  -0.139129
    C   C164  0.000627  0.634197  0.963988  -0.136794
    H   H97   0.499597  0.119786  0.067364  0.122426
    H   H98   0.500877  0.119553  0.934634  0.122786
    H   H99   0.999597  0.619786  0.067364  0.122431
    H   H100  0.000877  0.619553  0.934634  0.122798
    C   C165  0.500224  0.114645  0.000997  0.096733
    C   C166  0.000224  0.614645  0.000997  0.096847
    C   C167  0.500415  0.192401  0.001025  0.323697
    C   C168  0.000415  0.692401  0.001025  0.323659
    C   C169  0.500514  0.232716  0.001040  -0.294674
    C   C170  0.000514  0.732716  0.001040  -0.294661
    C   C171  0.000596  0.766597  0.001054  0.003870
    C   C172  0.500596  0.266597  0.001054  0.003873
    C   C173  0.966751  0.826247  0.968433  0.082012
    C   C174  0.034724  0.826081  0.033716  0.085096
    C   C175  0.466751  0.326247  0.968433  0.082041
    C   C176  0.534724  0.326081  0.033716  0.085123
    C   C177  0.967096  0.865278  0.968685  -0.284831
    C   C178  0.034565  0.865115  0.033478  -0.283967
    C   C179  0.467096  0.365278  0.968685  -0.284858
    C   C180  0.534565  0.365115  0.033478  -0.284002
    H   H101  0.941319  0.881249  0.943895  0.152905
    H   H102  0.060416  0.880961  0.058271  0.148655
    H   H103  0.441319  0.381249  0.943895  0.152915
    H   H104  0.560416  0.380961  0.058271  0.148663
    C   C181  0.000876  0.884634  0.001082  0.143381
    C   C182  0.500876  0.384634  0.001082  0.143401
    C   C183  0.000692  0.807022  0.001068  -0.090315
    C   C184  0.500692  0.307022  0.001068  -0.090333
    C   C185  0.117658  0.948446  0.682570  0.268311
    C   C186  0.101124  0.971032  0.701858  -0.213516
    H   H105  0.123632  0.988407  0.738852  0.047828
    H   H106  0.078213  0.989654  0.667766  0.129242
    H   H107  0.089588  0.951497  0.714093  0.031803
    H   H108  0.096117  0.929949  0.646701  -0.015856
    H   H109  0.139495  0.929641  0.717828  -0.038361
    C   C187  0.881857  0.942959  0.320603  0.284805
    C   C188  0.898691  0.963285  0.300147  -0.234340
    H   H110  0.876541  0.980525  0.262653  0.052395
    H   H111  0.922205  0.981775  0.333480  0.135877
    H   H112  0.909495  0.942289  0.288323  0.039178
    H   H113  0.903172  0.925092  0.357598  -0.025694
    H   H114  0.859853  0.923656  0.286455  -0.040012
    C   C189  0.617658  0.448446  0.682570  0.268322
    C   C190  0.601124  0.471032  0.701858  -0.213476
    H   H115  0.623632  0.488407  0.738852  0.047818
    H   H116  0.578213  0.489654  0.667766  0.129245
    H   H117  0.589588  0.451497  0.714093  0.031791
    H   H118  0.596117  0.429949  0.646701  -0.015858
    H   H119  0.639495  0.429641  0.717828  -0.038369
    C   C191  0.381857  0.442959  0.320603  0.284809
    C   C192  0.398691  0.463285  0.300147  -0.234325
    H   H120  0.376541  0.480525  0.262653  0.052387
    H   H121  0.422205  0.481775  0.333480  0.135886
    H   H122  0.409495  0.442289  0.288323  0.039171
    H   H123  0.403172  0.425092  0.357598  -0.025681
    H   H124  0.359853  0.423656  0.286455  -0.040018
    C   C193  0.930905  0.803483  0.934049  0.225777
    C   C194  0.894958  0.826687  0.899472  -0.316798
    H   H125  0.894455  0.844342  0.927570  0.074320
    H   H126  0.892411  0.844247  0.868371  0.073578
    H   H127  0.870482  0.807287  0.876001  0.065238
    H   H128  0.929385  0.785278  0.904389  -0.012253
    H   H129  0.931405  0.785372  0.962805  -0.000672
    C   C195  0.070462  0.803143  0.068090  0.224384
    C   C196  0.106518  0.826172  0.102685  -0.320224
    H   H130  0.107109  0.843724  0.074599  0.077011
    H   H131  0.109143  0.843819  0.133789  0.074831
    H   H132  0.130901  0.806652  0.126153  0.065427
    H   H133  0.071894  0.785027  0.097740  -0.011565
    H   H134  0.069880  0.784939  0.039329  -0.000673
    C   C197  0.430905  0.303483  0.934049  0.225752
    C   C198  0.394958  0.326687  0.899472  -0.316794
    H   H135  0.394455  0.344342  0.927570  0.074318
    H   H136  0.392411  0.344247  0.868371  0.073579
    H   H137  0.370482  0.307287  0.876001  0.065239
    H   H138  0.429385  0.285278  0.904389  -0.012248
    H   H139  0.431405  0.285372  0.962805  -0.000663
    C   C199  0.570462  0.303143  0.068090  0.224380
    C   C200  0.606518  0.326172  0.102685  -0.320216
    H   H140  0.607109  0.343724  0.074599  0.077009
    H   H141  0.609143  0.343819  0.133789  0.074827
    H   H142  0.630901  0.306652  0.126153  0.065427
    H   H143  0.571894  0.285027  0.097740  -0.011568
    H   H144  0.569880  0.284939  0.039329  -0.000673
