# Generated by REPEAT Assigner based on pymatgen
data_DB0-m29_o88_o111_f0_pts.sym.31
_audit_creation_date              2022-05-24
_audit_creation_method            REPEAT_Assigner
_cell_length_a                    15.441751
_cell_length_b                    16.943178
_cell_length_c                    11.896449
_cell_angle_alpha                 72.425554
_cell_angle_beta                  101.156576
_cell_angle_gamma                 111.633219
_cell_volume                      2746.334515
_symmetry_space_group_name_H-M    P1
_symmetry_Int_Tables_number       1
loop_
    _symmetry_equiv_pos_site_id
    _symmetry_equiv_pos_as_xyz
    1  x,y,z
loop_
    _atom_site_type_symbol
    _atom_site_label
    _atom_site_fract_x
    _atom_site_fract_y
    _atom_site_fract_z
    _atom_type_partial_charge
    C   C1   0.814635  0.049280  0.143485  -0.141059
    H   H1   0.810693  0.058936  0.227860  0.148525
    C   C2   0.898842  0.052858  0.116308  -0.223716
    H   H2   0.960328  0.066920  0.178091  0.173688
    C   C3   0.903501  0.033411  0.013956  0.154147
    C   C4   0.825890  0.019532  0.932848  -0.194365
    H   H3   0.832941  0.010066  0.849684  0.127033
    C   C5   0.740948  0.017787  0.957640  0.056803
    C   C6   0.734694  0.028284  0.067439  0.029047
    C   C7   0.992667  0.032649  0.989388  0.006462
    C   C8   0.005783  0.962100  0.975454  -0.469611
    H   H4   0.052139  0.092500  0.985475  0.076966
    C   C9   0.109271  0.965937  0.840377  -0.258484
    H   H5   0.049709  0.955389  0.775005  0.156178
    C   C10  0.196062  0.978654  0.811549  -0.059286
    H   H6   0.203685  0.978465  0.723220  0.122603
    C   C11  0.273736  0.994917  0.891970  -0.066519
    C   C12  0.263962  0.993980  0.007151  0.200342
    C   C13  0.175387  0.984670  0.033810  -0.554683
    C   C14  0.098799  0.970811  0.949929  0.493340
    O   O1   0.536640  0.132098  0.618276  -0.595336
    C   C15  0.481003  0.137395  0.519826  0.632103
    O   O2   0.429027  0.091154  0.846997  -0.502926
    O   O3   0.407800  0.069299  0.505121  -0.516134
    O   O4   0.373439  0.962740  0.792682  -0.569042
    C   C16  0.363890  0.014631  0.848606  0.615128
    Fe  Fe1  0.496481  0.013695  0.727275  1.378417
    O   O5   0.583732  0.018020  0.875763  -0.422557
    O   O6   0.675305  0.003988  0.760922  -0.459505
    C   C17  0.662770  0.010367  0.863362  0.468824
    O   O7   0.496064  0.938687  0.624841  -0.394763
    O   O8   0.490062  0.843132  0.805093  -0.475580
    C   C18  0.494602  0.860599  0.690738  0.477348
    O   O9   0.516773  0.093062  0.331605  -0.445463
    O   O10  0.494862  0.178134  0.148790  -0.502758
    C   C19  0.502635  0.165340  0.264142  0.542592
    O   O11  0.429376  0.017341  0.077978  -0.334036
    O   O12  0.326849  0.968217  0.214108  -0.393523
    C   C20  0.342860  0.995017  0.102178  0.369115
    O   O13  0.599230  0.956968  0.451074  -0.508488
    O   O14  0.638693  0.065137  0.166659  -0.589482
    C   C21  0.645535  0.012265  0.110364  0.586698
    O   O15  0.469337  0.898951  0.335726  -0.573366
    C   C22  0.523541  0.891227  0.435307  0.644778
    O   O16  0.576550  0.938644  0.107482  -0.506207
    Fe  Fe2  0.514559  0.017689  0.228618  1.376306
    C   C23  0.668389  0.489051  0.484424  -0.176155
    C   C24  0.749953  0.544960  0.526073  -0.064195
    C   C25  0.747882  0.613151  0.563706  -0.070219
    C   C26  0.664262  0.625884  0.559735  -0.192333
    C   C27  0.581069  0.569919  0.517879  0.169286
    C   C28  0.583164  0.500823  0.480187  0.182253
    C   C29  0.496354  0.582732  0.513374  -0.289428
    C   C30  0.413747  0.526298  0.471410  0.152141
    C   C31  0.415800  0.457058  0.434019  0.203408
    C   C32  0.500535  0.444309  0.438372  -0.317329
    C   C33  0.328589  0.538335  0.466662  -0.160015
    C   C34  0.246978  0.482271  0.425372  -0.082426
    C   C35  0.248932  0.413636  0.388670  -0.058207
    C   C36  0.332518  0.400778  0.392867  -0.210176
    H   H7   0.674230  0.436646  0.455914  0.116680
    H   H8   0.666974  0.680756  0.590052  0.125246
    H   H9   0.322857  0.591122  0.494389  0.115916
    H   H10  0.329699  0.345515  0.363374  0.135852
    C   C37  0.507840  0.384158  0.277805  -0.291723
    H   H11  0.512259  0.447075  0.216552  0.140005
    C   C38  0.507046  0.316017  0.236988  -0.083487
    H   H12  0.512255  0.328024  0.143665  0.142197
    C   C39  0.500458  0.234493  0.313710  -0.043042
    C   C40  0.494428  0.222390  0.433572  0.060703
    C   C41  0.497253  0.291881  0.473870  -0.338394
    H   H13  0.491551  0.282369  0.566518  0.171005
    C   C42  0.502837  0.372302  0.396228  0.474527
    C   C43  0.503626  0.736156  0.479720  -0.341872
    H   H14  0.512338  0.746747  0.387735  0.161560
    C   C44  0.506572  0.805409  0.520657  0.038720
    C   C45  0.496487  0.791806  0.639950  -0.021602
    C   C46  0.485400  0.708895  0.714962  -0.066249
    H   H15  0.477128  0.695579  0.807658  0.136279
    C   C47  0.484721  0.641096  0.673502  -0.318926
    H   H16  0.477089  0.577198  0.733633  0.143109
    C   C48  0.493991  0.654520  0.555942  0.501391
    H   H17  0.815785  0.535177  0.529106  0.119952
    H   H18  0.812093  0.657050  0.596330  0.123161
    H   H19  0.181190  0.492230  0.421999  0.124089
    H   H20  0.184665  0.369527  0.356515  0.117242
    C   C49  0.933055  0.874405  0.989391  0.811938
    O   O17  0.946097  0.818211  0.957080  -0.549342
    O   O18  0.856803  0.853046  0.046086  -0.231970
    C   C50  0.791776  0.770376  0.063139  -0.078866
    H   H21  0.734927  0.767111  0.110614  0.082599
    H   H22  0.825086  0.721402  0.117168  0.058131
    H   H23  0.761580  0.755575  0.976330  0.074128
    C   C51  0.160663  0.990971  0.148933  0.977568
    O   O19  0.205127  0.057139  0.182843  -0.541786
    O   O20  0.097843  0.923870  0.216738  -0.396940
    C   C52  0.085878  0.926865  0.326481  -0.012882
    H   H24  0.031255  0.865563  0.366778  0.080917
    H   H25  0.063451  0.983613  0.318251  0.018290
    H   H26  0.152452  0.932765  0.384190  0.099719
