# generated using pymatgen
data_Cu3H30(C13O3)4
_symmetry_space_group_name_H-M   'P 1'
_cell_length_a   30.66705600
_cell_length_b   31.79292200
_cell_length_c   21.63344800
_cell_angle_alpha   90.00000000
_cell_angle_beta   135.12195400
_cell_angle_gamma   90.00000000
_symmetry_Int_Tables_number   1
_chemical_formula_structural   Cu3H30(C13O3)4
_chemical_formula_sum   'Cu12 H120 C208 O48'
_cell_volume   14882.87764443
_cell_formula_units_Z   4
loop_
 _symmetry_equiv_pos_site_id
 _symmetry_equiv_pos_as_xyz
  1  'x, y, z'
loop_
 _atom_site_type_symbol
 _atom_site_label
 _atom_site_symmetry_multiplicity
 _atom_site_fract_x
 _atom_site_fract_y
 _atom_site_fract_z
 _atom_site_occupancy
  Cu  Cu1  1  0.43361000  0.00891200  0.43419000  1
  Cu  Cu2  1  0.93361000  0.50891200  0.43419100  1
  Cu  Cu3  1  0.55674200  0.00658600  0.55898000  1
  Cu  Cu4  1  0.05674200  0.50658600  0.55898100  1
  Cu  Cu5  1  0.49882900  0.50805000  0.44185700  1
  Cu  Cu6  1  0.99882900  0.00805000  0.44185500  1
  Cu  Cu7  1  0.49976200  0.50756800  0.56597600  1
  Cu  Cu8  1  0.99976100  0.00756800  0.56597500  1
  Cu  Cu9  1  0.49646300  0.96971100  0.99866800  1
  Cu  Cu10  1  0.50139100  0.05131900  0.00112200  1
  Cu  Cu11  1  0.99646300  0.46971100  0.99866900  1
  Cu  Cu12  1  0.00139100  0.55131900  0.00112300  1
  H  H1  1  0.45022700  0.72974300  0.35826000  1
  H  H2  1  0.43146200  0.28446800  0.35837800  1
  H  H3  1  0.95022700  0.22974300  0.35826000  1
  H  H4  1  0.93146100  0.78446700  0.35837700  1
  H  H5  1  0.59537400  0.73196700  0.61587000  1
  H  H6  1  0.60738900  0.28303500  0.58595300  1
  H  H7  1  0.09537400  0.23196600  0.61586900  1
  H  H8  1  0.10738900  0.78303500  0.58595200  1
  H  H9  1  0.52966900  0.78509500  0.63225500  1
  H  H10  1  0.57696400  0.23109000  0.65703000  1
  H  H11  1  0.02966900  0.28509400  0.63225500  1
  H  H12  1  0.07696500  0.73109000  0.65703000  1
  H  H13  1  0.42561500  0.73222100  0.51387000  1
  H  H14  1  0.47657200  0.28519500  0.58113800  1
  H  H15  1  0.92561500  0.23222100  0.51387000  1
  H  H16  1  0.97657300  0.78519600  0.58113800  1
  H  H17  1  0.38580800  0.78339500  0.37524000  1
  H  H18  1  0.40107600  0.23328500  0.43100200  1
  H  H19  1  0.88580800  0.28339500  0.37524000  1
  H  H20  1  0.90107700  0.73328500  0.43100400  1
  H  H21  1  0.58244000  0.04925400  0.27599300  1
  H  H22  1  0.08244100  0.54925400  0.27599200  1
  H  H23  1  0.39900400  0.94169700  0.08949000  1
  H  H24  1  0.35833400  0.99351000  0.04471100  1
  H  H25  1  0.89900300  0.44169800  0.08948900  1
  H  H26  1  0.85833400  0.49351000  0.04471200  1
  H  H27  1  0.41209900  0.04451300  0.60759500  1
  H  H28  1  0.91210100  0.54451200  0.60759500  1
  H  H29  1  0.41456600  0.04648100  0.72346300  1
  H  H30  1  0.91456600  0.54648100  0.72346400  1
  H  H31  1  0.58550300  0.92879500  0.89408000  1
  H  H32  1  0.63381500  0.97820600  0.94275100  1
  H  H33  1  0.08550400  0.42879600  0.89408300  1
  H  H34  1  0.13381500  0.47820600  0.94275300  1
  H  H35  1  0.58521800  0.92905100  0.78129300  1
  H  H36  1  0.63402600  0.97822600  0.83058800  1
  H  H37  1  0.08521800  0.42905100  0.78129500  1
  H  H38  1  0.13402600  0.47822600  0.83059000  1
  H  H39  1  0.68785400  0.96065600  0.26449500  1
  H  H40  1  0.18785400  0.46065600  0.26449700  1
  H  H41  1  0.69789800  0.09029400  0.12527200  1
  H  H42  1  0.69452200  0.04575300  0.06433600  1
  H  H43  1  0.19789800  0.59029400  0.12527300  1
  H  H44  1  0.19452300  0.54575300  0.06433700  1
  H  H45  1  0.31008500  0.58629500  0.23843200  1
  H  H46  1  0.30684300  0.54212000  0.17702400  1
  H  H47  1  0.81008400  0.08629500  0.23843100  1
  H  H48  1  0.80684200  0.04212000  0.17702200  1
  H  H49  1  0.69397100  0.55191500  0.77918400  1
  H  H50  1  0.19397000  0.05191500  0.77918200  1
  H  H51  1  0.30749900  0.05398000  0.89027800  1
  H  H52  1  0.80749900  0.55398000  0.89028000  1
  H  H53  1  0.30562700  0.93492900  0.72083900  1
  H  H54  1  0.30555300  0.98306000  0.66974000  1
  H  H55  1  0.80562800  0.43492900  0.72084100  1
  H  H56  1  0.80555400  0.48306000  0.66974200  1
  H  H57  1  0.69332000  0.43507800  0.60887300  1
  H  H58  1  0.69308900  0.48297800  0.55714200  1
  H  H59  1  0.19331900  0.93507800  0.60887100  1
  H  H60  1  0.19308800  0.98297800  0.55714000  1
  H  H61  1  0.51945400  0.75792700  0.35504200  1
  H  H62  1  0.59012600  0.78472900  0.34735600  1
  H  H63  1  0.67851000  0.82890500  0.46587400  1
  H  H64  1  0.69618000  0.84601400  0.59306000  1
  H  H65  1  0.62566400  0.81913200  0.60174700  1
  H  H66  1  0.62616900  0.24893500  0.50986600  1
  H  H67  1  0.64724000  0.21866800  0.42943300  1
  H  H68  1  0.56708700  0.17814300  0.29470400  1
  H  H69  1  0.46516200  0.16809300  0.24034000  1
  H  H70  1  0.44338300  0.19837200  0.32047000  1
  H  H71  1  0.01945400  0.25792700  0.35504200  1
  H  H72  1  0.09012500  0.28472900  0.34735600  1
  H  H73  1  0.17851000  0.32890500  0.46587400  1
  H  H74  1  0.19618000  0.34601400  0.59306000  1
  H  H75  1  0.12566500  0.31913200  0.60174800  1
  H  H76  1  0.12616800  0.74893400  0.50986400  1
  H  H77  1  0.14723900  0.71866700  0.42943000  1
  H  H78  1  0.06708500  0.67814200  0.29470200  1
  H  H79  1  0.96516000  0.66809200  0.24033900  1
  H  H80  1  0.94338200  0.69837100  0.32047100  1
  H  H81  1  0.47147800  0.91283200  0.22963800  1
  H  H82  1  0.47740300  0.84363900  0.28162700  1
  H  H83  1  0.40690400  0.82340800  0.29446500  1
  H  H84  1  0.33196900  0.87460100  0.25943800  1
  H  H85  1  0.32432700  0.94410000  0.20712200  1
  H  H86  1  0.27007600  0.95613000  0.03395300  1
  H  H87  1  0.17794700  0.99762800  0.96555400  1
  H  H88  1  0.18825600  0.06744300  0.02362600  1
  H  H89  1  0.29136200  0.09594000  0.14959100  1
  H  H90  1  0.38323300  0.05584100  0.21798200  1
  H  H91  1  0.97147800  0.41283200  0.22963900  1
  H  H92  1  0.97740200  0.34363900  0.28162800  1
  H  H93  1  0.90690300  0.32340800  0.29446600  1
  H  H94  1  0.83196900  0.37460100  0.25943900  1
  H  H95  1  0.82432800  0.44410100  0.20712300  1
  H  H96  1  0.77007800  0.45613100  0.03395600  1
  H  H97  1  0.67794800  0.49762900  0.96555600  1
  H  H98  1  0.68825700  0.56744400  0.02362900  1
  H  H99  1  0.79136300  0.59594100  0.14959400  1
  H  H100  1  0.88323400  0.55584300  0.21798400  1
  H  H101  1  0.35722900  0.41464200  0.37956800  1
  H  H102  1  0.40335100  0.36583000  0.50064500  1
  H  H103  1  0.37956600  0.37245500  0.58737800  1
  H  H104  1  0.30887200  0.42785500  0.55229700  1
  H  H105  1  0.26272300  0.47692800  0.43167000  1
  H  H106  1  0.85722800  0.91464200  0.37956600  1
  H  H107  1  0.90335100  0.86583000  0.50064300  1
  H  H108  1  0.87956600  0.87245500  0.58737600  1
  H  H109  1  0.80887100  0.92785400  0.55229500  1
  H  H110  1  0.76272300  0.97692800  0.43166900  1
  H  H111  1  0.53113300  0.09902400  0.39251700  1
  H  H112  1  0.61335800  0.13982100  0.52498300  1
  H  H113  1  0.72235500  0.12305700  0.61394900  1
  H  H114  1  0.74903200  0.06524600  0.57009200  1
  H  H115  1  0.66711600  0.02387200  0.43839600  1
  H  H116  1  0.03113400  0.59902500  0.39252100  1
  H  H117  1  0.11336100  0.63982100  0.52498800  1
  H  H118  1  0.22235800  0.62305600  0.61395200  1
  H  H119  1  0.24903200  0.56524500  0.57009100  1
  H  H120  1  0.16711200  0.52387100  0.43839200  1
  C  C1  1  0.49610000  0.01122900  0.37888200  1
  C  C2  1  0.99610000  0.51122900  0.37888300  1
  C  C3  1  0.49211100  0.92715900  0.49204400  1
  C  C4  1  0.49828900  0.08837200  0.50286200  1
  C  C5  1  0.99211100  0.42715900  0.49204600  1
  C  C6  1  0.99828900  0.58837200  0.50286400  1
  C  C7  1  0.49429600  0.00652500  0.61427000  1
  C  C8  1  0.99429600  0.50652500  0.61427200  1
  C  C9  1  0.46893600  0.74322300  0.42043800  1
  C  C10  1  0.46408200  0.27186400  0.42606600  1
  C  C11  1  0.96893600  0.24322300  0.42043800  1
  C  C12  1  0.96408100  0.77186400  0.42606500  1
  C  C13  1  0.52549100  0.77069700  0.48567300  1
  C  C14  1  0.51903700  0.24374800  0.46835000  1
  C  C15  1  0.02549100  0.27069700  0.48567300  1
  C  C16  1  0.01903700  0.74374800  0.46835000  1
  C  C17  1  0.49073500  0.88204100  0.49154400  1
  C  C18  1  0.50011400  0.13348700  0.50488900  1
  C  C19  1  0.99073600  0.38204100  0.49154500  1
  C  C20  1  0.00011400  0.63348700  0.50489100  1
  C  C21  1  0.49251500  0.63349800  0.49890600  1
  C  C22  1  0.50601500  0.38206300  0.50899900  1
  C  C23  1  0.99251500  0.13349800  0.49890500  1
  C  C24  1  0.00601500  0.88206300  0.50899700  1
  C  C25  1  0.43334400  0.77117000  0.42959000  1
  C  C26  1  0.44777500  0.24496700  0.46565000  1
  C  C27  1  0.93334400  0.27117000  0.42959100  1
  C  C28  1  0.94777600  0.74496700  0.46565100  1
  C  C29  1  0.49029100  0.79814900  0.49436300  1
  C  C30  1  0.50283100  0.21738200  0.50722100  1
  C  C31  1  0.99029100  0.29814900  0.49436400  1
  C  C32  1  0.00283100  0.71738200  0.50722200  1
  C  C33  1  0.45509700  0.74440800  0.50558000  1
  C  C34  1  0.48905600  0.27209800  0.54784100  1
  C  C35  1  0.95509700  0.24440700  0.50558000  1
  C  C36  1  0.98905700  0.77209900  0.54784100  1
  C  C37  1  0.49073900  0.71734700  0.49662400  1
  C  C38  1  0.50545300  0.29815500  0.50844200  1
  C  C39  1  0.99073900  0.21734700  0.49662400  1
  C  C40  1  0.00545300  0.79815500  0.50844100  1
  C  C41  1  0.51202500  0.77212400  0.57034900  1
  C  C42  1  0.54413100  0.24380700  0.58941900  1
  C  C43  1  0.01202600  0.27212400  0.57035000  1
  C  C44  1  0.04413100  0.74380800  0.58942000  1
  C  C45  1  0.54779300  0.74415400  0.56164800  1
  C  C46  1  0.56075700  0.27073300  0.55018000  1
  C  C47  1  0.04779400  0.24415300  0.56164800  1
  C  C48  1  0.06075600  0.77073300  0.55018000  1
  C  C49  1  0.49026100  0.84415600  0.49250200  1
  C  C50  1  0.50148300  0.17137200  0.50620900  1
  C  C51  1  0.99026200  0.34415600  0.49250300  1
  C  C52  1  0.00148400  0.67137200  0.50621000  1
  C  C53  1  0.49137400  0.67137300  0.49783500  1
  C  C54  1  0.50613200  0.34416300  0.50898300  1
  C  C55  1  0.99137400  0.17137300  0.49783400  1
  C  C56  1  0.00613100  0.84416300  0.50898200  1
  C  C57  1  0.44903100  0.99860500  0.22858200  1
  C  C58  1  0.94903100  0.49860500  0.22858400  1
  C  C59  1  0.49649400  0.01495700  0.31143800  1
  C  C60  1  0.99649500  0.51495700  0.31143900  1
  C  C61  1  0.54482100  0.03431800  0.32742200  1
  C  C62  1  0.04482200  0.53431800  0.32742400  1
  C  C63  1  0.54538500  0.03380900  0.26340800  1
  C  C64  1  0.04538600  0.53380900  0.26341000  1
  C  C65  1  0.49927900  0.01361600  0.18418400  1
  C  C66  1  0.99928000  0.51361600  0.18418600  1
  C  C67  1  0.45221800  0.99646600  0.17047100  1
  C  C68  1  0.95221900  0.49646700  0.17047200  1
  C  C69  1  0.39312500  0.97359100  0.10332200  1
  C  C70  1  0.89312600  0.47359200  0.10332300  1
  C  C71  1  0.38889700  0.97571600  0.17119200  1
  C  C72  1  0.88889700  0.47571600  0.17119400  1
  C  C73  1  0.53813300  0.98640900  0.75978300  1
  C  C74  1  0.03813300  0.48640900  0.75978500  1
  C  C75  1  0.49360200  0.00653000  0.68102500  1
  C  C76  1  0.99360300  0.50653000  0.68102700  1
  C  C77  1  0.44811000  0.02775400  0.66810200  1
  C  C78  1  0.94811000  0.52775400  0.66810400  1
  C  C79  1  0.44975700  0.02913000  0.73417000  1
  C  C80  1  0.94975800  0.52913000  0.73417200  1
  C  C81  1  0.49524200  0.00767100  0.81228200  1
  C  C82  1  0.99524300  0.50767100  0.81228400  1
  C  C83  1  0.53794000  0.98605200  0.82089800  1
  C  C84  1  0.03794100  0.48605200  0.82090000  1
  C  C85  1  0.59476300  0.96027100  0.88333300  1
  C  C86  1  0.09476300  0.46027100  0.88333500  1
  C  C87  1  0.59477100  0.96041600  0.81117600  1
  C  C88  1  0.09477200  0.46041600  0.81117700  1
  C  C89  1  0.38066700  0.50377300  0.38559600  1
  C  C90  1  0.88066600  0.00377300  0.38559400  1
  C  C91  1  0.49472100  0.58841600  0.50068000  1
  C  C92  1  0.50503800  0.42719300  0.50836100  1
  C  C93  1  0.99472000  0.08841600  0.50067800  1
  C  C94  1  0.00503700  0.92719300  0.50835900  1
  C  C95  1  0.61779000  0.51149600  0.62207400  1
  C  C96  1  0.11779000  0.01149600  0.62207200  1
  C  C97  1  0.61551600  0.00735500  0.11687100  1
  C  C98  1  0.11551700  0.50735500  0.11687300  1
  C  C99  1  0.49952100  0.01229400  0.11706200  1
  C  C100  1  0.99952100  0.51229400  0.11706400  1
  C  C101  1  0.38238700  0.01363500  0.88377000  1
  C  C102  1  0.88238800  0.51363500  0.88377200  1
  C  C103  1  0.49763500  0.00875200  0.88202800  1
  C  C104  1  0.99763600  0.50875200  0.88203000  1
  C  C105  1  0.27999200  0.52604400  0.24340600  1
  C  C106  1  0.77999100  0.02604400  0.24340400  1
  C  C107  1  0.31298500  0.50204600  0.31762300  1
  C  C108  1  0.81298400  0.00204600  0.31762100  1
  C  C109  1  0.27853700  0.47816200  0.32496100  1
  C  C110  1  0.77853700  0.97816200  0.32495900  1
  C  C111  1  0.71396500  0.97976900  0.25872000  1
  C  C112  1  0.21396600  0.47976900  0.25872200  1
  C  C113  1  0.68300400  0.00550900  0.18604400  1
  C  C114  1  0.18300500  0.50550900  0.18604600  1
  C  C115  1  0.71881400  0.02845100  0.18226500  1
  C  C116  1  0.21881500  0.52845100  0.18226700  1
  C  C117  1  0.71570900  0.05929600  0.12784200  1
  C  C118  1  0.21571000  0.55929600  0.12784400  1
  C  C119  1  0.28774800  0.55678800  0.20024700  1
  C  C120  1  0.78774800  0.05678800  0.20024500  1
  C  C121  1  0.71915800  0.49363600  0.67856900  1
  C  C122  1  0.21915700  0.99363600  0.67856700  1
  C  C123  1  0.68523700  0.51356000  0.68922400  1
  C  C124  1  0.18523600  0.01356000  0.68922200  1
  C  C125  1  0.71818500  0.53535200  0.76721600  1
  C  C126  1  0.21818500  0.03535200  0.76721500  1
  C  C127  1  0.28269300  0.03680400  0.83009300  1
  C  C128  1  0.78269400  0.53680400  0.83009500  1
  C  C129  1  0.31495500  0.01490400  0.81729500  1
  C  C130  1  0.81495500  0.51490400  0.81729700  1
  C  C131  1  0.28040900  0.99338000  0.73999600  1
  C  C132  1  0.78041000  0.49338100  0.73999800  1
  C  C133  1  0.28553600  0.96614600  0.68975000  1
  C  C134  1  0.78553700  0.46614600  0.68975200  1
  C  C135  1  0.71340600  0.46621400  0.61764600  1
  C  C136  1  0.21340600  0.96621400  0.61764400  1
  C  C137  1  0.56759200  0.78700400  0.47887500  1
  C  C138  1  0.55802200  0.77722800  0.40775700  1
  C  C139  1  0.59784200  0.79231000  0.40319700  1
  C  C140  1  0.64737000  0.81708400  0.46958800  1
  C  C141  1  0.65723900  0.82668600  0.54081100  1
  C  C142  1  0.61753200  0.81159600  0.54554000  1
  C  C143  1  0.53313800  0.22569300  0.42042300  1
  C  C144  1  0.59032900  0.23138500  0.45067300  1
  C  C145  1  0.60239800  0.21432100  0.40544700  1
  C  C146  1  0.55748400  0.19161200  0.32991500  1
  C  C147  1  0.50038200  0.18597900  0.29947500  1
  C  C148  1  0.48824100  0.20298000  0.34462000  1
  C  C149  1  0.06759200  0.28700400  0.47887500  1
  C  C150  1  0.05802200  0.27722800  0.40775700  1
  C  C151  1  0.09784200  0.29231000  0.40319700  1
  C  C152  1  0.14737000  0.31708400  0.46958800  1
  C  C153  1  0.15723900  0.32668600  0.54081100  1
  C  C154  1  0.11753200  0.31159600  0.54554100  1
  C  C155  1  0.03313800  0.72569200  0.42042200  1
  C  C156  1  0.09032800  0.73138400  0.45067100  1
  C  C157  1  0.10239600  0.71432000  0.40544500  1
  C  C158  1  0.05748200  0.69161000  0.32991300  1
  C  C159  1  0.00038100  0.68597800  0.29947400  1
  C  C160  1  0.98824000  0.70297900  0.34462000  1
  C  C161  1  0.39475800  0.93349200  0.20858300  1
  C  C162  1  0.43941800  0.90509800  0.23395600  1
  C  C163  1  0.44341700  0.86574600  0.26419900  1
  C  C164  1  0.40399900  0.85444500  0.27153800  1
  C  C165  1  0.36182500  0.88307600  0.25135800  1
  C  C166  1  0.35741200  0.92250600  0.22075300  1
  C  C167  1  0.33355800  0.00187600  0.13301600  1
  C  C168  1  0.27521800  0.98667800  0.06045800  1
  C  C169  1  0.22324800  0.00999900  0.02167000  1
  C  C170  1  0.22899400  0.04909300  0.05411600  1
  C  C171  1  0.28680300  0.06499100  0.12484200  1
  C  C172  1  0.33896200  0.04177100  0.16389200  1
  C  C173  1  0.89475800  0.43349200  0.20858500  1
  C  C174  1  0.93941800  0.40509900  0.23395700  1
  C  C175  1  0.94341600  0.36574700  0.26420000  1
  C  C176  1  0.90399800  0.35444500  0.27153900  1
  C  C177  1  0.86182500  0.38307700  0.25135900  1
  C  C178  1  0.85741200  0.42250700  0.22075400  1
  C  C179  1  0.83355900  0.50187600  0.13301800  1
  C  C180  1  0.77521900  0.48667900  0.06045900  1
  C  C181  1  0.72324900  0.51000000  0.02167200  1
  C  C182  1  0.72899500  0.54909400  0.05411800  1
  C  C183  1  0.78680400  0.56499100  0.12484500  1
  C  C184  1  0.83896300  0.54177200  0.16389400  1
  C  C185  1  0.30799200  0.44962600  0.39888400  1
  C  C186  1  0.34718600  0.41813600  0.41815300  1
  C  C187  1  0.37287900  0.39051100  0.48585100  1
  C  C188  1  0.35939300  0.39412500  0.53432400  1
  C  C189  1  0.31975200  0.42515600  0.51462200  1
  C  C190  1  0.29376900  0.45266700  0.44668200  1
  C  C191  1  0.80799100  0.94962600  0.39888200  1
  C  C192  1  0.84718500  0.91813600  0.41815100  1
  C  C193  1  0.87287800  0.89051100  0.48584900  1
  C  C194  1  0.85939200  0.89412500  0.53432200  1
  C  C195  1  0.81975100  0.92515600  0.51462000  1
  C  C196  1  0.79376800  0.95266700  0.44668000  1
  C  C197  1  0.59371600  0.05807400  0.40790500  1
  C  C198  1  0.57893200  0.09102000  0.43203700  1
  C  C199  1  0.62509700  0.11417200  0.50616400  1
  C  C200  1  0.68618400  0.10483400  0.55593200  1
  C  C201  1  0.70111600  0.07244200  0.53131900  1
  C  C202  1  0.65500100  0.04926000  0.45718300  1
  C  C203  1  0.09371600  0.55807400  0.40790700  1
  C  C204  1  0.07893300  0.59102000  0.43204000  1
  C  C205  1  0.12509800  0.61417200  0.50616700  1
  C  C206  1  0.18618500  0.60483300  0.55593400  1
  C  C207  1  0.20111700  0.57244200  0.53132100  1
  C  C208  1  0.15500200  0.54925900  0.45718500  1
  O  O1  1  0.44275700  0.00744700  0.35358300  1
  O  O2  1  0.94275800  0.50744700  0.35358600  1
  O  O3  1  0.54907500  0.00784100  0.46134300  1
  O  O4  1  0.04907600  0.50784100  0.46134500  1
  O  O5  1  0.43946000  0.94762200  0.43773100  1
  O  O6  1  0.44447000  0.06987600  0.44311200  1
  O  O7  1  0.93946100  0.44762200  0.43773200  1
  O  O8  1  0.94447100  0.56987600  0.44311400  1
  O  O9  1  0.54603900  0.94576700  0.54225300  1
  O  O10  1  0.55079600  0.06784300  0.55443600  1
  O  O11  1  0.04604000  0.44576700  0.54225500  1
  O  O12  1  0.05079600  0.56784300  0.55443800  1
  O  O13  1  0.44125900  0.00725700  0.53178100  1
  O  O14  1  0.94126000  0.50725700  0.53178200  1
  O  O15  1  0.54746700  0.00266700  0.63927700  1
  O  O16  1  0.04746800  0.50266700  0.63928000  1
  O  O17  1  0.40912600  0.50482000  0.36060700  1
  O  O18  1  0.90912500  0.00482000  0.36060500  1
  O  O19  1  0.40987400  0.50538500  0.46811100  1
  O  O20  1  0.90987300  0.00538500  0.46810900  1
  O  O21  1  0.49441500  0.56910400  0.44682900  1
  O  O22  1  0.49884100  0.44680000  0.44920700  1
  O  O23  1  0.99441400  0.06910400  0.44682800  1
  O  O24  1  0.99884000  0.94680000  0.44920500  1
  O  O25  1  0.49176700  0.56854800  0.55069700  1
  O  O26  1  0.50312000  0.44650800  0.55996900  1
  O  O27  1  0.99176600  0.06854800  0.55069500  1
  O  O28  1  0.00311900  0.94650700  0.55996700  1
  O  O29  1  0.58875100  0.50777700  0.54000300  1
  O  O30  1  0.08875000  0.00777700  0.54000200  1
  O  O31  1  0.58917700  0.51324300  0.64668700  1
  O  O32  1  0.08917600  0.01324300  0.64668500  1
  O  O33  1  0.58460200  0.97406800  0.10556400  1
  O  O34  1  0.58859300  0.04212000  0.06947300  1
  O  O35  1  0.08460300  0.47406800  0.10556600  1
  O  O36  1  0.08859400  0.54212000  0.06947500  1
  O  O37  1  0.47839600  0.97806300  0.06815400  1
  O  O38  1  0.52057100  0.04557000  0.10820400  1
  O  O39  1  0.97839700  0.47806300  0.06815500  1
  O  O40  1  0.02057200  0.54557100  0.10820600  1
  O  O41  1  0.40907800  0.97837700  0.89219000  1
  O  O42  1  0.41344800  0.04747500  0.93254100  1
  O  O43  1  0.90907900  0.47837700  0.89219200  1
  O  O44  1  0.91344900  0.54747500  0.93254300  1
  O  O45  1  0.51523800  0.97439700  0.92945000  1
  O  O46  1  0.48135900  0.04405500  0.89361900  1
  O  O47  1  0.01523800  0.47439700  0.92945200  1
  O  O48  1  0.98135900  0.54405500  0.89362000  1
