# generated using pymatgen
data_Fe2H29C66S8NO17
_symmetry_space_group_name_H-M   'P 1'
_cell_length_a   15.92592200
_cell_length_b   20.05946100
_cell_length_c   20.82456000
_cell_angle_alpha   83.92557500
_cell_angle_beta   83.47357100
_cell_angle_gamma   70.42954800
_symmetry_Int_Tables_number   1
_chemical_formula_structural   Fe2H29C66S8NO17
_chemical_formula_sum   'Fe2 H29 C66 S8 N1 O17'
_cell_volume   6211.44834503
_cell_formula_units_Z   1
loop_
 _symmetry_equiv_pos_site_id
 _symmetry_equiv_pos_as_xyz
  1  'x, y, z'
loop_
 _atom_site_type_symbol
 _atom_site_label
 _atom_site_symmetry_multiplicity
 _atom_site_fract_x
 _atom_site_fract_y
 _atom_site_fract_z
 _atom_site_occupancy
  Fe  Fe1  1  0.51208900  0.99647600  0.11122800  1
  Fe  Fe2  1  0.52370300  0.01096400  0.83753500  1
  H  H1  1  0.93030100  0.02109100  0.87049500  1
  H  H2  1  0.20687000  0.99030800  0.87397100  1
  H  H3  1  0.05986500  0.99184000  0.89750200  1
  H  H4  1  0.79050100  0.02184800  0.84154200  1
  H  H5  1  0.23585500  0.99332600  0.10559100  1
  H  H6  1  0.08630700  0.99132500  0.12952100  1
  H  H7  1  0.93682500  0.99663700  0.15456000  1
  H  H8  1  0.79504900  0.00140200  0.12424900  1
  H  H9  1  0.98314800  0.48664600  0.36614700  1
  H  H10  1  0.16582300  0.19768500  0.41510200  1
  H  H11  1  0.33669900  0.28280300  0.55508300  1
  H  H12  1  0.67886100  0.69585000  0.60153500  1
  H  H13  1  0.77839700  0.77811900  0.37709800  1
  H  H14  1  0.37292300  0.22888200  0.16191700  1
  H  H15  1  0.26173000  0.32385100  0.22905000  1
  H  H16  1  0.73329400  0.62710400  0.23087500  1
  H  H17  1  0.63552700  0.71172200  0.14843600  1
  H  H18  1  0.83012300  0.87974000  0.73027100  1
  H  H19  1  0.90761100  0.77724000  0.66126700  1
  H  H20  1  0.15090800  0.31415200  0.75883400  1
  H  H21  1  0.25137200  0.23739400  0.84316100  1
  H  H22  1  0.88734400  0.69911900  0.45231800  1
  H  H23  1  0.76257900  0.59470600  0.52976800  1
  H  H24  1  0.23816500  0.36605800  0.47337800  1
  H  H25  1  0.07394100  0.29206000  0.48973800  1
  H  H26  1  0.97508600  0.51961200  0.64309800  1
  H  H27  1  0.05991100  0.54224400  0.71514300  1
  H  H28  1  0.11308200  0.60316300  0.67326300  1
  H  H29  1  0.17896700  0.51196900  0.69328300  1
  C  C1  1  0.88391300  0.01273400  0.90959300  1
  C  C2  1  0.29388400  0.99187900  0.94471000  1
  C  C3  1  0.21407900  0.99050500  0.92490600  1
  C  C4  1  0.14218500  0.99128700  0.96941600  1
  C  C5  1  0.06141800  0.99363000  0.94871900  1
  C  C6  1  0.98712000  0.99702900  0.99287700  1
  C  C7  1  0.80227100  0.01519800  0.89228100  1
  C  C8  1  0.73793500  0.00456300  0.93791800  1
  C  C9  1  0.90261600  0.00181800  0.97421200  1
  C  C10  1  0.83399600  0.99787800  0.02133100  1
  C  C11  1  0.75203000  0.99653600  0.00310200  1
  C  C12  1  0.30110700  0.99342300  0.01049800  1
  C  C13  1  0.23031700  0.99104300  0.05467700  1
  C  C14  1  0.15089000  0.99083900  0.03421000  1
  C  C15  1  0.07932200  0.99191500  0.07842100  1
  C  C16  1  0.99843000  0.99474500  0.05806400  1
  C  C17  1  0.92845700  0.99660600  0.10378100  1
  C  C18  1  0.84749100  0.99789500  0.08597900  1
  C  C19  1  0.68005900  0.98614100  0.05080500  1
  C  C20  1  0.58069600  0.85810700  0.16228100  1
  C  C21  1  0.37656400  0.00675500  0.03469800  1
  C  C22  1  0.39973800  0.08559400  0.19937000  1
  C  C23  1  0.64835200  0.92048500  0.76089800  1
  C  C24  1  0.65900700  0.99614700  0.91486900  1
  C  C25  1  0.41619300  0.14355300  0.80352400  1
  C  C26  1  0.36660800  0.99540100  0.89507800  1
  C  C27  1  0.88025600  0.60607800  0.40944200  1
  C  C28  1  0.85914100  0.67756800  0.41814800  1
  C  C29  1  0.79575000  0.62343300  0.55309100  1
  C  C30  1  0.88746000  0.60794400  0.54863100  1
  C  C31  1  0.94678800  0.55470800  0.51209800  1
  C  C32  1  0.93711900  0.55065100  0.44687100  1
  C  C33  1  0.01200200  0.50059500  0.54357600  1
  C  C34  1  0.06117100  0.43885700  0.51328900  1
  C  C35  1  0.04918300  0.43414800  0.44869600  1
  C  C36  1  0.98975300  0.49077000  0.41630900  1
  C  C37  1  0.12546600  0.38567600  0.54720500  1
  C  C38  1  0.21235300  0.35372000  0.52179400  1
  C  C39  1  0.10046700  0.30478700  0.44165600  1
  C  C40  1  0.09041700  0.37304600  0.41543000  1
  C  C41  1  0.14901200  0.25360300  0.40061100  1
  C  C42  1  0.17757700  0.28141200  0.34208000  1
  C  C43  1  0.22193500  0.30696800  0.62696500  1
  C  C44  1  0.26604600  0.30897500  0.56629500  1
  C  C45  1  0.75077200  0.67771400  0.59219600  1
  C  C46  1  0.80708100  0.70616000  0.61689900  1
  C  C47  1  0.77820900  0.68469600  0.33204500  1
  C  C48  1  0.80099900  0.72111700  0.37592000  1
  C  C49  1  0.23728300  0.23989800  0.29657900  1
  C  C50  1  0.26366300  0.27335500  0.68167800  1
  C  C51  1  0.77860700  0.76171000  0.65705600  1
  C  C52  1  0.72088500  0.71827500  0.28461100  1
  C  C53  1  0.34535800  0.14886300  0.23187900  1
  C  C54  1  0.33696400  0.21673700  0.20634200  1
  C  C55  1  0.27586800  0.26788300  0.24231000  1
  C  C56  1  0.70468800  0.68347400  0.23603300  1
  C  C57  1  0.65171600  0.72893400  0.19152500  1
  C  C58  1  0.62517400  0.79866500  0.20629400  1
  C  C59  1  0.70465700  0.86063000  0.72497800  1
  C  C60  1  0.79499800  0.84853400  0.71268300  1
  C  C61  1  0.83674800  0.79268200  0.67539000  1
  C  C62  1  0.21918300  0.28176700  0.74669700  1
  C  C63  1  0.27391200  0.24146700  0.79239200  1
  C  C64  1  0.35716600  0.20228000  0.76622300  1
  C  C65  1  0.09896400  0.52765000  0.61406400  1
  C  C66  1  0.11338500  0.54750100  0.67796100  1
  S  S1  1  0.13592100  0.37647500  0.33268500  1
  S  S2  1  0.10573500  0.35690100  0.63058200  1
  S  S3  1  0.92273100  0.66530300  0.59183900  1
  S  S4  1  0.83257500  0.59074400  0.34039800  1
  S  S5  1  0.27558000  0.14468900  0.30487700  1
  S  S6  1  0.66464000  0.81217800  0.27912300  1
  S  S7  1  0.66455600  0.80098200  0.68890700  1
  S  S8  1  0.37668500  0.21498700  0.67993700  1
  N  N1  1  0.02738000  0.50768400  0.60766700  1
  O  O1  1  0.59508600  0.01929900  0.04102300  1
  O  O2  1  0.57670300  0.84793000  0.10167500  1
  O  O3  1  0.70036000  0.93947000  0.10046200  1
  O  O4  1  0.55466300  0.92260000  0.18197800  1
  O  O5  1  0.43206200  0.95722600  0.07036200  1
  O  O6  1  0.38253200  0.07083800  0.02684300  1
  O  O7  1  0.46011000  0.08950400  0.15190600  1
  O  O8  1  0.38523700  0.02521200  0.21595000  1
  O  O9  1  0.56987700  0.92234500  0.78962900  1
  O  O10  1  0.67895500  0.97239800  0.76681400  1
  O  O11  1  0.60972300  0.04607200  0.87599100  1
  O  O12  1  0.64428800  0.93520600  0.92613800  1
  O  O13  1  0.34847500  0.01399400  0.83457300  1
  O  O14  1  0.47309200  0.09044700  0.77330600  1
  O  O15  1  0.44868600  0.98271700  0.91058400  1
  O  O16  1  0.40362500  0.13875000  0.86697300  1
  O  O17  1  0.15211600  0.52969700  0.56750300  1
