# generated using pymatgen
data_Zn2H23C34(NO3)3
_symmetry_space_group_name_H-M   'P 1'
_cell_length_a   8.52888500
_cell_length_b   12.99539700
_cell_length_c   14.19431200
_cell_angle_alpha   90.62958300
_cell_angle_beta   93.35796100
_cell_angle_gamma   86.45001100
_symmetry_Int_Tables_number   1
_chemical_formula_structural   Zn2H23C34(NO3)3
_chemical_formula_sum   'Zn2 H23 C34 N3 O9'
_cell_volume   1567.48671014
_cell_formula_units_Z   1
loop_
 _symmetry_equiv_pos_site_id
 _symmetry_equiv_pos_as_xyz
  1  'x, y, z'
loop_
 _atom_site_type_symbol
 _atom_site_label
 _atom_site_symmetry_multiplicity
 _atom_site_fract_x
 _atom_site_fract_y
 _atom_site_fract_z
 _atom_site_occupancy
  Zn  Zn1  1  0.55474700  0.51549200  0.89200500  1
  Zn  Zn2  1  0.57332100  0.49325200  0.10154300  1
  H  H1  1  0.64014900  0.81693700  0.00637600  1
  H  H2  1  0.60781000  0.00233100  0.99500600  1
  H  H3  1  0.05276600  0.43412400  0.95742400  1
  H  H4  1  0.35479600  0.16550400  0.99688800  1
  H  H5  1  0.25098300  0.00779900  0.00455300  1
  H  H6  1  0.71257700  0.16552100  0.98930000  1
  H  H7  1  0.27927500  0.85153900  0.98764700  1
  H  H8  1  0.07067100  0.57525100  0.03886100  1
  H  H9  1  0.80361700  0.42603800  0.44525100  1
  H  H10  1  0.76714100  0.41067900  0.60320000  1
  H  H11  1  0.56566100  0.68026000  0.56562200  1
  H  H12  1  0.74164500  0.61292500  0.41222300  1
  H  H13  1  0.53859300  0.66103000  0.40997000  1
  H  H14  1  0.33109100  0.45037700  0.57414300  1
  H  H15  1  0.32829800  0.58626900  0.54786400  1
  H  H16  1  0.37188400  0.40472800  0.42252600  1
  H  H17  1  0.58517400  0.34977000  0.57970800  1
  H  H18  1  0.65153900  0.33577300  0.42822100  1
  H  H19  1  0.32316600  0.53852900  0.39364300  1
  H  H20  1  0.87680400  0.55806500  0.55580900  1
  H  H21  1  0.06052300  0.57953300  0.67527500  1
  H  H22  1  0.96414700  0.57591700  0.78518400  1
  H  H23  1  0.02821100  0.69637400  0.74328500  1
  C  C1  1  0.02507000  0.86809700  0.00277800  1
  C  C2  1  0.89296400  0.81119500  0.00757700  1
  C  C3  1  0.74404800  0.85997600  0.00328500  1
  C  C4  1  0.72506600  0.96540500  0.99726600  1
  C  C5  1  0.85415500  0.02367900  0.99586200  1
  C  C6  1  0.00465200  0.97596900  0.99834900  1
  C  C7  1  0.83078100  0.13013600  0.99185600  1
  C  C8  1  0.95735500  0.19065400  0.98816100  1
  C  C9  1  0.10740600  0.14343100  0.99162100  1
  C  C10  1  0.13097300  0.03805000  0.99858500  1
  C  C11  1  0.93796800  0.29729900  0.97934500  1
  C  C12  1  0.06786300  0.35225600  0.96788000  1
  C  C13  1  0.21663000  0.30561500  0.97627400  1
  C  C14  1  0.23699500  0.20140700  0.98963300  1
  C  C15  1  0.17306000  0.81494600  0.00026600  1
  C  C16  1  0.18844100  0.70972300  0.01369200  1
  C  C17  1  0.05787100  0.65702000  0.02741300  1
  C  C18  1  0.91053000  0.70532000  0.01803100  1
  C  C19  1  0.35034500  0.36956000  0.98263100  1
  C  C20  1  0.33830000  0.64908300  0.00732300  1
  C  C21  1  0.77717900  0.64009500  0.01113500  1
  C  C22  1  0.78819200  0.35829600  0.98596000  1
  C  C23  1  0.65281200  0.41629600  0.56166500  1
  C  C24  1  0.63337000  0.60834700  0.54615100  1
  C  C25  1  0.62491700  0.60069500  0.43929100  1
  C  C26  1  0.55873600  0.51548700  0.58509200  1
  C  C27  1  0.67922600  0.41261800  0.45709900  1
  C  C28  1  0.57230000  0.49549100  0.40852000  1
  C  C29  1  0.40487600  0.48501500  0.43595300  1
  C  C30  1  0.39400700  0.51065600  0.53981500  1
  C  C31  1  0.57883900  0.48531900  0.30603900  1
  C  C32  1  0.55071300  0.52431800  0.68754600  1
  C  C33  1  0.82141300  0.64386200  0.67108500  1
  C  C34  1  0.97836900  0.62236800  0.72151000  1
  N  N1  1  0.58191200  0.48047900  0.22471900  1
  N  N2  1  0.54654700  0.52832700  0.76884000  1
  N  N3  1  0.79552900  0.61173100  0.58087600  1
  O  O1  1  0.40649100  0.39410100  0.06723500  1
  O  O2  1  0.39626800  0.40856100  0.90483600  1
  O  O3  1  0.38275500  0.62184600  0.92295500  1
  O  O4  1  0.40233800  0.60690400  0.08514400  1
  O  O5  1  0.72155300  0.61472300  0.92654700  1
  O  O6  1  0.73138500  0.60047200  0.08862500  1
  O  O7  1  0.74502300  0.38671400  0.07037900  1
  O  O8  1  0.72511500  0.40143800  0.90839800  1
  O  O9  1  0.71871800  0.69334000  0.71128200  1
