# generated using pymatgen
data_ZnH9C16NO6
_symmetry_space_group_name_H-M   'P 1'
_cell_length_a   8.56666800
_cell_length_b   12.99315300
_cell_length_c   9.16702500
_cell_angle_alpha   90.94472100
_cell_angle_beta   90.08980100
_cell_angle_gamma   95.35599000
_symmetry_Int_Tables_number   1
_chemical_formula_structural   ZnH9C16NO6
_chemical_formula_sum   'Zn2 H18 C32 N2 O12'
_cell_volume   1015.76548532
_cell_formula_units_Z   2
loop_
 _symmetry_equiv_pos_site_id
 _symmetry_equiv_pos_as_xyz
  1  'x, y, z'
loop_
 _atom_site_type_symbol
 _atom_site_label
 _atom_site_symmetry_multiplicity
 _atom_site_fract_x
 _atom_site_fract_y
 _atom_site_fract_z
 _atom_site_occupancy
  Zn  Zn1  1  0.50572000  0.50867300  0.84201100  1
  Zn  Zn2  1  0.50377600  0.49518300  0.16634900  1
  H  H1  1  0.99761600  0.42974400  0.94286400  1
  H  H2  1  0.01179800  0.57335700  0.06140300  1
  H  H3  1  0.70306700  0.16071200  0.02445500  1
  H  H4  1  0.30650400  0.84357800  0.98797300  1
  H  H5  1  0.68412600  0.00586100  0.97753900  1
  H  H6  1  0.32511200  0.99822800  0.03611900  1
  H  H7  1  0.66286400  0.82532300  0.99470400  1
  H  H8  1  0.34645200  0.17874000  0.01767500  1
  H  H9  1  0.34252400  0.63053400  0.58647300  1
  H  H10  1  0.66279500  0.37117500  0.42241500  1
  H  H11  1  0.57658100  0.66018200  0.38450100  1
  H  H12  1  0.41786900  0.34514800  0.62028500  1
  H  H13  1  0.91518000  0.41624900  0.43859200  1
  H  H14  1  0.95660500  0.40340300  0.24628800  1
  H  H15  1  0.88319100  0.52095200  0.31603900  1
  H  H16  1  0.08922400  0.60019900  0.65910400  1
  H  H17  1  0.99957100  0.70195100  0.75440800  1
  H  H18  1  0.09899700  0.72965900  0.58410700  1
  C  C1  1  0.11574700  0.29723700  0.98432600  1
  C  C2  1  0.89361000  0.70654000  0.02480100  1
  C  C3  1  0.98472200  0.34842200  0.96413900  1
  C  C4  1  0.02467000  0.65498000  0.04247600  1
  C  C5  1  0.83814700  0.29929800  0.98519300  1
  C  C6  1  0.17128000  0.70446300  0.02321800  1
  C  C7  1  0.82057500  0.19413700  0.00552100  1
  C  C8  1  0.18889400  0.80991800  0.00568900  1
  C  C9  1  0.95126400  0.13714300  0.00194000  1
  C  C10  1  0.05812400  0.86685700  0.01001500  1
  C  C11  1  0.09946300  0.19088900  0.00057800  1
  C  C12  1  0.90990400  0.81307400  0.01078800  1
  C  C13  1  0.93754300  0.02850600  0.00299000  1
  C  C14  1  0.07178600  0.97552200  0.00988500  1
  C  C15  1  0.21715100  0.03245800  0.02071500  1
  C  C16  1  0.79213700  0.97160600  0.99249000  1
  C  C17  1  0.23051700  0.13823800  0.01356400  1
  C  C18  1  0.77880500  0.86580800  0.99897300  1
  C  C19  1  0.74225800  0.64369100  0.01677900  1
  C  C20  1  0.26714400  0.36017700  0.99173200  1
  C  C21  1  0.70489300  0.36205900  0.99238300  1
  C  C22  1  0.30469000  0.64185300  0.01592900  1
  C  C23  1  0.41483800  0.56938800  0.54792000  1
  C  C24  1  0.59450500  0.43448700  0.46075500  1
  C  C25  1  0.37309200  0.47452600  0.45809900  1
  C  C26  1  0.63732200  0.52989100  0.55070300  1
  C  C27  1  0.54963400  0.58612300  0.44138200  1
  C  C28  1  0.46029700  0.41830900  0.56668600  1
  C  C29  1  0.12076500  0.50184600  0.37068000  1
  C  C30  1  0.95779700  0.45818700  0.34022900  1
  C  C31  1  0.87749000  0.64084000  0.56547000  1
  C  C32  1  0.02628400  0.67012200  0.64560200  1
  N  N1  1  0.50318200  0.49025600  0.35777900  1
  N  N2  1  0.50628900  0.51362800  0.65058800  1
  O  O1  1  0.68672900  0.60203100  0.13753400  1
  O  O2  1  0.32266100  0.40185500  0.87086400  1
  O  O3  1  0.68334500  0.61762200  0.88725500  1
  O  O4  1  0.32618200  0.38623600  0.12113800  1
  O  O5  1  0.66043700  0.40308800  0.87119100  1
  O  O6  1  0.34914900  0.60078900  0.13705000  1
  O  O7  1  0.65254200  0.38749500  0.12158400  1
  O  O8  1  0.35701600  0.61639900  0.88677100  1
  O  O9  1  0.22736200  0.43769700  0.40921000  1
  O  O10  1  0.15543000  0.59490100  0.36769800  1
  O  O11  1  0.78439200  0.55704600  0.60710800  1
  O  O12  1  0.84341300  0.69097600  0.46097200  1
