# generated using pymatgen
data_CuH8C13O6
_symmetry_space_group_name_H-M   'P 1'
_cell_length_a   38.38316800
_cell_length_b   32.07597200
_cell_length_c   21.79960900
_cell_angle_alpha   90.00000000
_cell_angle_beta   123.22839700
_cell_angle_gamma   90.00000000
_symmetry_Int_Tables_number   1
_chemical_formula_structural   CuH8C13O6
_chemical_formula_sum   'Cu12 H96 C156 O72'
_cell_volume   22450.78690879
_cell_formula_units_Z   12
loop_
 _symmetry_equiv_pos_site_id
 _symmetry_equiv_pos_as_xyz
  1  'x, y, z'
loop_
 _atom_site_type_symbol
 _atom_site_label
 _atom_site_symmetry_multiplicity
 _atom_site_fract_x
 _atom_site_fract_y
 _atom_site_fract_z
 _atom_site_occupancy
  Cu  Cu1  1  0.50006900  0.52877800  0.50077000  1
  Cu  Cu2  1  0.00006900  0.02877800  0.50077000  1
  Cu  Cu3  1  0.49996200  0.44565500  0.50058600  1
  Cu  Cu4  1  0.99996200  0.94565500  0.50058600  1
  Cu  Cu5  1  0.54129800  0.50076400  0.03571900  1
  Cu  Cu6  1  0.45850900  0.50078800  0.96529900  1
  Cu  Cu7  1  0.04129800  0.00076400  0.03571900  1
  Cu  Cu8  1  0.95850900  0.00078800  0.96529900  1
  Cu  Cu9  1  0.99996300  0.50044400  0.06065700  1
  Cu  Cu10  1  0.00012300  0.50046700  0.93856900  1
  Cu  Cu11  1  0.49996300  0.00044400  0.06065700  1
  Cu  Cu12  1  0.50012300  0.00046700  0.93856900  1
  H  H1  1  0.54735600  0.53246100  0.85001300  1
  H  H2  1  0.45249300  0.53258500  0.15110300  1
  H  H3  1  0.04735600  0.03246100  0.85001300  1
  H  H4  1  0.95249300  0.03258500  0.15110300  1
  H  H5  1  0.46150400  0.49129300  0.75881700  1
  H  H6  1  0.53834700  0.49142300  0.24221600  1
  H  H7  1  0.96150400  0.99129300  0.75881700  1
  H  H8  1  0.03834700  0.99142300  0.24221600  1
  H  H9  1  0.53190200  0.54436200  0.72188100  1
  H  H10  1  0.46830100  0.54481700  0.27937300  1
  H  H11  1  0.03190200  0.04436200  0.72188100  1
  H  H12  1  0.96830100  0.04481700  0.27937300  1
  H  H13  1  0.49163800  0.45871100  0.70073500  1
  H  H14  1  0.50814600  0.45892000  0.30026200  1
  H  H15  1  0.99163800  0.95871100  0.70073500  1
  H  H16  1  0.00814600  0.95892000  0.30026200  1
  H  H17  1  0.29064600  0.44686700  0.21713800  1
  H  H18  1  0.70964300  0.44655000  0.78299800  1
  H  H19  1  0.79064600  0.94686700  0.21713800  1
  H  H20  1  0.20964300  0.94655000  0.78299800  1
  H  H21  1  0.21090800  0.53763500  0.27839000  1
  H  H22  1  0.78897400  0.53730700  0.72084200  1
  H  H23  1  0.71090800  0.03763500  0.27839000  1
  H  H24  1  0.28897400  0.03730700  0.72084200  1
  H  H25  1  0.28709200  0.53451700  0.35911700  1
  H  H26  1  0.71276400  0.53419700  0.64058300  1
  H  H27  1  0.78709200  0.03451700  0.35911700  1
  H  H28  1  0.21276400  0.03419700  0.64058300  1
  H  H29  1  0.45383500  0.71217600  0.88537800  1
  H  H30  1  0.54615600  0.71236500  0.11480400  1
  H  H31  1  0.95383500  0.21217600  0.88537800  1
  H  H32  1  0.04615600  0.21236500  0.11480500  1
  H  H33  1  0.95389700  0.28887900  0.88512400  1
  H  H34  1  0.04621600  0.28906700  0.11455200  1
  H  H35  1  0.45389700  0.78887900  0.88512400  1
  H  H36  1  0.54621600  0.78906700  0.11455200  1
  H  H37  1  0.85974300  0.65844300  0.93436500  1
  H  H38  1  0.89078800  0.66310700  0.03259000  1
  H  H39  1  0.90257100  0.59744600  0.94308500  1
  H  H40  1  0.87742000  0.58918600  0.99216700  1
  H  H41  1  0.93233100  0.60179300  0.04209300  1
  H  H42  1  0.14005700  0.65877500  0.06475000  1
  H  H43  1  0.10896300  0.66362300  0.96655300  1
  H  H44  1  0.09730300  0.59765100  0.05576500  1
  H  H45  1  0.12238500  0.58963200  0.00650700  1
  H  H46  1  0.06746900  0.60219800  0.95678100  1
  H  H47  1  0.35974300  0.15844300  0.93436500  1
  H  H48  1  0.39078800  0.16310700  0.03259000  1
  H  H49  1  0.40257100  0.09744600  0.94308500  1
  H  H50  1  0.37742000  0.08918600  0.99216800  1
  H  H51  1  0.43233100  0.10179300  0.04209300  1
  H  H52  1  0.64005700  0.15877500  0.06475000  1
  H  H53  1  0.60896300  0.16362300  0.96655300  1
  H  H54  1  0.59730300  0.09765100  0.05576500  1
  H  H55  1  0.62238500  0.08963200  0.00650700  1
  H  H56  1  0.56746900  0.10219800  0.95678100  1
  H  H57  1  0.20051700  0.41056200  0.99449600  1
  H  H58  1  0.19119700  0.36995800  0.04189900  1
  H  H59  1  0.27256500  0.38464000  0.04958300  1
  H  H60  1  0.23457200  0.34422200  0.99760200  1
  H  H61  1  0.26326400  0.34413600  0.09682100  1
  H  H62  1  0.80030400  0.41036700  0.00562900  1
  H  H63  1  0.80909900  0.36961300  0.95776900  1
  H  H64  1  0.72820800  0.38484400  0.95147100  1
  H  H65  1  0.76607700  0.34425600  0.00302800  1
  H  H66  1  0.73698400  0.34419300  0.90377400  1
  H  H67  1  0.70051700  0.91056200  0.99449600  1
  H  H68  1  0.69119700  0.86995800  0.04189900  1
  H  H69  1  0.77256500  0.88464000  0.04958400  1
  H  H70  1  0.73457200  0.84422200  0.99760200  1
  H  H71  1  0.76326400  0.84413600  0.09682100  1
  H  H72  1  0.30030400  0.91036700  0.00562900  1
  H  H73  1  0.30909900  0.86961300  0.95776900  1
  H  H74  1  0.22820800  0.88484400  0.95147100  1
  H  H75  1  0.26607700  0.84425600  0.00302800  1
  H  H76  1  0.23698400  0.84419300  0.90377400  1
  H  H77  1  0.37289100  0.33652700  0.98229500  1
  H  H78  1  0.38611300  0.30048500  0.05627700  1
  H  H79  1  0.32217600  0.28543300  0.89229000  1
  H  H80  1  0.31070400  0.29833000  0.96035200  1
  H  H81  1  0.33572700  0.24928600  0.96595600  1
  H  H82  1  0.62682200  0.33696900  0.01820400  1
  H  H83  1  0.61361500  0.30114000  0.94396000  1
  H  H84  1  0.67756100  0.28575100  0.10783500  1
  H  H85  1  0.68902500  0.29893300  0.03986400  1
  H  H86  1  0.66402200  0.24981300  0.03390700  1
  H  H87  1  0.87289100  0.83652700  0.98229500  1
  H  H88  1  0.88611300  0.80048500  0.05627700  1
  H  H89  1  0.82217600  0.78543300  0.89229000  1
  H  H90  1  0.81070400  0.79833000  0.96035200  1
  H  H91  1  0.83572700  0.74928600  0.96595600  1
  H  H92  1  0.12682200  0.83696900  0.01820400  1
  H  H93  1  0.11361500  0.80114000  0.94396000  1
  H  H94  1  0.17756100  0.78575100  0.10783500  1
  H  H95  1  0.18902500  0.79893200  0.03986400  1
  H  H96  1  0.16402200  0.74981300  0.03390700  1
  C  C1  1  0.42004700  0.48728900  0.42388000  1
  C  C2  1  0.57996300  0.48723700  0.57838300  1
  C  C3  1  0.92004700  0.98728900  0.42388000  1
  C  C4  1  0.07996300  0.98723700  0.57838300  1
  C  C5  1  0.50068800  0.48704100  0.61880600  1
  C  C6  1  0.49981000  0.48730400  0.38294100  1
  C  C7  1  0.00068900  0.98704100  0.61880600  1
  C  C8  1  0.99981000  0.98730400  0.38294100  1
  C  C9  1  0.52081700  0.51767100  0.80273200  1
  C  C10  1  0.47904800  0.51780700  0.19837400  1
  C  C11  1  0.02081700  0.01767100  0.80273200  1
  C  C12  1  0.97904800  0.01780700  0.19837400  1
  C  C13  1  0.49026300  0.50187500  0.80741400  1
  C  C14  1  0.50956500  0.50196800  0.19362400  1
  C  C15  1  0.99026300  0.00187500  0.80741400  1
  C  C16  1  0.00956500  0.00196800  0.19362400  1
  C  C17  1  0.51762900  0.51870500  0.73269200  1
  C  C18  1  0.48237000  0.51898000  0.26852900  1
  C  C19  1  0.01762900  0.01870500  0.73269200  1
  C  C20  1  0.98237000  0.01898000  0.26852900  1
  C  C21  1  0.50149900  0.48666200  0.68640100  1
  C  C22  1  0.49849500  0.48692800  0.31484100  1
  C  C23  1  0.00149900  0.98666200  0.68640100  1
  C  C24  1  0.99849500  0.98692800  0.31484100  1
  C  C25  1  0.22936500  0.46804000  0.18299000  1
  C  C26  1  0.77085400  0.46769000  0.81665800  1
  C  C27  1  0.72936500  0.96804000  0.18299000  1
  C  C28  1  0.27085400  0.96769000  0.81665800  1
  C  C29  1  0.20709200  0.49403300  0.20106200  1
  C  C30  1  0.79300800  0.49369700  0.79834800  1
  C  C31  1  0.70709200  0.99403300  0.20106200  1
  C  C32  1  0.29300800  0.99369700  0.79834800  1
  C  C33  1  0.22817700  0.51762300  0.26431900  1
  C  C34  1  0.77179700  0.51727400  0.73508300  1
  C  C35  1  0.72817700  0.01762300  0.26431900  1
  C  C36  1  0.27179700  0.01727400  0.73508300  1
  C  C37  1  0.27094000  0.51582400  0.30983200  1
  C  C38  1  0.72901900  0.51547800  0.68982800  1
  C  C39  1  0.77094000  0.01582400  0.30983200  1
  C  C40  1  0.22901900  0.01547800  0.68982800  1
  C  C41  1  0.29306700  0.49019500  0.29250700  1
  C  C42  1  0.70700800  0.48986200  0.70743000  1
  C  C43  1  0.79306700  0.99019500  0.29250700  1
  C  C44  1  0.20700800  0.98986200  0.70743000  1
  C  C45  1  0.27240900  0.46649400  0.22953200  1
  C  C46  1  0.72779700  0.46615400  0.77038400  1
  C  C47  1  0.77240900  0.96649400  0.22953200  1
  C  C48  1  0.22779700  0.96615400  0.77038400  1
  C  C49  1  0.16230200  0.49675900  0.15712400  1
  C  C50  1  0.83779200  0.49652100  0.84214900  1
  C  C51  1  0.66230200  0.99675900  0.15712400  1
  C  C52  1  0.33779200  0.99652100  0.84214900  1
  C  C53  1  0.33775600  0.48860700  0.33938600  1
  C  C54  1  0.66229800  0.48838600  0.66105200  1
  C  C55  1  0.83775600  0.98860700  0.33938600  1
  C  C56  1  0.16229800  0.98838600  0.66105200  1
  C  C57  1  0.37528900  0.48766200  0.37825800  1
  C  C58  1  0.62474300  0.48752200  0.62284900  1
  C  C59  1  0.87528900  0.98766200  0.37825800  1
  C  C60  1  0.12474300  0.98752200  0.62284900  1
  C  C61  1  0.12474800  0.49865000  0.12071700  1
  C  C62  1  0.87534200  0.49848400  0.87851000  1
  C  C63  1  0.62474800  0.99865000  0.12071700  1
  C  C64  1  0.37534200  0.99848400  0.87851000  1
  C  C65  1  0.49988100  0.42081200  0.00050700  1
  C  C66  1  0.99988100  0.92081200  0.00050700  1
  C  C67  1  0.49392200  0.50148600  0.87755200  1
  C  C68  1  0.50588600  0.50153600  0.12346700  1
  C  C69  1  0.99392200  0.00148600  0.87755200  1
  C  C70  1  0.00588600  0.00153600  0.12346700  1
  C  C71  1  0.49992500  0.58077300  0.00047500  1
  C  C72  1  0.99992500  0.08077300  0.00047500  1
  C  C73  1  0.00008800  0.42047000  0.99962600  1
  C  C74  1  0.50008800  0.92047000  0.99962600  1
  C  C75  1  0.07998600  0.49991800  0.07739400  1
  C  C76  1  0.92010200  0.49982200  0.92183000  1
  C  C77  1  0.57998600  0.99991800  0.07739400  1
  C  C78  1  0.42010200  0.99982200  0.92183000  1
  C  C79  1  0.99999100  0.58043800  0.99959800  1
  C  C80  1  0.49999100  0.08043800  0.99959800  1
  C  C81  1  0.97276200  0.72879100  0.01160800  1
  C  C82  1  0.02700000  0.72894400  0.98808500  1
  C  C83  1  0.47276200  0.22879100  0.01160800  1
  C  C84  1  0.52700000  0.22894400  0.98808500  1
  C  C85  1  0.99988800  0.70750600  0.99976900  1
  C  C86  1  0.49988800  0.20750600  0.99976900  1
  C  C87  1  0.52681300  0.27221700  0.98759300  1
  C  C88  1  0.47292800  0.27206200  0.01242900  1
  C  C89  1  0.02681300  0.77221700  0.98759300  1
  C  C90  1  0.97292800  0.77206200  0.01242900  1
  C  C91  1  0.49986800  0.29362900  0.00009900  1
  C  C92  1  0.99986800  0.79362900  0.00009900  1
  C  C93  1  0.99991900  0.66270900  0.99965500  1
  C  C94  1  0.49991900  0.16270900  0.99965500  1
  C  C95  1  0.49986100  0.33848800  0.00027100  1
  C  C96  1  0.99986100  0.83848800  0.00027100  1
  C  C97  1  0.49986400  0.37608000  0.00039600  1
  C  C98  1  0.99986400  0.87608000  0.00039600  1
  C  C99  1  0.99995100  0.62513900  0.99960000  1
  C  C100  1  0.49995100  0.12513900  0.99960000  1
  C  C101  1  0.97416400  0.27205300  0.93556900  1
  C  C102  1  0.02592900  0.27215800  0.06421400  1
  C  C103  1  0.47416400  0.77205300  0.93556900  1
  C  C104  1  0.52592900  0.77215800  0.06421400  1
  C  C105  1  0.00006500  0.29356200  0.99982100  1
  C  C106  1  0.50006500  0.79356200  0.99982100  1
  C  C107  1  0.52589300  0.72919100  0.06435700  1
  C  C108  1  0.47412700  0.72908500  0.93571300  1
  C  C109  1  0.02589300  0.22919100  0.06435700  1
  C  C110  1  0.97412700  0.22908500  0.93571300  1
  C  C111  1  0.49998900  0.70768100  0.00010800  1
  C  C112  1  0.99998900  0.20768100  0.00010800  1
  C  C113  1  0.00008000  0.33824700  0.99969600  1
  C  C114  1  0.50008000  0.83824700  0.99969600  1
  C  C115  1  0.49995600  0.66299600  0.00025500  1
  C  C116  1  0.99995600  0.16299600  0.00025500  1
  C  C117  1  0.49993600  0.62545800  0.00036800  1
  C  C118  1  0.99993600  0.12545800  0.00036800  1
  C  C119  1  0.00008800  0.37578500  0.99963400  1
  C  C120  1  0.50008800  0.87578500  0.99963400  1
  C  C121  1  0.94518600  0.70507500  0.02602500  1
  C  C122  1  0.89121400  0.65334900  0.98429000  1
  C  C123  1  0.90156900  0.60736600  0.99082900  1
  C  C124  1  0.05459100  0.70539400  0.97349600  1
  C  C125  1  0.10857600  0.65372100  0.01482700  1
  C  C126  1  0.09825000  0.60772200  0.00803300  1
  C  C127  1  0.44518600  0.20507500  0.02602500  1
  C  C128  1  0.39121400  0.15334900  0.98429000  1
  C  C129  1  0.40156900  0.10736600  0.99082900  1
  C  C130  1  0.55459100  0.20539400  0.97349600  1
  C  C131  1  0.60857600  0.15372100  0.01482700  1
  C  C132  1  0.59825000  0.10772200  0.00803300  1
  C  C133  1  0.20920500  0.44184200  0.11625700  1
  C  C134  1  0.21505200  0.39063100  0.04417500  1
  C  C135  1  0.24860200  0.36412800  0.04723400  1
  C  C136  1  0.79114200  0.44148900  0.88339900  1
  C  C137  1  0.78546800  0.39044700  0.95591500  1
  C  C138  1  0.75194700  0.36417000  0.95339400  1
  C  C139  1  0.70920500  0.94184200  0.11625700  1
  C  C140  1  0.71505200  0.89063100  0.04417500  1
  C  C141  1  0.74860200  0.86412800  0.04723400  1
  C  C142  1  0.29114200  0.94148900  0.88339900  1
  C  C143  1  0.28546800  0.89044700  0.95591500  1
  C  C144  1  0.25194700  0.86417000  0.95339400  1
  C  C145  1  0.44341900  0.29510800  0.02307000  1
  C  C146  1  0.37542400  0.30318600  0.99773600  1
  C  C147  1  0.33316100  0.28270200  0.95094600  1
  C  C148  1  0.55631200  0.29542000  0.97712600  1
  C  C149  1  0.62430300  0.30367300  0.00252000  1
  C  C150  1  0.66657500  0.28318600  0.04916000  1
  C  C151  1  0.94341900  0.79510800  0.02307000  1
  C  C152  1  0.87542400  0.80318600  0.99773600  1
  C  C153  1  0.83316100  0.78270200  0.95094600  1
  C  C154  1  0.05631200  0.79542000  0.97712600  1
  C  C155  1  0.12430300  0.80367300  0.00252000  1
  C  C156  1  0.16657500  0.78318600  0.04916000  1
  O  O1  1  0.43949300  0.52326100  0.44178300  1
  O  O2  1  0.56056100  0.52303500  0.55516700  1
  O  O3  1  0.93949300  0.02326100  0.44178300  1
  O  O4  1  0.06056100  0.02303500  0.55516700  1
  O  O5  1  0.43943200  0.45133900  0.43834000  1
  O  O6  1  0.56055100  0.45126600  0.55838600  1
  O  O7  1  0.93943200  0.95133900  0.43834000  1
  O  O8  1  0.06055100  0.95126600  0.55838600  1
  O  O9  1  0.49976200  0.52305400  0.58963100  1
  O  O10  1  0.49727200  0.52322500  0.40898400  1
  O  O11  1  0.99976200  0.02305400  0.58963100  1
  O  O12  1  0.99727200  0.02322500  0.40898400  1
  O  O13  1  0.49738100  0.45128200  0.58713700  1
  O  O14  1  0.49951100  0.45128100  0.41102600  1
  O  O15  1  0.99738100  0.95128200  0.58713700  1
  O  O16  1  0.99951100  0.95128100  0.41102600  1
  O  O17  1  0.53547400  0.44019200  0.02689300  1
  O  O18  1  0.46430100  0.44021400  0.97414800  1
  O  O19  1  0.03547400  0.94019200  0.02689300  1
  O  O20  1  0.96430100  0.94021400  0.97414800  1
  O  O21  1  0.53126500  0.50021700  0.93772700  1
  O  O22  1  0.46854100  0.50027600  0.06329200  1
  O  O23  1  0.03126500  0.00021700  0.93772700  1
  O  O24  1  0.96854100  0.00027600  0.06329200  1
  O  O25  1  0.45971300  0.49831500  0.87694100  1
  O  O26  1  0.54009100  0.49833200  0.12407600  1
  O  O27  1  0.95971300  0.99831500  0.87694100  1
  O  O28  1  0.04009100  0.99833200  0.12407600  1
  O  O29  1  0.53567300  0.56138300  0.02976900  1
  O  O30  1  0.46416800  0.56140500  0.97121800  1
  O  O31  1  0.03567300  0.06138300  0.02976900  1
  O  O32  1  0.96416800  0.06140500  0.97121800  1
  O  O33  1  0.00167900  0.43984800  0.05401900  1
  O  O34  1  0.99847900  0.43986500  0.94522700  1
  O  O35  1  0.50167900  0.93984800  0.05401900  1
  O  O36  1  0.49847900  0.93986500  0.94522700  1
  O  O37  1  0.06055400  0.50198200  0.11146600  1
  O  O38  1  0.93953100  0.50192900  0.88775700  1
  O  O39  1  0.56055400  0.00198200  0.11146600  1
  O  O40  1  0.43953100  0.00192900  0.88775700  1
  O  O41  1  0.06064900  0.50201800  0.00581900  1
  O  O42  1  0.93943600  0.50192500  0.99340500  1
  O  O43  1  0.56064900  0.00201800  0.00581900  1
  O  O44  1  0.43943600  0.00192500  0.99340500  1
  O  O45  1  0.00171100  0.56105000  0.05417500  1
  O  O46  1  0.99830200  0.56106900  0.94502900  1
  O  O47  1  0.50171100  0.06105000  0.05417500  1
  O  O48  1  0.49830200  0.06106900  0.94502900  1
  O  O49  1  0.94505800  0.71264100  0.08075500  1
  O  O50  1  0.91978300  0.67548800  0.97792600  1
  O  O51  1  0.05471200  0.71315800  0.91881900  1
  O  O52  1  0.08001600  0.67574100  0.02138300  1
  O  O53  1  0.44505800  0.21264100  0.08075500  1
  O  O54  1  0.41978300  0.17548800  0.97792600  1
  O  O55  1  0.55471200  0.21315800  0.91881900  1
  O  O56  1  0.58001600  0.17574100  0.02138300  1
  O  O57  1  0.17194900  0.44420000  0.07013300  1
  O  O58  1  0.23257400  0.41518200  0.10563400  1
  O  O59  1  0.82846700  0.44365600  0.92911300  1
  O  O60  1  0.76782400  0.41500800  0.89445600  1
  O  O61  1  0.67194900  0.94420000  0.07013300  1
  O  O62  1  0.73257400  0.91518200  0.10563400  1
  O  O63  1  0.32846700  0.94365600  0.92911300  1
  O  O64  1  0.26782400  0.91500800  0.89445600  1
  O  O65  1  0.45542000  0.32419300  0.06608600  1
  O  O66  1  0.40310000  0.28344200  0.98639400  1
  O  O67  1  0.54429600  0.32461100  0.93432200  1
  O  O68  1  0.59663700  0.28378200  0.01371900  1
  O  O69  1  0.95542000  0.82419300  0.06608600  1
  O  O70  1  0.90310000  0.78344200  0.98639400  1
  O  O71  1  0.04429600  0.82461100  0.93432200  1
  O  O72  1  0.09663700  0.78378200  0.01371900  1
