# generated using pymatgen
data_Fe2H35C94S12BrO16
_symmetry_space_group_name_H-M   'P 1'
_cell_length_a   17.42403700
_cell_length_b   22.30379900
_cell_length_c   29.19445300
_cell_angle_alpha   78.16265000
_cell_angle_beta   76.38371700
_cell_angle_gamma   70.35673400
_symmetry_Int_Tables_number   1
_chemical_formula_structural   Fe2H35C94S12BrO16
_chemical_formula_sum   'Fe2 H35 C94 S12 Br1 O16'
_cell_volume   10286.16659513
_cell_formula_units_Z   1
loop_
 _symmetry_equiv_pos_site_id
 _symmetry_equiv_pos_as_xyz
  1  'x, y, z'
loop_
 _atom_site_type_symbol
 _atom_site_label
 _atom_site_symmetry_multiplicity
 _atom_site_fract_x
 _atom_site_fract_y
 _atom_site_fract_z
 _atom_site_occupancy
  Fe  Fe1  1  0.49929500  0.99726800  0.09817400  1
  Fe  Fe2  1  0.52786100  0.01486200  0.88623100  1
  H  H1  1  0.26884300  0.97472800  0.10031300  1
  H  H2  1  0.13504600  0.96595800  0.12889800  1
  H  H3  1  0.27369300  0.99655100  0.89649300  1
  H  H4  1  0.00402600  0.97077900  0.11693000  1
  H  H5  1  0.14754900  0.00024500  0.88214200  1
  H  H6  1  0.88488800  0.00360600  0.10425100  1
  H  H7  1  0.02874100  0.03120000  0.86930400  1
  H  H8  1  0.75796600  0.00898100  0.08992900  1
  H  H9  1  0.89755300  0.03676200  0.85739600  1
  H  H10  1  0.76329800  0.03030500  0.88589500  1
  H  H11  1  0.08146700  0.37891900  0.51201200  1
  H  H12  1  0.83735500  0.57004500  0.52013300  1
  H  H13  1  0.06908000  0.45746300  0.69396500  1
  H  H14  1  0.94352700  0.53976200  0.70238100  1
  H  H15  1  0.88960700  0.51627600  0.32378700  1
  H  H16  1  0.99568700  0.41573400  0.32427100  1
  H  H17  1  0.29787000  0.30855800  0.61017000  1
  H  H18  1  0.15161000  0.21960300  0.40183700  1
  H  H19  1  0.23281500  0.14689600  0.34154900  1
  H  H20  1  0.62103600  0.77145700  0.32374200  1
  H  H21  1  0.69085200  0.69995600  0.38980700  1
  H  H22  1  0.68625100  0.68215700  0.66297200  1
  H  H23  1  0.62851000  0.75891500  0.72341300  1
  H  H24  1  0.28396900  0.34622400  0.80973700  1
  H  H25  1  0.35063300  0.26585700  0.87542300  1
  H  H26  1  0.33289000  0.20103300  0.13287400  1
  H  H27  1  0.23037900  0.27651400  0.19005300  1
  H  H28  1  0.72314700  0.66349200  0.18554000  1
  H  H29  1  0.66117200  0.74456400  0.11827000  1
  H  H30  1  0.79484600  0.80712000  0.86269300  1
  H  H31  1  0.84073600  0.71397200  0.81492800  1
  H  H32  1  0.48805000  0.30717500  0.67883100  1
  H  H33  1  0.62768100  0.24450300  0.64454000  1
  H  H34  1  0.52486600  0.12974900  0.59176200  1
  H  H35  1  0.38511200  0.19163800  0.62638000  1
  C  C1  1  0.25987500  0.98128200  0.06401200  1
  C  C2  1  0.12363400  0.97550000  0.09289100  1
  C  C3  1  0.32086700  0.99337900  0.02736500  1
  C  C4  1  0.30912400  0.00314900  0.98064200  1
  C  C5  1  0.18480200  0.98360200  0.05525800  1
  C  C6  1  0.17096600  0.99369600  0.00944200  1
  C  C7  1  0.23475100  0.00001600  0.97199800  1
  C  C8  1  0.22381000  0.00024200  0.92667200  1
  C  C9  1  0.04718400  0.97977200  0.08539200  1
  C  C10  1  0.02986600  0.99273100  0.03952400  1
  C  C11  1  0.09372200  0.99699200  0.00133200  1
  C  C12  1  0.08093500  0.00433700  0.95515400  1
  C  C13  1  0.14870500  0.00217500  0.91841000  1
  C  C14  1  0.88337500  0.00205200  0.06796500  1
  C  C15  1  0.95116600  0.99953600  0.03118900  1
  C  C16  1  0.93829200  0.00704800  0.98500600  1
  C  C17  1  0.00236300  0.01075400  0.94681100  1
  C  C18  1  0.98529900  0.02304600  0.90091900  1
  C  C19  1  0.80776900  0.00520200  0.05968900  1
  C  C20  1  0.79637900  0.00623200  0.01431400  1
  C  C21  1  0.86071400  0.01117500  0.97689500  1
  C  C22  1  0.84703400  0.02085300  0.93108300  1
  C  C23  1  0.72100100  0.00518300  0.00568900  1
  C  C24  1  0.70939800  0.01410300  0.95897900  1
  C  C25  1  0.90873200  0.02766900  0.89342800  1
  C  C26  1  0.77160800  0.02410900  0.92228100  1
  C  C27  1  0.65482100  0.99341000  0.04505400  1
  C  C28  1  0.56915300  0.87068900  0.13506500  1
  C  C29  1  0.39216000  0.00220800  0.04031700  1
  C  C30  1  0.39469200  0.06970900  0.16650300  1
  C  C31  1  0.64371500  0.90231000  0.85562600  1
  C  C32  1  0.63601600  0.00803000  0.94620000  1
  C  C33  1  0.45527500  0.14346500  0.85464700  1
  C  C34  1  0.37429100  0.01746800  0.94139800  1
  C  C35  1  0.01158000  0.41319800  0.43593400  1
  C  C36  1  0.97834300  0.43977700  0.39554400  1
  C  C37  1  0.91446200  0.49699100  0.39585000  1
  C  C38  1  0.88459600  0.52517600  0.43682600  1
  C  C39  1  0.92010300  0.49942500  0.47717900  1
  C  C40  1  0.98631300  0.44395600  0.47593400  1
  C  C41  1  0.89074700  0.52803600  0.51834600  1
  C  C42  1  0.93171300  0.50405600  0.55664800  1
  C  C43  1  0.00270100  0.45211700  0.55335200  1
  C  C44  1  0.02784900  0.42065400  0.51383100  1
  C  C45  1  0.90454800  0.53229200  0.59803800  1
  C  C46  1  0.94998600  0.51265800  0.63395400  1
  C  C47  1  0.02312100  0.46285500  0.62954100  1
  C  C48  1  0.04811000  0.43261200  0.58977200  1
  C  C49  1  0.07791900  0.43918800  0.66099400  1
  C  C50  1  0.14752200  0.39115300  0.64430300  1
  C  C51  1  0.84155400  0.59412900  0.66485700  1
  C  C52  1  0.91582300  0.54783300  0.67138400  1
  C  C53  1  0.87412800  0.53088600  0.35870200  1
  C  C54  1  0.81263700  0.58638800  0.37117500  1
  C  C55  1  0.07128300  0.34560600  0.37253100  1
  C  C56  1  0.01376500  0.40306500  0.35877500  1
  C  C57  1  0.21440200  0.36035600  0.66743000  1
  C  C58  1  0.79552900  0.63719200  0.69655500  1
  C  C59  1  0.76448200  0.63107400  0.34036500  1
  C  C60  1  0.11402800  0.29729900  0.34449800  1
  C  C61  1  0.31722400  0.31001700  0.72012900  1
  C  C62  1  0.34387100  0.29100000  0.67514300  1
  C  C63  1  0.28576700  0.31819600  0.64636100  1
  C  C64  1  0.15370900  0.23609600  0.36424800  1
  C  C65  1  0.19721300  0.19583700  0.33120400  1
  C  C66  1  0.19493200  0.22571800  0.28509000  1
  C  C67  1  0.69538300  0.70146100  0.27590100  1
  C  C68  1  0.66767600  0.72590000  0.31849400  1
  C  C69  1  0.70588500  0.68663100  0.35450800  1
  C  C70  1  0.71882100  0.67985800  0.69081500  1
  C  C71  1  0.68697200  0.72146100  0.72401800  1
  C  C72  1  0.73927700  0.71234200  0.75536400  1
  C  C73  1  0.35363000  0.27782200  0.75964400  1
  C  C74  1  0.24358000  0.19496800  0.24671100  1
  C  C75  1  0.66540300  0.73729000  0.23227300  1
  C  C76  1  0.72421400  0.75385300  0.78806900  1
  C  C77  1  0.32840200  0.30014500  0.80328200  1
  C  C78  1  0.36475700  0.25700800  0.83887100  1
  C  C79  1  0.41714500  0.20040300  0.82343800  1
  C  C80  1  0.34234200  0.12328100  0.19194900  1
  C  C81  1  0.31441600  0.18561600  0.17026600  1
  C  C82  1  0.25800200  0.22587700  0.20092400  1
  C  C83  1  0.68495400  0.71206000  0.19015800  1
  C  C84  1  0.65118000  0.75558500  0.15397700  1
  C  C85  1  0.60571000  0.81483700  0.16778100  1
  C  C86  1  0.68038200  0.84298400  0.83445600  1
  C  C87  1  0.75691000  0.80085600  0.84067800  1
  C  C88  1  0.78130000  0.75039800  0.81500500  1
  C  C89  1  0.42750300  0.25253700  0.65582000  1
  C  C90  1  0.49584800  0.26773000  0.66022800  1
  C  C91  1  0.57433400  0.23275500  0.64078500  1
  C  C92  1  0.58478600  0.18301300  0.61638200  1
  C  C93  1  0.51668900  0.16853300  0.61113200  1
  C  C94  1  0.43814200  0.20349500  0.63051700  1
  S  S1  1  0.14565900  0.37123300  0.58822300  1
  S  S2  1  0.81053900  0.59608700  0.61005200  1
  S  S3  1  0.80110300  0.59797700  0.43174000  1
  S  S4  1  0.08686200  0.33620900  0.43232200  1
  S  S5  1  0.21825000  0.37134500  0.72593000  1
  S  S6  1  0.12954400  0.30795100  0.28066400  1
  S  S7  1  0.77349300  0.62441700  0.27886400  1
  S  S8  1  0.83209900  0.64601000  0.74652400  1
  S  S9  1  0.42545600  0.19798200  0.76178500  1
  S  S10  1  0.29894800  0.11076000  0.25354600  1
  S  S11  1  0.60144800  0.81958100  0.22877100  1
  S  S12  1  0.63196300  0.82095700  0.79565500  1
  Br  Br1  1  0.69331100  0.13469400  0.58948800  1
  O  O1  1  0.57654600  0.02407300  0.04259600  1
  O  O2  1  0.57293100  0.86466300  0.09075000  1
  O  O3  1  0.67362400  0.94883400  0.08109100  1
  O  O4  1  0.53837400  0.92770200  0.14936700  1
  O  O5  1  0.42844500  0.96089300  0.07361600  1
  O  O6  1  0.40849900  0.05710600  0.02608400  1
  O  O7  1  0.44749200  0.07879400  0.12749400  1
  O  O8  1  0.38750000  0.01211100  0.18257100  1
  O  O9  1  0.56560400  0.93521500  0.85475800  1
  O  O10  1  0.68954400  0.92290700  0.87455600  1
  O  O11  1  0.61053000  0.04289400  0.90742000  1
  O  O12  1  0.60756100  0.95973900  0.96699100  1
  O  O13  1  0.35386000  0.05945300  0.90429900  1
  O  O14  1  0.48806000  0.08831900  0.83770400  1
  O  O15  1  0.45307800  0.99044300  0.94423200  1
  O  O16  1  0.45095100  0.14615300  0.89970400  1
