# Generated by REPEAT Assigner based on pymatgen
data_DB0-m3_o90_o23_f0_fsc.sym.1_sqe
_audit_creation_date              2022-05-24
_audit_creation_method            REPEAT_Assigner
_cell_length_a                    6.594336
_cell_length_b                    14.240729
_cell_length_c                    15.918945
_cell_angle_alpha                 96.103385
_cell_angle_beta                  81.460768
_cell_angle_gamma                 89.906741
_cell_volume                      1469.736285
_symmetry_space_group_name_H-M    P1
_symmetry_Int_Tables_number       1
loop_
    _symmetry_equiv_pos_site_id
    _symmetry_equiv_pos_as_xyz
    1  x,y,z
loop_
    _atom_site_type_symbol
    _atom_site_label
    _atom_site_fract_x
    _atom_site_fract_y
    _atom_site_fract_z
    _atom_type_partial_charge
    C   C1   0.326561  0.009090  0.696516  -0.142008
    C   C2   0.196244  0.003050  0.771894  0.158796
    H   H1   0.035728  0.989601  0.770383  0.009053
    C   C3   0.268396  0.014865  0.849048  -0.471791
    C   C4   0.472204  0.033959  0.851185  0.111149
    H   H2   0.529743  0.043573  0.911611  0.005296
    C   C5   0.603761  0.038540  0.775899  -0.138522
    H   H3   0.764651  0.050777  0.777610  0.119343
    C   C6   0.532567  0.025122  0.698252  -0.069360
    N   N1   0.197636  0.018718  0.003629  -0.258891
    N   N2   0.070327  0.011472  0.074996  -0.307270
    C   C7   0.871482  0.992707  0.071995  0.776867
    N   N3   0.802081  0.981401  0.996340  -0.260058
    N   N4   0.929390  0.988647  0.924973  -0.305695
    C   C8   0.128235  0.007412  0.927974  0.773066
    C   C9   0.527513  0.966159  0.148784  0.111001
    H   H4   0.469972  0.956547  0.088358  0.005190
    C   C10  0.395955  0.961579  0.224071  -0.134427
    H   H5   0.235066  0.949341  0.222359  0.117974
    C   C11  0.467149  0.974997  0.301718  -0.070944
    C   C12  0.673156  0.991028  0.303454  -0.149218
    C   C13  0.803472  0.997067  0.228075  0.165968
    H   H6   0.963989  0.010516  0.229586  0.008462
    C   C14  0.731321  0.985253  0.150921  -0.476855
    O   O1   0.754247  0.931555  0.590621  -0.732847
    O   O2   0.762724  0.093782  0.592520  -0.748151
    C   C15  0.682650  0.016532  0.620425  0.921975
    O   O3   0.183280  0.085512  0.593387  -0.724775
    O   O4   0.176240  0.922839  0.586325  -0.713238
    C   C16  0.236360  0.005101  0.618041  0.831833
    O   O5   0.245469  0.068564  0.409349  -0.733422
    O   O6   0.236992  0.906337  0.407450  -0.749909
    C   C17  0.317066  0.983586  0.379545  0.924565
    O   O7   0.816436  0.914607  0.406583  -0.724846
    O   O8   0.823476  0.077280  0.413645  -0.715472
    C   C18  0.763358  0.995018  0.381929  0.835861
    Zn  Zn1  0.008862  0.105070  0.502747  1.111797
    Zn  Zn2  0.990854  0.895049  0.497223  1.110789
    C   C19  0.846475  0.436313  0.449498  -0.106591
    C   C20  0.214264  0.446306  0.462344  -0.171344
    C   C21  0.190915  0.548738  0.447307  -0.104705
    H   H7   0.807275  0.566913  0.396159  0.062645
    H   H8   0.898800  0.411213  0.381343  0.035472
    H   H9   0.327629  0.440063  0.506496  0.048920
    H   H10  0.266997  0.403421  0.400610  0.064774
    H   H11  0.188685  0.553642  0.378386  0.035951
    H   H12  0.321171  0.589432  0.468212  0.030465
    N   N5   0.977707  0.771735  0.494797  0.033688
    C   C22  0.008828  0.411844  0.502074  0.643414
    C   C23  0.813992  0.542445  0.459556  -0.164769
    C   C24  0.990800  0.588283  0.497957  0.634363
    C   C25  0.978268  0.566031  0.589492  -0.130818
    C   C26  0.954924  0.460549  0.591921  -0.135565
    C   C27  0.981774  0.690645  0.495837  -0.268048
    C   C28  0.017908  0.309477  0.504156  -0.270173
    N   N6   0.022008  0.228384  0.505174  0.033604
    H   H13  0.793962  0.444969  0.617104  0.035816
    H   H14  0.058955  0.435002  0.633639  0.054665
    H   H15  0.844372  0.603573  0.629483  0.054648
    H   H16  0.700360  0.402015  0.471806  0.029900
    H   H17  0.668595  0.561589  0.502746  0.047546
    H   H18  0.120949  0.588925  0.614200  0.034854
