# Generated by REPEAT Assigner based on pymatgen
data_DB0-m2_o2_o22_f0_pcu.sym.3
_audit_creation_date              2022-05-24
_audit_creation_method            REPEAT_Assigner
_cell_length_a                    15.123460
_cell_length_b                    13.647548
_cell_length_c                    10.729279
_cell_angle_alpha                 90.000000
_cell_angle_beta                  90.003101
_cell_angle_gamma                 90.000000
_cell_volume                      2214.503152
_symmetry_space_group_name_H-M    P1
_symmetry_Int_Tables_number       1
loop_
    _symmetry_equiv_pos_site_id
    _symmetry_equiv_pos_as_xyz
    1  x,y,z
loop_
    _atom_site_type_symbol
    _atom_site_label
    _atom_site_fract_x
    _atom_site_fract_y
    _atom_site_fract_z
    _atom_type_partial_charge
    O   O1   0.377447  0.585671  0.493791  -0.498600
    O   O2   0.377297  0.417927  0.509835  -0.537518
    C   C1   0.335744  0.501600  0.502975  0.548395
    O   O3   0.511975  0.586035  0.320786  -0.529126
    O   O4   0.500075  0.418194  0.321167  -0.625488
    C   C2   0.506897  0.501766  0.261516  0.633723
    Cu  Cu1  0.505727  0.599776  0.502206  0.844951
    Cu  Cu2  0.506264  0.404021  0.501643  0.890162
    O   O5   0.634343  0.585982  0.501766  -0.591335
    O   O6   0.634215  0.417728  0.502909  -0.548558
    O   O7   0.506236  0.585960  0.682998  -0.678636
    O   O8   0.505119  0.417451  0.683408  -0.703389
    C   C3   0.675737  0.502052  0.503642  0.622402
    C   C4   0.505702  0.501859  0.741576  0.736136
    C   C5   0.425554  0.553441  0.070602  0.119671
    C   C6   0.503729  0.394052  0.070191  0.108467
    H   H1   0.368685  0.507596  0.098949  0.015602
    H   H2   0.437275  0.365630  0.095110  0.003758
    C   C7   0.424776  0.552773  0.928898  -0.226873
    C   C8   0.507326  0.396880  0.928763  -0.111719
    H   H3   0.365807  0.511706  0.896905  0.035201
    H   H4   0.449430  0.355822  0.892495  0.036107
    H   H5   0.420642  0.627628  0.889552  0.017416
    H   H6   0.569009  0.361111  0.896543  -0.002621
    H   H7   0.599482  0.625251  0.107829  -0.026216
    H   H8   0.653539  0.512148  0.093015  -0.030245
    H   H9   0.588378  0.631341  0.894445  -0.002872
    H   H10  0.647760  0.517357  0.888850  0.001378
    C   C9   0.592115  0.550815  0.068623  0.106541
    C   C10  0.509114  0.500540  0.120655  -0.174726
    C   C11  0.506442  0.501554  0.881005  0.275594
    C   C12  0.588291  0.554255  0.927197  -0.062190
    C   C13  0.101454  0.586390  0.481636  -0.196680
    C   C14  0.101561  0.418226  0.541364  -0.182927
    H   H11  0.068014  0.653228  0.455800  0.114105
    H   H12  0.067917  0.352324  0.570579  0.117201
    C   C15  0.192575  0.586505  0.481634  -0.072529
    C   C16  0.192693  0.417627  0.537544  -0.070819
    H   H13  0.227048  0.653355  0.458969  0.129546
    H   H14  0.226964  0.350556  0.560871  0.102034
    C   C17  0.238817  0.501832  0.507257  -0.025089
    C   C18  0.054697  0.502333  0.511426  0.109684
    C   C19  0.910310  0.417673  0.482090  -0.187300
    C   C20  0.909843  0.586141  0.540725  -0.180173
    H   H15  0.943806  0.350895  0.456315  0.114598
    H   H16  0.942907  0.652536  0.569375  0.115061
    C   C21  0.819055  0.417475  0.481703  -0.084510
    C   C22  0.818682  0.586362  0.536558  -0.060504
    H   H17  0.784383  0.350829  0.458502  0.123454
    H   H18  0.783930  0.653108  0.558959  0.098746
    C   C23  0.772723  0.502010  0.507270  -0.044703
    C   C24  0.956911  0.501957  0.511516  0.113562
    C   C25  0.576431  0.106491  0.548392  -0.244421
    C   C26  0.575840  0.897590  0.456114  -0.214641
    H   H19  0.634177  0.067876  0.582844  0.116194
    H   H20  0.631115  0.936428  0.415531  0.127750
    C   C27  0.574998  0.207430  0.549537  0.080910
    C   C28  0.575430  0.796668  0.454467  0.040070
    H   H21  0.631759  0.245532  0.586896  0.085481
    H   H22  0.630148  0.758494  0.411831  0.104171
    N   N1   0.505204  0.257349  0.502394  -0.028011
    N   N2   0.506203  0.746484  0.502299  -0.067416
    C   C29  0.434226  0.208706  0.459392  -0.003160
    C   C30  0.435910  0.794586  0.548136  0.128738
    H   H23  0.378988  0.248695  0.421235  0.100379
    H   H24  0.380298  0.753698  0.583792  0.057962
    C   C31  0.432613  0.107680  0.460315  -0.212847
    C   C32  0.432974  0.895854  0.547538  -0.253558
    H   H25  0.376616  0.070157  0.420901  0.142087
    H   H26  0.375423  0.933518  0.583222  0.113373
    C   C33  0.504117  0.055614  0.504451  0.168221
    C   C34  0.504330  0.948178  0.502785  0.140934
    C   C35  0.406967  0.655126  0.121222  0.142628
    C   C36  0.334606  0.668198  0.198875  -0.179950
    C   C37  0.312454  0.760346  0.241905  -0.187559
    C   C38  0.362369  0.840389  0.209026  0.032710
    C   C39  0.433150  0.828941  0.130249  -0.220279
    C   C40  0.454963  0.737371  0.085627  -0.113933
    H   H27  0.294010  0.606802  0.226491  0.098316
    H   H28  0.255169  0.770321  0.300636  0.108441
    H   H29  0.344679  0.912454  0.242413  0.046847
    H   H30  0.470770  0.892282  0.101258  0.114264
    H   H31  0.508538  0.732890  0.020059  0.130035
    C   C41  0.567326  0.314362  0.112486  0.160843
    C   C42  0.641938  0.327595  0.186846  -0.134986
    C   C43  0.695829  0.249083  0.215433  -0.173811
    C   C44  0.676413  0.156585  0.172647  -0.065913
    C   C45  0.601073  0.141746  0.103685  -0.147105
    C   C46  0.547273  0.219909  0.074122  -0.153543
    H   H32  0.658956  0.397219  0.226944  0.116612
    H   H33  0.753689  0.259988  0.272691  0.101245
    H   H34  0.719361  0.095615  0.194857  0.078545
    H   H35  0.584095  0.068693  0.072753  0.103100
    H   H36  0.488180  0.206412  0.019872  0.083122
