# Generated by REPEAT Assigner based on pymatgen
data_DB0-m3_o480_o13_f0_fsc.sym.24
_audit_creation_date              2022-05-24
_audit_creation_method            REPEAT_Assigner
_cell_length_a                    11.503109
_cell_length_b                    8.528872
_cell_length_c                    10.843098
_cell_angle_alpha                 90.000000
_cell_angle_beta                  95.240812
_cell_angle_gamma                 90.000000
_cell_volume                      1059.353456
_symmetry_space_group_name_H-M    P1
_symmetry_Int_Tables_number       1
loop_
    _symmetry_equiv_pos_site_id
    _symmetry_equiv_pos_as_xyz
    1  x,y,z
loop_
    _atom_site_type_symbol
    _atom_site_label
    _atom_site_fract_x
    _atom_site_fract_y
    _atom_site_fract_z
    _atom_type_partial_charge
    C   C1   0.997144  0.041951  0.564223  0.101226
    C   C2   0.002855  0.041951  0.435777  0.101480
    C   C3   0.992765  0.184167  0.626926  0.124395
    C   C4   0.007235  0.184167  0.373074  0.124070
    C   C5   0.996619  0.323797  0.562999  -0.218023
    C   C6   0.003381  0.323797  0.437002  -0.217638
    C   C7   0.017558  0.185129  0.246523  -0.122487
    C   C8   0.982442  0.185129  0.753478  -0.122617
    C   C9   0.031077  0.046506  0.185951  -0.164014
    C   C10  0.968923  0.046506  0.814050  -0.163979
    C   C11  0.016457  0.906404  0.243586  0.004048
    C   C12  0.983543  0.906404  0.756414  0.004034
    C   C13  0.999964  0.903085  0.367381  -0.296261
    C   C14  0.000035  0.903085  0.632620  -0.296189
    H   H1   0.993227  0.434918  0.610345  0.128832
    H   H2   0.006773  0.434918  0.389655  0.128765
    H   H3   0.984342  0.789680  0.405604  0.145352
    H   H4   0.015657  0.789681  0.594396  0.145339
    H   H5   0.953675  0.047972  0.910181  0.138502
    H   H6   0.046325  0.047972  0.089819  0.138504
    O   O1   0.907279  0.376028  0.124878  -0.682371
    O   O2   0.092721  0.376028  0.875122  -0.682383
    O   O3   0.108160  0.381258  0.132665  -0.661600
    O   O4   0.891839  0.381258  0.867335  -0.661605
    C   C15  0.010856  0.326978  0.170167  0.804343
    C   C16  0.989144  0.326978  0.829833  0.804411
    O   O5   0.093298  0.714964  0.876049  -0.675726
    O   O6   0.906701  0.714964  0.123951  -0.675724
    O   O7   0.891888  0.709328  0.867885  -0.637429
    O   O8   0.108112  0.709328  0.132115  -0.637425
    C   C17  0.989674  0.764569  0.831803  0.759624
    C   C18  0.010326  0.764569  0.168197  0.759641
    Zn  Zn1  0.130219  0.544931  0.002683  1.021528
    Zn  Zn2  0.869781  0.544931  0.997317  1.021514
    N   N1   0.716603  0.544634  0.991089  -0.135025
    N   N2   0.283397  0.544634  0.008911  -0.135035
    C   C19  0.450458  0.547049  0.155285  0.636087
    C   C20  0.549542  0.547049  0.844715  0.636084
    C   C21  0.331954  0.550674  0.126408  -0.249439
    C   C22  0.668046  0.550674  0.873592  -0.249447
    C   C23  0.352946  0.535422  0.914840  0.493107
    C   C24  0.647054  0.535423  0.085160  0.493101
    C   C25  0.474940  0.542486  0.939089  -0.308211
    C   C26  0.525059  0.542486  0.060911  -0.308206
    H   H7   0.722433  0.554797  0.797753  0.160766
    H   H8   0.277567  0.554797  0.202247  0.160755
    N   N3   0.697877  0.507686  0.207921  -0.722147
    H   H9   0.765667  0.585993  0.230541  0.294637
    H   H10  0.727025  0.392046  0.214882  0.301908
    N   N4   0.302123  0.507686  0.792079  -0.722149
    H   H11  0.234333  0.585993  0.769459  0.294640
    H   H12  0.272975  0.392046  0.785118  0.301909
    N   N5   0.490413  0.555863  0.283582  -0.978375
    H   H13  0.545550  0.652359  0.299837  0.368615
    H   H14  0.528905  0.450038  0.313501  0.368023
    N   N6   0.509587  0.555863  0.716418  -0.978381
    H   H15  0.454450  0.652359  0.700164  0.368618
    H   H16  0.471095  0.450038  0.686499  0.368027
