# Generated by REPEAT Assigner based on pymatgen
data_DB0-m3_o24_o151_f0_fsc.sym.16
_audit_creation_date              2022-05-24
_audit_creation_method            REPEAT_Assigner
_cell_length_a                    8.543714
_cell_length_b                    19.357345
_cell_length_c                    9.171320
_cell_angle_alpha                 91.016302
_cell_angle_beta                  90.081119
_cell_angle_gamma                 90.022824
_cell_volume                      1516.545866
_symmetry_space_group_name_H-M    P1
_symmetry_Int_Tables_number       1
loop_
    _symmetry_equiv_pos_site_id
    _symmetry_equiv_pos_as_xyz
    1  x,y,z
loop_
    _atom_site_type_symbol
    _atom_site_label
    _atom_site_fract_x
    _atom_site_fract_y
    _atom_site_fract_z
    _atom_type_partial_charge
    H   H1   0.003107  0.549690  0.074150  0.135169
    H   H2   0.996585  0.452712  0.953366  0.133907
    C   C1   0.140666  0.636872  0.021721  0.008362
    C   C2   0.859168  0.363503  0.988269  0.010197
    C   C3   0.140351  0.706777  0.994818  -0.187361
    C   C4   0.860138  0.292971  0.008056  -0.190966
    H   H3   0.251201  0.733169  0.987437  0.134574
    H   H4   0.751051  0.265178  0.018216  0.130147
    C   C5   0.998980  0.742102  0.985773  -0.073612
    C   C6   0.001227  0.257674  0.004625  -0.067391
    C   C7   0.859849  0.704821  0.987862  0.297722
    C   C8   0.140865  0.293720  0.997438  0.279394
    C   C9   0.861880  0.635765  0.021777  -0.202710
    C   C10  0.138435  0.364498  0.984684  -0.193319
    C   C11  0.001927  0.603442  0.046757  -0.168824
    C   C12  0.997966  0.397979  0.970764  -0.171025
    C   C13  0.917700  0.074744  0.099461  -0.152761
    C   C14  0.120735  0.925540  0.922721  -0.155121
    H   H5   0.855159  0.048324  0.183936  0.110471
    H   H6   0.222321  0.951281  0.880021  0.121064
    C   C15  0.915850  0.146034  0.102451  -0.154253
    C   C16  0.118327  0.854227  0.917223  -0.174448
    H   H7   0.849329  0.173376  0.185355  0.115516
    H   H8   0.214030  0.827546  0.864226  0.125690
    C   C17  0.003208  0.182278  0.003733  0.176393
    C   C18  0.996146  0.818119  0.978684  0.170927
    C   C19  0.089487  0.147061  0.899792  -0.181400
    C   C20  0.875352  0.854899  0.043520  -0.189499
    H   H9   0.154785  0.175283  0.819414  0.128678
    H   H10  0.782347  0.829107  0.100406  0.133858
    C   C21  0.085850  0.075908  0.892035  -0.124835
    C   C22  0.874609  0.926062  0.043900  -0.130101
    H   H11  0.147099  0.050564  0.803403  0.105140
    H   H12  0.774640  0.952125  0.090713  0.113929
    C   C23  0.000857  0.038761  0.992627  0.059190
    C   C24  0.998539  0.962399  0.985793  0.078656
    O   O1   0.670629  0.566321  0.138187  -0.705425
    O   O2   0.329817  0.433638  0.870218  -0.706266
    O   O3   0.664646  0.575965  0.887782  -0.729859
    O   O4   0.335099  0.424206  0.120698  -0.743662
    C   C25  0.720398  0.593453  0.016563  0.909645
    C   C26  0.280210  0.406419  0.991476  0.924767
    O   O5   0.668126  0.432518  0.871437  -0.721231
    O   O6   0.332040  0.567617  0.137316  -0.712292
    O   O7   0.661483  0.422918  0.121799  -0.692004
    O   O8   0.338149  0.577050  0.887019  -0.694395
    C   C27  0.716307  0.404795  0.993128  0.813553
    C   C28  0.283297  0.595209  0.015949  0.807098
    Zn  Zn1  0.500253  0.504086  0.842157  1.003328
    Zn  Zn2  0.499768  0.496006  0.166450  0.998420
    C   C29  0.381907  0.531800  0.549484  0.237034
    C   C30  0.618095  0.468315  0.459129  0.252076
    C   C31  0.379394  0.466805  0.457913  -0.270520
    C   C32  0.620612  0.533310  0.550699  -0.284099
    H   H13  0.275923  0.437392  0.418171  0.185411
    H   H14  0.724084  0.562722  0.590439  0.187352
    N   N1   0.499246  0.492532  0.357660  0.247790
    N   N2   0.500758  0.507586  0.650952  0.262106
    C   C33  0.499567  0.556832  0.443691  0.314091
    C   C34  0.500438  0.443285  0.564921  0.290344
    F   F1   0.495927  0.620199  0.376691  -0.214991
    F   F2   0.504114  0.379917  0.631924  -0.204850
    F   F3   0.721567  0.734889  0.954167  -0.204694
    F   F4   0.279301  0.259811  0.004786  -0.203816
    F   F5   0.253375  0.568876  0.598010  -0.197188
    F   F6   0.746624  0.431233  0.410615  -0.199077
