# generated using pymatgen
data_Zn3H48(C29O6)2
_symmetry_space_group_name_H-M   'P 1'
_cell_length_a   38.92813500
_cell_length_b   38.94878000
_cell_length_c   23.81049500
_cell_angle_alpha   90.00000000
_cell_angle_beta   90.00000000
_cell_angle_gamma   90.00000000
_symmetry_Int_Tables_number   1
_chemical_formula_structural   Zn3H48(C29O6)2
_chemical_formula_sum   'Zn12 H192 C232 O48'
_cell_volume   36101.55266335
_cell_formula_units_Z   4
loop_
 _symmetry_equiv_pos_site_id
 _symmetry_equiv_pos_as_xyz
  1  'x, y, z'
loop_
 _atom_site_type_symbol
 _atom_site_label
 _atom_site_symmetry_multiplicity
 _atom_site_fract_x
 _atom_site_fract_y
 _atom_site_fract_z
 _atom_site_occupancy
  Zn  Zn1  1  0.50194400  0.03951600  0.49986100  1
  Zn  Zn2  1  0.96158400  0.49775000  0.49997500  1
  Zn  Zn3  1  0.50194700  0.96178600  0.49982400  1
  Zn  Zn4  1  0.03934400  0.49788500  0.50008700  1
  Zn  Zn5  1  0.00035900  0.53941100  0.00004400  1
  Zn  Zn6  1  0.45995600  0.99792000  0.99971800  1
  Zn  Zn7  1  0.00033600  0.46158400  0.99997700  1
  Zn  Zn8  1  0.53771800  0.99785700  0.99998100  1
  Zn  Zn9  1  0.00217300  0.99745600  0.56405300  1
  Zn  Zn10  1  0.00249400  0.99727000  0.43658800  1
  Zn  Zn11  1  0.50008700  0.49744400  0.06332800  1
  Zn  Zn12  1  0.50040000  0.49741200  0.93588700  1
  H  H1  1  0.89341500  0.02043800  0.41711500  1
  H  H2  1  0.97521000  0.88867700  0.42313100  1
  H  H3  1  0.11148300  0.97143100  0.42306300  1
  H  H4  1  0.02336400  0.10667700  0.41640700  1
  H  H5  1  0.11113600  0.02352400  0.58066800  1
  H  H6  1  0.02857600  0.88805800  0.57966700  1
  H  H7  1  0.89299400  0.97511100  0.58043900  1
  H  H8  1  0.98138600  0.10630700  0.58209400  1
  H  H9  1  0.39129600  0.52400100  0.91959800  1
  H  H10  1  0.47306600  0.38864000  0.92258400  1
  H  H11  1  0.60953700  0.47240700  0.92172400  1
  H  H12  1  0.52136900  0.60681200  0.91616300  1
  H  H13  1  0.60915300  0.52305900  0.08058200  1
  H  H14  1  0.52733900  0.38824100  0.07826600  1
  H  H15  1  0.39096000  0.47113400  0.07656700  1
  H  H16  1  0.47878400  0.60629900  0.08142400  1
  H  H17  1  0.83144500  0.02243400  0.41781400  1
  H  H18  1  0.97320900  0.82674700  0.42378700  1
  H  H19  1  0.17348800  0.97022900  0.42397200  1
  H  H20  1  0.02457800  0.16866300  0.41726500  1
  H  H21  1  0.17309100  0.02567800  0.57967700  1
  H  H22  1  0.02973300  0.82608200  0.57843000  1
  H  H23  1  0.83096100  0.97439200  0.57979600  1
  H  H24  1  0.97977500  0.16825500  0.58174700  1
  H  H25  1  0.32933900  0.52606500  0.92059900  1
  H  H26  1  0.47136200  0.32668800  0.92323400  1
  H  H27  1  0.67153800  0.47118700  0.92265900  1
  H  H28  1  0.52249800  0.66878900  0.91709800  1
  H  H29  1  0.67110900  0.52516300  0.07972400  1
  H  H30  1  0.52883900  0.32628800  0.07695200  1
  H  H31  1  0.32894500  0.47007000  0.07571800  1
  H  H32  1  0.47705700  0.66825300  0.08111900  1
  H  H33  1  0.78345000  0.00746100  0.58770800  1
  H  H34  1  0.99899100  0.77803700  0.59075100  1
  H  H35  1  0.22163800  0.99597900  0.59165400  1
  H  H36  1  0.01191400  0.21629700  0.58822000  1
  H  H37  1  0.22144800  0.00086700  0.41182000  1
  H  H38  1  0.00331500  0.77839100  0.41090800  1
  H  H39  1  0.78321200  0.99050000  0.40995600  1
  H  H40  1  0.99209300  0.21653200  0.41125000  1
  H  H41  1  0.28099900  0.50097500  0.08819100  1
  H  H42  1  0.49852500  0.27811900  0.08984500  1
  H  H43  1  0.71971500  0.49548000  0.09106300  1
  H  H44  1  0.50894200  0.71641400  0.08794400  1
  H  H45  1  0.71967100  0.50166300  0.91135000  1
  H  H46  1  0.50142300  0.27838400  0.90991800  1
  H  H47  1  0.28074100  0.49619000  0.90838700  1
  H  H48  1  0.49002500  0.71658700  0.91070500  1
  H  H49  1  0.72177100  0.00605200  0.58815800  1
  H  H50  1  0.00104700  0.71652700  0.59038900  1
  H  H51  1  0.28307600  0.99934500  0.59155600  1
  H  H52  1  0.00929700  0.27786600  0.58910100  1
  H  H53  1  0.28294300  0.99887900  0.41167600  1
  H  H54  1  0.00024000  0.71693200  0.41054000  1
  H  H55  1  0.72161200  0.99358900  0.40950300  1
  H  H56  1  0.99405600  0.27813400  0.41101600  1
  H  H57  1  0.21944600  0.49927700  0.08838500  1
  H  H58  1  0.50092700  0.21664800  0.08954500  1
  H  H59  1  0.78116200  0.49870500  0.09115500  1
  H  H60  1  0.50617700  0.77796900  0.08876600  1
  H  H61  1  0.78116800  0.49960000  0.91129200  1
  H  H62  1  0.49862600  0.21691400  0.90972300  1
  H  H63  1  0.21925600  0.49957400  0.90853800  1
  H  H64  1  0.49188900  0.77817900  0.91046400  1
  H  H65  1  0.67430300  0.96317400  0.43371000  1
  H  H66  1  0.03250100  0.67016300  0.42886400  1
  H  H67  1  0.32911000  0.03175900  0.43005400  1
  H  H68  1  0.96334200  0.32491900  0.43649500  1
  H  H69  1  0.32995200  0.96750800  0.57305200  1
  H  H70  1  0.96800100  0.67038500  0.57150000  1
  H  H71  1  0.67520200  0.03768700  0.56388800  1
  H  H72  1  0.03946900  0.32508100  0.56418200  1
  H  H73  1  0.17223600  0.46775900  0.92740200  1
  H  H74  1  0.53109200  0.17021300  0.92723000  1
  H  H75  1  0.82749400  0.53211400  0.93025900  1
  H  H76  1  0.46101400  0.82492800  0.93532800  1
  H  H77  1  0.82811300  0.46707400  0.07227400  1
  H  H78  1  0.46802500  0.17034900  0.07163600  1
  H  H79  1  0.17340100  0.53252200  0.06973200  1
  H  H80  1  0.53629000  0.82528700  0.06439700  1
  H  H81  1  0.60256800  0.94500500  0.30411800  1
  H  H82  1  0.56000400  0.94690800  0.33470400  1
  H  H83  1  0.57391500  0.97969300  0.28590900  1
  H  H84  1  0.57575800  0.00112700  0.38368900  1
  H  H85  1  0.61819600  0.99901700  0.35352700  1
  H  H86  1  0.62675200  0.94178900  0.39741100  1
  H  H87  1  0.58661500  0.94422300  0.43160500  1
  H  H88  1  0.07283600  0.58117700  0.32308700  1
  H  H89  1  0.02891300  0.58188800  0.29798000  1
  H  H90  1  0.05928200  0.61357200  0.27343700  1
  H  H91  1  0.01892100  0.63711700  0.34501800  1
  H  H92  1  0.06373100  0.63849500  0.36721600  1
  H  H93  1  0.05642600  0.58767800  0.42471400  1
  H  H94  1  0.01425300  0.58034400  0.39539800  1
  H  H95  1  0.41763600  0.07320200  0.32418300  1
  H  H96  1  0.41712300  0.02936800  0.29877000  1
  H  H97  1  0.38516700  0.05958800  0.27468200  1
  H  H98  1  0.36205200  0.01892700  0.34613200  1
  H  H99  1  0.36048500  0.06363600  0.36872800  1
  H  H100  1  0.41167600  0.05642300  0.42554400  1
  H  H101  1  0.41893400  0.01430000  0.39607000  1
  H  H102  1  0.94156800  0.39722500  0.30829400  1
  H  H103  1  0.94432000  0.43967000  0.33906600  1
  H  H104  1  0.97600700  0.42575500  0.28836100  1
  H  H105  1  0.99932600  0.42361300  0.38511200  1
  H  H106  1  0.99673200  0.38137200  0.35443600  1
  H  H107  1  0.94067300  0.37206600  0.40115500  1
  H  H108  1  0.94295600  0.41219600  0.43523000  1
  H  H109  1  0.41948700  0.92930100  0.67992000  1
  H  H110  1  0.41885700  0.97360500  0.70304400  1
  H  H111  1  0.38733600  0.94365800  0.72942500  1
  H  H112  1  0.36346400  0.98285300  0.65624300  1
  H  H113  1  0.36174000  0.93767100  0.63642900  1
  H  H114  1  0.41193500  0.94354700  0.57720200  1
  H  H115  1  0.42020200  0.98591800  0.60494000  1
  H  H116  1  0.92635200  0.58159100  0.67639200  1
  H  H117  1  0.97023700  0.58176100  0.70169800  1
  H  H118  1  0.94017900  0.61372400  0.72629600  1
  H  H119  1  0.98090500  0.63699200  0.65505400  1
  H  H120  1  0.93615700  0.63888900  0.63261300  1
  H  H121  1  0.94305800  0.58805600  0.57496400  1
  H  H122  1  0.98514200  0.58032900  0.60435900  1
  H  H123  1  0.60324000  0.05872400  0.69279500  1
  H  H124  1  0.56069000  0.05634200  0.66225900  1
  H  H125  1  0.57469100  0.02415400  0.71202500  1
  H  H126  1  0.57657300  0.00176200  0.61468500  1
  H  H127  1  0.61892900  0.00406100  0.64509100  1
  H  H128  1  0.62810500  0.06053000  0.59965400  1
  H  H129  1  0.58780700  0.05851900  0.56590400  1
  H  H130  1  0.06025400  0.39778600  0.69291400  1
  H  H131  1  0.05743400  0.44013100  0.66179000  1
  H  H132  1  0.02561800  0.42623100  0.71227800  1
  H  H133  1  0.00266300  0.42370200  0.61534500  1
  H  H134  1  0.00533900  0.38155500  0.64633800  1
  H  H135  1  0.06154000  0.37230300  0.60020000  1
  H  H136  1  0.05933000  0.41238500  0.56594500  1
  H  H137  1  0.08220500  0.42748000  0.82345300  1
  H  H138  1  0.08319500  0.47125400  0.79781200  1
  H  H139  1  0.11448100  0.44050500  0.77318900  1
  H  H140  1  0.13880200  0.48091500  0.84395200  1
  H  H141  1  0.13986300  0.43623700  0.86675900  1
  H  H142  1  0.08931500  0.44435600  0.92479800  1
  H  H143  1  0.08232200  0.48642100  0.89499600  1
  H  H144  1  0.57017000  0.08103100  0.82035200  1
  H  H145  1  0.52590500  0.08163800  0.79691600  1
  H  H146  1  0.55587200  0.11329400  0.77102300  1
  H  H147  1  0.51646500  0.13690300  0.84403700  1
  H  H148  1  0.56158600  0.13851400  0.86441300  1
  H  H149  1  0.55536100  0.08789800  0.92269800  1
  H  H150  1  0.51288700  0.08017400  0.89488000  1
  H  H151  1  0.91606700  0.57401500  0.82508400  1
  H  H152  1  0.91572600  0.53026600  0.79926900  1
  H  H153  1  0.88372700  0.56047900  0.77530200  1
  H  H154  1  0.86056300  0.51954000  0.84625600  1
  H  H155  1  0.85889400  0.56416000  0.86929900  1
  H  H156  1  0.90997600  0.55680600  0.92631400  1
  H  H157  1  0.91739900  0.51483800  0.89635900  1
  H  H158  1  0.43986900  0.89730200  0.80686000  1
  H  H159  1  0.44251900  0.93973900  0.83767900  1
  H  H160  1  0.47448700  0.92576300  0.78749700  1
  H  H161  1  0.49720300  0.92355900  0.88465500  1
  H  H162  1  0.49472100  0.88133400  0.85389400  1
  H  H163  1  0.43839100  0.87207700  0.89972300  1
  H  H164  1  0.44049300  0.91224100  0.93376800  1
  H  H165  1  0.91738300  0.42822500  0.17899600  1
  H  H166  1  0.91697600  0.47245700  0.20250400  1
  H  H167  1  0.88529000  0.44258700  0.22860100  1
  H  H168  1  0.86160900  0.48210400  0.15576000  1
  H  H169  1  0.85972800  0.43700200  0.13550000  1
  H  H170  1  0.90994600  0.44291200  0.07634200  1
  H  H171  1  0.91841300  0.48511100  0.10461000  1
  H  H172  1  0.42729500  0.08132400  0.17711700  1
  H  H173  1  0.47124800  0.08197700  0.20207500  1
  H  H174  1  0.44095200  0.11370000  0.22672400  1
  H  H175  1  0.48124300  0.13720800  0.15504600  1
  H  H176  1  0.43642000  0.13861400  0.13290100  1
  H  H177  1  0.44369300  0.08759600  0.07571100  1
  H  H178  1  0.48603100  0.08056400  0.10457400  1
  H  H179  1  0.08491500  0.57651800  0.17312100  1
  H  H180  1  0.08509000  0.53309300  0.20035700  1
  H  H181  1  0.11723200  0.56346000  0.22328200  1
  H  H182  1  0.14027200  0.52164900  0.15374300  1
  H  H183  1  0.14192400  0.56592100  0.12895700  1
  H  H184  1  0.09048000  0.55770400  0.07284200  1
  H  H185  1  0.08356200  0.51595800  0.10388200  1
  H  H186  1  0.55553300  0.89721900  0.19393800  1
  H  H187  1  0.55331000  0.93972300  0.16326600  1
  H  H188  1  0.52087900  0.92579100  0.21269000  1
  H  H189  1  0.49884500  0.92381800  0.11523300  1
  H  H190  1  0.50112500  0.88147000  0.14559300  1
  H  H191  1  0.55796600  0.87262400  0.10079500  1
  H  H192  1  0.55566600  0.91276600  0.06668700  1
  C  C1  1  0.56932300  0.00135400  0.49921600  1
  C  C2  1  0.99965300  0.56500500  0.49984500  1
  C  C3  1  0.43474700  0.99994400  0.50049300  1
  C  C4  1  0.00128000  0.43045200  0.50025500  1
  C  C5  1  0.06754800  0.50116700  0.99947200  1
  C  C6  1  0.49959500  0.06506400  0.99964400  1
  C  C7  1  0.93312000  0.49982700  0.00054400  1
  C  C8  1  0.49807400  0.93052700  0.00003000  1
  C  C9  1  0.50210600  0.99976400  0.60959600  1
  C  C10  1  0.99954100  0.49816100  0.60977800  1
  C  C11  1  0.50117200  0.00151000  0.39007300  1
  C  C12  1  0.00136600  0.49804900  0.39026300  1
  C  C13  1  0.00074500  0.49982700  0.10975300  1
  C  C14  1  0.49784800  0.99839700  0.10962100  1
  C  C15  1  0.99996500  0.50115800  0.89025900  1
  C  C16  1  0.49985900  0.99797300  0.89009700  1
  C  C17  1  0.50136600  0.99983300  0.66972700  1
  C  C18  1  0.99964400  0.49908300  0.66989400  1
  C  C19  1  0.49998300  0.00134800  0.32995600  1
  C  C20  1  0.00128600  0.49880800  0.33014000  1
  C  C21  1  0.00094700  0.49989500  0.16989100  1
  C  C22  1  0.49796300  0.99945500  0.16974500  1
  C  C23  1  0.99983100  0.50095500  0.83012300  1
  C  C24  1  0.49987800  0.99867500  0.82996400  1
  C  C25  1  0.50072900  0.99965100  0.72025600  1
  C  C26  1  0.99968500  0.49985100  0.72041500  1
  C  C27  1  0.49907100  0.00099600  0.27943800  1
  C  C28  1  0.00121900  0.49936300  0.27961200  1
  C  C29  1  0.00109000  0.49975900  0.22042800  1
  C  C30  1  0.49831700  0.00028800  0.22026700  1
  C  C31  1  0.99975200  0.50055300  0.77959000  1
  C  C32  1  0.50016900  0.99922400  0.77943400  1
  C  C33  1  0.87981600  0.01025600  0.45300200  1
  C  C34  1  0.98720300  0.87498000  0.45738800  1
  C  C35  1  0.12499900  0.98331200  0.45761700  1
  C  C36  1  0.01377200  0.12010100  0.45289700  1
  C  C37  1  0.12480700  0.01180700  0.54612500  1
  C  C38  1  0.01641600  0.87463400  0.54527900  1
  C  C39  1  0.87958100  0.98552300  0.54454000  1
  C  C40  1  0.99091900  0.11989200  0.54572300  1
  C  C41  1  0.37766200  0.51212000  0.95402600  1
  C  C42  1  0.48532100  0.37498500  0.95663600  1
  C  C43  1  0.62303100  0.48397200  0.95658700  1
  C  C44  1  0.51161800  0.62020700  0.95256900  1
  C  C45  1  0.62281800  0.51165900  0.04575200  1
  C  C46  1  0.51504300  0.37476200  0.04406500  1
  C  C47  1  0.37747400  0.48318400  0.04213800  1
  C  C48  1  0.48842800  0.61992100  0.04516700  1
  C  C49  1  0.84443400  0.01107200  0.45330300  1
  C  C50  1  0.98641800  0.83960600  0.45764200  1
  C  C51  1  0.16039600  0.98300300  0.45803100  1
  C  C52  1  0.01412700  0.15548800  0.45331200  1
  C  C53  1  0.16018900  0.01267000  0.54566100  1
  C  C54  1  0.01671800  0.83924600  0.54468800  1
  C  C55  1  0.84418200  0.98544500  0.54427300  1
  C  C56  1  0.99033500  0.15526800  0.54560200  1
  C  C57  1  0.34226100  0.51294500  0.95448200  1
  C  C58  1  0.48471000  0.33960200  0.95688500  1
  C  C59  1  0.65844700  0.48365000  0.95702500  1
  C  C60  1  0.51192200  0.65559200  0.95302500  1
  C  C61  1  0.65822000  0.51249200  0.04535900  1
  C  C62  1  0.51553700  0.33938000  0.04343500  1
  C  C63  1  0.34205800  0.48293800  0.04177100  1
  C  C64  1  0.48777900  0.65530000  0.04507000  1
  C  C65  1  0.82621500  0.99845800  0.49880100  1
  C  C66  1  0.00145000  0.82128600  0.50107000  1
  C  C67  1  0.17843900  0.99799300  0.50182300  1
  C  C68  1  0.00217200  0.17348300  0.49953700  1
  C  C69  1  0.32399700  0.49810700  0.99816100  1
  C  C70  1  0.50008700  0.32134500  0.00006900  1
  C  C71  1  0.67650900  0.49820800  0.00120000  1
  C  C72  1  0.49975300  0.67355500  0.99913400  1
  C  C73  1  0.89754200  0.99771400  0.49876600  1
  C  C74  1  0.00193400  0.89263400  0.50140900  1
  C  C75  1  0.10709100  0.99743200  0.50187800  1
  C  C76  1  0.00240300  0.10215100  0.49924000  1
  C  C77  1  0.39542000  0.49752000  0.99806800  1
  C  C78  1  0.50020700  0.39269800  0.00045100  1
  C  C79  1  0.60507900  0.49769300  0.00115700  1
  C  C80  1  0.50010200  0.60221900  0.99877400  1
  C  C81  1  0.77029200  0.00343300  0.54834300  1
  C  C82  1  0.00031900  0.76510400  0.55071900  1
  C  C83  1  0.23458300  0.99769700  0.55167000  1
  C  C84  1  0.00700000  0.22942000  0.54910200  1
  C  C85  1  0.23448800  0.99944000  0.45175200  1
  C  C86  1  0.00176800  0.76531000  0.45078900  1
  C  C87  1  0.77017400  0.99488100  0.44932600  1
  C  C88  1  0.99686700  0.22955600  0.45050200  1
  C  C89  1  0.26792500  0.49961100  0.04828000  1
  C  C90  1  0.49960800  0.26517900  0.04980100  1
  C  C91  1  0.73268700  0.49746100  0.05113600  1
  C  C92  1  0.50420400  0.72951700  0.04875100  1
  C  C93  1  0.73267100  0.49993000  0.95128400  1
  C  C94  1  0.50025900  0.26532700  0.94985400  1
  C  C95  1  0.26779300  0.49790000  0.94837200  1
  C  C96  1  0.49457800  0.72962000  0.95002000  1
  C  C97  1  0.73490000  0.00353200  0.54841900  1
  C  C98  1  0.00053000  0.72972200  0.55051100  1
  C  C99  1  0.26996200  0.99864400  0.55160900  1
  C  C100  1  0.00641300  0.26479500  0.54938700  1
  C  C101  1  0.26987800  0.99929500  0.45167500  1
  C  C102  1  0.00097000  0.72993900  0.45057400  1
  C  C103  1  0.73479600  0.99574700  0.44924800  1
  C  C104  1  0.99707700  0.26493700  0.45059200  1
  C  C105  1  0.23251500  0.49960500  0.04838500  1
  C  C106  1  0.50000800  0.22980100  0.04965000  1
  C  C107  1  0.76808600  0.49833100  0.05116500  1
  C  C108  1  0.50353600  0.76489200  0.04901200  1
  C  C109  1  0.76808000  0.49973400  0.95127600  1
  C  C110  1  0.49962500  0.22994800  0.94971800  1
  C  C111  1  0.23239700  0.49888400  0.94846300  1
  C  C112  1  0.49472600  0.76500100  0.95009300  1
  C  C113  1  0.71676200  0.99988400  0.49883200  1
  C  C114  1  0.00059200  0.71170700  0.50043300  1
  C  C115  1  0.28804900  0.99918200  0.50160700  1
  C  C116  1  0.00164300  0.28296400  0.50008700  1
  C  C117  1  0.21431100  0.49951400  0.99847500  1
  C  C118  1  0.49974400  0.21174500  0.99961300  1
  C  C119  1  0.78624200  0.49921200  0.00122600  1
  C  C120  1  0.49899200  0.78304900  0.99963900  1
  C  C121  1  0.78833700  0.99891500  0.49883200  1
  C  C122  1  0.00118400  0.78335900  0.50086100  1
  C  C123  1  0.21637800  0.99836800  0.50174700  1
  C  C124  1  0.00202200  0.21137200  0.49970900  1
  C  C125  1  0.28603200  0.49852200  0.99827400  1
  C  C126  1  0.49998900  0.28341100  0.99990200  1
  C  C127  1  0.71449100  0.49852800  0.00120500  1
  C  C128  1  0.49951800  0.71144800  0.99930100  1
  C  C129  1  0.66070100  0.97992800  0.46213400  1
  C  C130  1  0.01760600  0.65588600  0.45891500  1
  C  C131  1  0.34361500  0.01713200  0.46016000  1
  C  C132  1  0.98025900  0.33875200  0.46435900  1
  C  C133  1  0.34405400  0.98238900  0.54276200  1
  C  C134  1  0.98267300  0.65599300  0.54130500  1
  C  C135  1  0.66119800  0.02124200  0.53550100  1
  C  C136  1  0.02246100  0.33883900  0.53636800  1
  C  C137  1  0.15817300  0.48277800  0.95756100  1
  C  C138  1  0.51657400  0.15593600  0.95777300  1
  C  C139  1  0.84194400  0.51730200  0.96019100  1
  C  C140  1  0.47770200  0.83879000  0.96351900  1
  C  C141  1  0.84225800  0.48211000  0.04224400  1
  C  C142  1  0.48247400  0.15599200  0.04111100  1
  C  C143  1  0.15879700  0.51789800  0.03974700  1
  C  C144  1  0.51942100  0.83898700  0.03628300  1
  C  C145  1  0.62522900  0.98055100  0.46090800  1
  C  C146  1  0.01651600  0.62032000  0.45711500  1
  C  C147  1  0.37920400  0.01648500  0.45824700  1
  C  C148  1  0.98035200  0.37422400  0.46312000  1
  C  C149  1  0.37962500  0.98356400  0.54423100  1
  C  C150  1  0.98326600  0.62040800  0.54278900  1
  C  C151  1  0.62571700  0.02142500  0.53680200  1
  C  C152  1  0.02211900  0.37430700  0.53775600  1
  C  C153  1  0.12258000  0.48403000  0.95621200  1
  C  C154  1  0.51563400  0.12036300  0.95616400  1
  C  C155  1  0.87755300  0.51663500  0.95837300  1
  C  C156  1  0.47768700  0.87426200  0.96233200  1
  C  C157  1  0.87784700  0.48323300  0.04383400  1
  C  C158  1  0.48326100  0.12041200  0.04271100  1
  C  C159  1  0.12318300  0.51756600  0.04151300  1
  C  C160  1  0.51893600  0.87445300  0.03770900  1
  C  C161  1  0.60721100  0.00115000  0.49893000  1
  C  C162  1  0.99977500  0.60265200  0.49987800  1
  C  C163  1  0.39711400  0.00006100  0.50104700  1
  C  C164  1  0.00121700  0.39254800  0.50041200  1
  C  C165  1  0.10519400  0.50096100  0.99902500  1
  C  C166  1  0.49947300  0.10269400  0.99948700  1
  C  C167  1  0.89543700  0.49996000  0.00097100  1
  C  C168  1  0.49821700  0.89263100  0.00004000  1
  C  C169  1  0.67890600  0.00036000  0.49882900  1
  C  C170  1  0.00027800  0.67381300  0.50020600  1
  C  C171  1  0.32595300  0.99958400  0.50152000  1
  C  C172  1  0.00145000  0.32083000  0.50027800  1
  C  C173  1  0.17638100  0.50007400  0.99859200  1
  C  C174  1  0.49959400  0.17384400  0.99948700  1
  C  C175  1  0.82418900  0.49955300  0.00122900  1
  C  C176  1  0.49870400  0.82091800  0.99981300  1
  C  C177  1  0.00216600  0.93016700  0.50153200  1
  C  C178  1  0.06956800  0.99727500  0.50184100  1
  C  C179  1  0.00246400  0.06459600  0.49911200  1
  C  C180  1  0.93510000  0.99747000  0.49879500  1
  C  C181  1  0.50025000  0.43023100  0.00066200  1
  C  C182  1  0.56751100  0.49750300  0.00111900  1
  C  C183  1  0.50021100  0.56466400  0.99855600  1
  C  C184  1  0.43299600  0.49736700  0.99809100  1
  C  C185  1  0.60799300  0.96006800  0.41554200  1
  C  C186  1  0.59609600  0.98357600  0.36853600  1
  C  C187  1  0.58223900  0.96234600  0.32022300  1
  C  C188  1  0.03262800  0.60028700  0.40959800  1
  C  C189  1  0.04146500  0.62163000  0.35809200  1
  C  C190  1  0.05123900  0.59796000  0.31009300  1
  C  C191  1  0.39902100  0.03263600  0.41052100  1
  C  C192  1  0.37745600  0.04150700  0.35927100  1
  C  C193  1  0.40094000  0.05154900  0.31116300  1
  C  C194  1  0.95893300  0.39110400  0.41854100  1
  C  C195  1  0.98152600  0.40333400  0.37055900  1
  C  C196  1  0.95934500  0.41741400  0.32356700  1
  C  C197  1  0.39983300  0.96772200  0.59179000  1
  C  C198  1  0.37877800  0.96000500  0.64409800  1
  C  C199  1  0.40273800  0.95108000  0.69217800  1
  C  C200  1  0.96694500  0.60044300  0.59019300  1
  C  C201  1  0.95822600  0.62177200  0.64176700  1
  C  C202  1  0.94811100  0.59810600  0.68958100  1
  C  C203  1  0.60898900  0.04243600  0.58202300  1
  C  C204  1  0.59690700  0.01941200  0.62953800  1
  C  C205  1  0.58297300  0.04113800  0.67720300  1
  C  C206  1  0.04332400  0.39128200  0.58252200  1
  C  C207  1  0.02050400  0.40354200  0.63020300  1
  C  C208  1  0.04244700  0.41785500  0.67730700  1
  C  C209  1  0.10214300  0.46790700  0.90918400  1
  C  C210  1  0.12315500  0.45860100  0.85753200  1
  C  C211  1  0.09913200  0.44884600  0.80997100  1
  C  C212  1  0.53128800  0.10029600  0.90828800  1
  C  C213  1  0.53926000  0.12153600  0.85629800  1
  C  C214  1  0.54837700  0.09776400  0.80808000  1
  C  C215  1  0.89741100  0.53305600  0.91093900  1
  C  C216  1  0.87591300  0.54209300  0.85969100  1
  C  C217  1  0.89945600  0.55235900  0.81178600  1
  C  C218  1  0.45654800  0.89112000  0.91738100  1
  C  C219  1  0.47945600  0.90332000  0.86977900  1
  C  C220  1  0.45759400  0.91745300  0.82242800  1
  C  C221  1  0.89795900  0.46707900  0.09121500  1
  C  C222  1  0.87684400  0.45924500  0.14341100  1
  C  C223  1  0.90074400  0.45004900  0.19143300  1
  C  C224  1  0.46747300  0.10037500  0.09051100  1
  C  C225  1  0.45868000  0.12173600  0.14201200  1
  C  C226  1  0.44892900  0.09807900  0.19003900  1
  C  C227  1  0.10333400  0.53423400  0.08871000  1
  C  C228  1  0.12491100  0.54400700  0.13950100  1
  C  C229  1  0.10144500  0.55496000  0.18709700  1
  C  C230  1  0.53972700  0.89150400  0.08289700  1
  C  C231  1  0.51649200  0.90351800  0.13020500  1
  C  C232  1  0.53802300  0.91747400  0.17809100  1
  O  O1  1  0.55324700  0.03093100  0.49740600  1
  O  O2  1  0.96995100  0.54906500  0.50095600  1
  O  O3  1  0.45063100  0.97023000  0.50147100  1
  O  O4  1  0.03083200  0.44658800  0.49825300  1
  O  O5  1  0.45087600  0.02954500  0.49926800  1
  O  O6  1  0.02928700  0.54890800  0.49885400  1
  O  O7  1  0.55299600  0.97190300  0.50123700  1
  O  O8  1  0.97178900  0.44674900  0.50205400  1
  O  O9  1  0.05166100  0.53085900  0.99813600  1
  O  O10  1  0.46997000  0.04895300  0.00068400  1
  O  O11  1  0.94903200  0.47014200  0.00149600  1
  O  O12  1  0.52755400  0.94684400  0.99821000  1
  O  O13  1  0.94929700  0.52938700  0.99940700  1
  O  O14  1  0.52931600  0.04916200  0.99862300  1
  O  O15  1  0.05139400  0.47160400  0.00099300  1
  O  O16  1  0.46850000  0.94663100  0.00187900  1
  O  O17  1  0.50325100  0.02934600  0.58333300  1
  O  O18  1  0.96984700  0.49901100  0.58395800  1
  O  O19  1  0.50110400  0.97007900  0.58380900  1
  O  O20  1  0.02914400  0.49694200  0.58355800  1
  O  O21  1  0.50211600  0.03120700  0.41585600  1
  O  O22  1  0.03106400  0.49730400  0.41608500  1
  O  O23  1  0.50089900  0.97192400  0.41634400  1
  O  O24  1  0.97175000  0.49840600  0.41648900  1
  O  O25  1  0.00158600  0.52944200  0.08357200  1
  O  O26  1  0.46816200  0.99753400  0.08375000  1
  O  O27  1  0.99967500  0.47013100  0.08391300  1
  O  O28  1  0.52747400  0.99871900  0.08343300  1
  O  O29  1  0.00078300  0.53087200  0.91609100  1
  O  O30  1  0.52952700  0.99890100  0.91597600  1
  O  O31  1  0.99935200  0.47155000  0.91644900  1
  O  O32  1  0.47023100  0.99679900  0.91627000  1
  O  O33  1  0.00347300  0.94612600  0.55000400  1
  O  O34  1  0.05356900  0.99725700  0.55030400  1
  O  O35  1  0.00250700  0.04853800  0.54756300  1
  O  O36  1  0.95111400  0.99626200  0.54724600  1
  O  O37  1  0.00100100  0.94621200  0.45310900  1
  O  O38  1  0.95112200  0.99866600  0.45038900  1
  O  O39  1  0.00236700  0.04861900  0.45060700  1
  O  O40  1  0.05357300  0.99732600  0.45333800  1
  O  O41  1  0.50154000  0.44613000  0.04917900  1
  O  O42  1  0.55148800  0.49737100  0.04957600  1
  O  O43  1  0.50027300  0.54854200  0.04695100  1
  O  O44  1  0.44902400  0.49607300  0.04653800  1
  O  O45  1  0.49901200  0.44633600  0.95229500  1
  O  O46  1  0.44902000  0.49873200  0.94968500  1
  O  O47  1  0.50016900  0.54874900  0.95000500  1
  O  O48  1  0.55148600  0.49759200  0.95262500  1
