# generated using pymatgen
data_FeH8C20N2O9
_symmetry_space_group_name_H-M   'P 1'
_cell_length_a   13.16023800
_cell_length_b   9.39174500
_cell_length_c   19.72910800
_cell_angle_alpha   85.54268800
_cell_angle_beta   98.48483600
_cell_angle_gamma   112.17165800
_symmetry_Int_Tables_number   1
_chemical_formula_structural   FeH8C20N2O9
_chemical_formula_sum   'Fe2 H16 C40 N4 O18'
_cell_volume   2232.80138036
_cell_formula_units_Z   2
loop_
 _symmetry_equiv_pos_site_id
 _symmetry_equiv_pos_as_xyz
  1  'x, y, z'
loop_
 _atom_site_type_symbol
 _atom_site_label
 _atom_site_symmetry_multiplicity
 _atom_site_fract_x
 _atom_site_fract_y
 _atom_site_fract_z
 _atom_site_occupancy
  Fe  Fe1  1  0.49465300  0.00458300  0.14144100  1
  Fe  Fe2  1  0.50808700  0.99807500  0.86212700  1
  H  H1  1  0.10756300  0.95058600  0.83378700  1
  H  H2  1  0.92648900  0.94941900  0.82361000  1
  H  H3  1  0.77661900  0.96892100  0.87269300  1
  H  H4  1  0.23000100  0.04377200  0.13075800  1
  H  H5  1  0.08336700  0.06492700  0.18006000  1
  H  H6  1  0.49808400  0.53428000  0.83754500  1
  H  H7  1  0.50901600  0.28594400  0.66827500  1
  H  H8  1  0.51937800  0.74744900  0.64030200  1
  H  H9  1  0.49490000  0.25890100  0.36583700  1
  H  H10  1  0.50695400  0.46821800  0.16779500  1
  H  H11  1  0.34211400  0.67859300  0.39232500  1
  H  H12  1  0.31878600  0.58288900  0.31226400  1
  H  H13  1  0.33828400  0.78364900  0.31192800  1
  H  H14  1  0.94563400  0.86943700  0.23235100  1
  H  H15  1  0.82210700  0.80854100  0.17067000  1
  H  H16  1  0.81777800  0.87069200  0.25418400  1
  C  C1  1  0.21695300  0.97526500  0.92756700  1
  C  C2  1  0.11839800  0.96505800  0.88850600  1
  C  C3  1  0.03307500  0.97492400  0.91834600  1
  C  C4  1  0.93621100  0.96607700  0.87813300  1
  C  C5  1  0.85076300  0.97831500  0.90677800  1
  C  C6  1  0.22849800  0.99263500  0.99794000  1
  C  C7  1  0.14241200  0.00390200  0.02780100  1
  C  C8  1  0.04471500  0.99542200  0.98776400  1
  C  C9  1  0.95898800  0.00868200  0.01688400  1
  C  C10  1  0.86155300  0.00090200  0.97661100  1
  C  C11  1  0.77482700  0.01066600  0.00650500  1
  C  C12  1  0.15473100  0.03058700  0.09713000  1
  C  C13  1  0.06957400  0.04239400  0.12598800  1
  C  C14  1  0.97051600  0.02787000  0.08648200  1
  C  C15  1  0.88344800  0.03121700  0.11698800  1
  C  C16  1  0.78488300  0.02364600  0.07738400  1
  C  C17  1  0.69192400  0.02400500  0.11154700  1
  C  C18  1  0.49411900  0.73172300  0.19871400  1
  C  C19  1  0.33460900  0.01622200  0.03977000  1
  C  C20  1  0.49459900  0.20864400  0.23604600  1
  C  C21  1  0.51359700  0.79501300  0.76948800  1
  C  C22  1  0.66859500  0.98634600  0.96414900  1
  C  C23  1  0.50522100  0.26763100  0.80518200  1
  C  C24  1  0.30806600  0.97494700  0.89225200  1
  C  C25  1  0.50510000  0.39645700  0.75803700  1
  C  C26  1  0.50885200  0.38936400  0.68862200  1
  C  C27  1  0.51197100  0.51444500  0.64550700  1
  C  C28  1  0.51496900  0.64755400  0.67259800  1
  C  C29  1  0.50762900  0.65279200  0.74109100  1
  C  C30  1  0.50095800  0.52687600  0.78354000  1
  C  C31  1  0.49797100  0.49457100  0.43499100  1
  C  C32  1  0.51002300  0.50726300  0.57127800  1
  C  C33  1  0.49529300  0.35692900  0.33324600  1
  C  C34  1  0.50053600  0.35108000  0.26445000  1
  C  C35  1  0.50399800  0.47568000  0.22177600  1
  C  C36  1  0.49589200  0.60408400  0.24681200  1
  C  C37  1  0.48951800  0.60936000  0.31628200  1
  C  C38  1  0.49401000  0.48766600  0.36022700  1
  C  C39  1  0.36378400  0.69258400  0.33936000  1
  C  C40  1  0.86918400  0.89027500  0.21207400  1
  N  N1  1  0.52010800  0.63349200  0.53143200  1
  N  N2  1  0.51473800  0.62744000  0.46428800  1
  N  N3  1  0.48893600  0.36848400  0.47498500  1
  N  N4  1  0.49457400  0.37449600  0.54227000  1
  O  O1  1  0.60446600  0.04251700  0.07704400  1
  O  O2  1  0.50759600  0.72548100  0.13456600  1
  O  O3  1  0.69372800  0.00078100  0.17801700  1
  O  O4  1  0.48161200  0.85373200  0.21873800  1
  O  O5  1  0.34442700  0.91446200  0.08722600  1
  O  O6  1  0.41854100  0.14605500  0.03351900  1
  O  O7  1  0.54328600  0.21303100  0.18193600  1
  O  O8  1  0.43138400  0.07650300  0.26082200  1
  O  O9  1  0.46055900  0.78979700  0.82159600  1
  O  O10  1  0.57924800  0.92745900  0.74633800  1
  O  O11  1  0.65781000  0.08861400  0.91708200  1
  O  O12  1  0.58529800  0.85555600  0.96994400  1
  O  O13  1  0.30228500  0.99721300  0.82553100  1
  O  O14  1  0.52163800  0.14901000  0.78484000  1
  O  O15  1  0.39719100  0.95907300  0.92594400  1
  O  O16  1  0.48972200  0.27109800  0.86913300  1
  O  O17  1  0.47784000  0.73356800  0.34112500  1
  O  O18  1  0.89578500  0.04163600  0.18679400  1
