# generated using pymatgen
data_ZnH12C20NO5
_symmetry_space_group_name_H-M   'P 1'
_cell_length_a   12.35233900
_cell_length_b   8.54434300
_cell_length_c   15.13450300
_cell_angle_alpha   90.00000000
_cell_angle_beta   96.18310500
_cell_angle_gamma   90.00000000
_symmetry_Int_Tables_number   1
_chemical_formula_structural   ZnH12C20NO5
_chemical_formula_sum   'Zn2 H24 C40 N2 O10'
_cell_volume   1588.04304747
_cell_formula_units_Z   2
loop_
 _symmetry_equiv_pos_site_id
 _symmetry_equiv_pos_as_xyz
  1  'x, y, z'
loop_
 _atom_site_type_symbol
 _atom_site_label
 _atom_site_symmetry_multiplicity
 _atom_site_fract_x
 _atom_site_fract_y
 _atom_site_fract_z
 _atom_site_occupancy
  Zn  Zn1  1  0.87939300  0.51851200  0.48640500  1
  Zn  Zn2  1  0.12223400  0.51863800  0.51369900  1
  H  H1  1  0.96724300  0.01870900  0.55860400  1
  H  H2  1  0.04128700  0.01807900  0.44077400  1
  H  H3  1  0.00773700  0.26977100  0.79990700  1
  H  H4  1  0.98798600  0.76705000  0.19970900  1
  H  H5  1  0.98307500  0.26953700  0.19986400  1
  H  H6  1  0.00938900  0.76713200  0.80025600  1
  H  H7  1  0.89960100  0.81369400  0.90861600  1
  H  H8  1  0.09145600  0.22345300  0.09092500  1
  H  H9  1  0.89151700  0.81460900  0.06789900  1
  H  H10  1  0.10051900  0.22221100  0.93207000  1
  H  H11  1  0.57124400  0.71578200  0.34075200  1
  H  H12  1  0.47241800  0.76147900  0.19428300  1
  H  H13  1  0.18687400  0.57355800  0.02363300  1
  H  H14  1  0.14541200  0.54023900  0.13275700  1
  H  H15  1  0.23807300  0.40451100  0.08618900  1
  H  H16  1  0.24692800  0.40049900  0.24458100  1
  H  H17  1  0.34587400  0.35449900  0.38843300  1
  H  H18  1  0.43212700  0.63907100  0.68464900  1
  H  H19  1  0.52989800  0.61653200  0.83314800  1
  H  H20  1  0.81767700  0.37100600  0.97003800  1
  H  H21  1  0.85669800  0.39856600  0.85965300  1
  H  H22  1  0.77180600  0.23291000  0.88390400  1
  H  H23  1  0.75127400  0.29360200  0.73265400  1
  H  H24  1  0.65168900  0.31077700  0.58726400  1
  C  C1  1  0.99376800  0.15808400  0.67398900  1
  C  C2  1  0.00773200  0.87875300  0.32584900  1
  C  C3  1  0.00783700  0.15798600  0.32608300  1
  C  C4  1  0.99337200  0.87892600  0.67387600  1
  C  C5  1  0.00426600  0.15890400  0.76562600  1
  C  C6  1  0.99245100  0.87784900  0.23420300  1
  C  C7  1  0.99263800  0.15904300  0.23452200  1
  C  C8  1  0.00263100  0.87767800  0.76546500  1
  C  C9  1  0.00345400  0.01817400  0.81172600  1
  C  C10  1  0.99047200  0.01864700  0.18805300  1
  C  C11  1  0.98215500  0.01858300  0.62953400  1
  C  C12  1  0.02246300  0.01828000  0.37010100  1
  C  C13  1  0.94381200  0.90274400  0.94825200  1
  C  C14  1  0.04721000  0.13474200  0.05124400  1
  C  C15  1  0.93871100  0.90362600  0.03889800  1
  C  C16  1  0.05263900  0.13368200  0.96075500  1
  C  C17  1  0.47563600  0.49546000  0.53662100  1
  C  C18  1  0.52548700  0.50926800  0.46263500  1
  C  C19  1  0.99039800  0.01988200  0.09100900  1
  C  C20  1  0.00108800  0.01748200  0.90857000  1
  C  C21  1  0.64238800  0.51564600  0.46751300  1
  C  C22  1  0.35907700  0.50965300  0.53235800  1
  C  C23  1  0.99672500  0.73677200  0.62061900  1
  C  C24  1  0.00483600  0.30013400  0.37954500  1
  C  C25  1  0.00512400  0.73656100  0.37930900  1
  C  C26  1  0.99652100  0.30056300  0.62079400  1
  C  C27  1  0.46313700  0.53620200  0.37592100  1
  C  C28  1  0.49960700  0.64701100  0.31982100  1
  C  C29  1  0.44385400  0.67323600  0.23740700  1
  C  C30  1  0.35255800  0.58666700  0.20914700  1
  C  C31  1  0.21368600  0.52875800  0.09123100  1
  C  C32  1  0.31695100  0.47283000  0.26459900  1
  C  C33  1  0.37211400  0.44810300  0.34773900  1
  C  C34  1  0.53764500  0.48190100  0.62468500  1
  C  C35  1  0.50239600  0.56326700  0.69498400  1
  C  C36  1  0.55758900  0.55110600  0.77872600  1
  C  C37  1  0.64778700  0.45607200  0.79367200  1
  C  C38  1  0.79065500  0.35788300  0.89813700  1
  C  C39  1  0.68227800  0.37171600  0.72362200  1
  C  C40  1  0.62691100  0.38406500  0.63962900  1
  N  N1  1  0.26519900  0.51814100  0.52866200  1
  N  N2  1  0.73643400  0.51880800  0.47145100  1
  O  O1  1  0.09197300  0.68788300  0.60054800  1
  O  O2  1  0.90966600  0.34928300  0.39955800  1
  O  O3  1  0.91001400  0.68736300  0.39944600  1
  O  O4  1  0.09159500  0.34978500  0.60065200  1
  O  O5  1  0.90413300  0.68214800  0.58240400  1
  O  O6  1  0.09744300  0.35488100  0.41774000  1
  O  O7  1  0.09784200  0.68219000  0.41758200  1
  O  O8  1  0.90383100  0.35493900  0.58250300  1
  O  O9  1  0.30115100  0.61461500  0.12749100  1
  O  O10  1  0.69937400  0.44716000  0.87671200  1
