# generated using pymatgen
data_ZnH13C15NO4
_symmetry_space_group_name_H-M   'P 1'
_cell_length_a   8.53443200
_cell_length_b   12.28420900
_cell_length_c   13.09370600
_cell_angle_alpha   94.57178200
_cell_angle_beta   84.70276600
_cell_angle_gamma   90.00663000
_symmetry_Int_Tables_number   1
_chemical_formula_structural   ZnH13C15NO4
_chemical_formula_sum   'Zn2 H26 C30 N2 O8'
_cell_volume   1362.47972248
_cell_formula_units_Z   2
loop_
 _symmetry_equiv_pos_site_id
 _symmetry_equiv_pos_as_xyz
  1  'x, y, z'
loop_
 _atom_site_type_symbol
 _atom_site_label
 _atom_site_symmetry_multiplicity
 _atom_site_fract_x
 _atom_site_fract_y
 _atom_site_fract_z
 _atom_site_occupancy
  Zn  Zn1  1  0.53539100  0.12138100  0.51996200  1
  Zn  Zn2  1  0.54274300  0.87855200  0.48139400  1
  H  H1  1  0.83109700  0.98768000  0.16149700  1
  H  H2  1  0.24701900  0.01224500  0.83987800  1
  H  H3  1  0.20485000  0.94914700  0.98921100  1
  H  H4  1  0.87325500  0.05076500  0.01214600  1
  H  H5  1  0.33426100  0.98783300  0.14906400  1
  H  H6  1  0.74385800  0.01208800  0.85227400  1
  H  H7  1  0.05678100  0.04951200  0.43407500  1
  H  H8  1  0.02138600  0.95043400  0.56727800  1
  H  H9  1  0.59570000  0.60706300  0.64730800  1
  H  H10  1  0.52502300  0.48774800  0.70756200  1
  H  H11  1  0.31593800  0.64148600  0.60320600  1
  H  H12  1  0.24453000  0.44979700  0.73730400  1
  H  H13  1  0.22148600  0.45081800  0.60131000  1
  H  H14  1  0.10076000  0.53888000  0.69329400  1
  H  H15  1  0.35525000  0.61562300  0.83085800  1
  H  H16  1  0.21132900  0.70073700  0.78145400  1
  H  H17  1  0.41820900  0.73084500  0.75978800  1
  H  H18  1  0.64803400  0.39277300  0.35699500  1
  H  H19  1  0.60083800  0.51215400  0.29465300  1
  H  H20  1  0.35376200  0.35856200  0.39086100  1
  H  H21  1  0.33323700  0.55052700  0.25542600  1
  H  H22  1  0.26067900  0.54928600  0.38969800  1
  H  H23  1  0.17363300  0.46147300  0.29387900  1
  H  H24  1  0.47585900  0.38465000  0.16609000  1
  H  H25  1  0.31424600  0.29956800  0.21005300  1
  H  H26  1  0.51170200  0.26929700  0.23875500  1
  C  C1  1  0.20979700  0.01781800  0.29803100  1
  C  C2  1  0.86834900  0.98211700  0.70331300  1
  C  C3  1  0.22023800  0.99892300  0.19201700  1
  C  C4  1  0.85788900  0.00100200  0.80932900  1
  C  C5  1  0.08432300  0.99687200  0.14096800  1
  C  C6  1  0.99379400  0.00304800  0.86038900  1
  C  C7  1  0.93878400  0.00133000  0.19757300  1
  C  C8  1  0.13934000  0.99859600  0.80379200  1
  C  C9  1  0.92998900  0.01994100  0.30284500  1
  C  C10  1  0.14815400  0.97999000  0.69852000  1
  C  C11  1  0.06480700  0.03409900  0.35167800  1
  C  C12  1  0.01334700  0.96584100  0.64967500  1
  C  C13  1  0.09694200  0.98422200  0.02779300  1
  C  C14  1  0.98116300  0.01569100  0.97356400  1
  C  C15  1  0.34528500  0.01171600  0.35833700  1
  C  C16  1  0.73287500  0.98822000  0.64299600  1
  C  C17  1  0.29706200  0.98670900  0.63579900  1
  C  C18  1  0.78109100  0.01322200  0.36557900  1
  C  C19  1  0.53985400  0.52405200  0.45632400  1
  C  C20  1  0.52333400  0.47587800  0.54477600  1
  C  C21  1  0.52772800  0.35873300  0.54378000  1
  C  C22  1  0.54464700  0.64119600  0.45748000  1
  C  C23  1  0.50569200  0.54196800  0.64604300  1
  C  C24  1  0.34133200  0.59155500  0.66658600  1
  C  C25  1  0.21955800  0.50181800  0.67519900  1
  C  C26  1  0.33090500  0.66429100  0.76622600  1
  C  C27  1  0.55871500  0.45796200  0.35507900  1
  C  C28  1  0.40247800  0.40854600  0.32884700  1
  C  C29  1  0.28534400  0.49841100  0.31613800  1
  C  C30  1  0.42779900  0.33592100  0.22939700  1
  N  N1  1  0.54706800  0.73555900  0.46058800  1
  N  N2  1  0.53088100  0.26437400  0.54076500  1
  O  O1  1  0.39147900  0.91455200  0.37924300  1
  O  O2  1  0.68666300  0.08541500  0.62212200  1
  O  O3  1  0.39143800  0.10239200  0.40624000  1
  O  O4  1  0.68671200  0.89751000  0.59511100  1
  O  O5  1  0.34964500  0.08411700  0.61702300  1
  O  O6  1  0.72850000  0.91578300  0.38432400  1
  O  O7  1  0.35972000  0.89613700  0.59024800  1
  O  O8  1  0.71842800  0.10382800  0.41111300  1
