# Generated by REPEAT Assigner based on pymatgen
data_DB0-m3_o1_o28_f0_nbo.sym.12_sqe
_audit_creation_date              2022-05-24
_audit_creation_method            REPEAT_Assigner
_cell_length_a                    21.878366
_cell_length_b                    21.876947
_cell_length_c                    46.884892
_cell_angle_alpha                 90.000000
_cell_angle_beta                  90.000000
_cell_angle_gamma                 90.000000
_cell_volume                      22440.602291
_symmetry_space_group_name_H-M    P1
_symmetry_Int_Tables_number       1
loop_
    _symmetry_equiv_pos_site_id
    _symmetry_equiv_pos_as_xyz
    1  x,y,z
loop_
    _atom_site_type_symbol
    _atom_site_label
    _atom_site_fract_x
    _atom_site_fract_y
    _atom_site_fract_z
    _atom_type_partial_charge
    O   O1    0.997121  0.090171  0.027867  -0.693275
    O   O2    0.909443  0.997893  0.027922  -0.714619
    O   O3    0.001682  0.908015  0.025469  -0.701643
    O   O4    0.091614  0.002583  0.025460  -0.754496
    O   O5    0.000643  0.909094  0.976376  -0.676618
    O   O6    0.908133  0.998642  0.978769  -0.723832
    O   O7    0.000033  0.091330  0.978714  -0.704550
    O   O8    0.090377  0.999422  0.976273  -0.732799
    O   O9    0.500691  0.590897  0.523622  -0.676575
    O   O10   0.408181  0.501349  0.521228  -0.723932
    O   O11   0.500081  0.408661  0.521280  -0.704007
    O   O12   0.590425  0.500569  0.523722  -0.732520
    O   O13   0.497166  0.409826  0.472126  -0.692692
    O   O14   0.409488  0.502104  0.472075  -0.714860
    O   O15   0.501727  0.591982  0.474529  -0.701783
    O   O16   0.591659  0.497414  0.474535  -0.754313
    C   C1    0.998075  0.119441  0.003446  0.688825
    C   C2    0.880096  0.997705  0.003526  0.694857
    C   C3    0.001463  0.879733  0.000780  0.694966
    C   C4    0.119606  0.001401  0.000700  0.752542
    C   C5    0.501509  0.620261  0.499219  0.695191
    C   C6    0.380142  0.502289  0.496472  0.695778
    C   C7    0.498121  0.380553  0.496547  0.687374
    C   C8    0.619652  0.498593  0.499295  0.751385
    Zn  Zn1   0.001030  0.998675  0.034371  1.332145
    Zn  Zn2   0.998772  0.000646  0.969843  1.326308
    Zn  Zn3   0.498820  0.499344  0.530153  1.326090
    Zn  Zn4   0.501074  0.501323  0.465625  1.331901
    C   C9    0.218994  0.047672  0.986408  0.231638
    C   C10   0.953880  0.218937  0.987771  0.218861
    C   C11   0.780618  0.952392  0.988559  0.186078
    C   C12   0.043570  0.780708  0.983533  0.122487
    C   C13   0.219139  0.954552  0.014092  0.232546
    C   C14   0.959338  0.780089  0.017127  0.141860
    C   C15   0.781001  0.042908  0.018197  0.125933
    C   C16   0.042434  0.218557  0.018669  0.148273
    C   C17   0.719186  0.545441  0.485902  0.231682
    C   C18   0.459376  0.719904  0.482876  0.142033
    C   C19   0.281047  0.457086  0.481800  0.125900
    C   C20   0.542474  0.281436  0.481321  0.147841
    C   C21   0.719041  0.452317  0.513584  0.230534
    C   C22   0.453923  0.281058  0.512220  0.217903
    C   C23   0.280664  0.547596  0.511442  0.186541
    C   C24   0.543613  0.719287  0.516467  0.122529
    C   C25   0.282151  0.046259  0.986058  -0.387443
    C   C26   0.956951  0.281872  0.986574  -0.361619
    C   C27   0.717676  0.955261  0.987402  -0.359889
    C   C28   0.043548  0.717258  0.983928  -0.278978
    C   C29   0.282261  0.955717  0.014098  -0.397798
    C   C30   0.959286  0.716710  0.016157  -0.289621
    C   C31   0.717611  0.044602  0.016408  -0.299456
    C   C32   0.044259  0.281951  0.016894  -0.299088
    C   C33   0.782309  0.544275  0.485895  -0.397486
    C   C34   0.459322  0.783283  0.483847  -0.289775
    C   C35   0.217657  0.455390  0.483589  -0.299293
    C   C36   0.544297  0.218042  0.483095  -0.299153
    C   C37   0.782197  0.453729  0.513934  -0.387511
    C   C38   0.456992  0.218122  0.513417  -0.361282
    C   C39   0.217722  0.544725  0.512599  -0.360695
    C   C40   0.543588  0.782736  0.516073  -0.279418
    H   H1    0.307387  0.080705  0.974515  0.199974
    H   H2    0.924534  0.307157  0.973836  0.196086
    H   H3    0.692375  0.921975  0.975168  0.194113
    H   H4    0.074451  0.690444  0.971148  0.163812
    H   H5    0.307609  0.921209  0.025541  0.201082
    H   H6    0.928328  0.689442  0.028691  0.166308
    H   H7    0.690663  0.078395  0.027402  0.168909
    H   H8    0.077302  0.308882  0.028380  0.169877
    H   H9    0.807656  0.578784  0.474453  0.200999
    H   H10   0.428362  0.810551  0.471313  0.166285
    H   H11   0.190710  0.421599  0.472594  0.168895
    H   H12   0.577338  0.191111  0.471608  0.169902
    H   H13   0.807433  0.419281  0.525476  0.200100
    H   H14   0.424576  0.192838  0.526155  0.196014
    H   H15   0.192421  0.578008  0.524835  0.194295
    H   H16   0.574493  0.809551  0.528852  0.163912
    C   C41   0.313662  0.000886  0.999987  0.178942
    C   C42   0.001701  0.313163  0.000982  0.118879
    C   C43   0.686402  0.000968  0.001148  0.128082
    C   C44   0.001359  0.685854  0.999900  0.084786
    C   C45   0.813709  0.499104  0.500005  0.178905
    C   C46   0.501396  0.814140  0.500102  0.085428
    C   C47   0.186448  0.499020  0.498852  0.128776
    C   C48   0.501740  0.186831  0.499007  0.118939
    C   C49   0.186766  0.001226  0.000369  -0.248532
    C   C50   0.997401  0.186708  0.003614  -0.230466
    C   C51   0.812844  0.996968  0.003749  -0.190528
    C   C52   0.001508  0.812303  0.000484  -0.226092
    C   C53   0.686813  0.498766  0.499624  -0.247002
    C   C54   0.501551  0.687691  0.499516  -0.226363
    C   C55   0.312890  0.503024  0.496249  -0.191225
    C   C56   0.497444  0.313286  0.496377  -0.229383
    O   O17   0.500859  0.052209  0.042684  -0.709521
    O   O18   0.950685  0.501147  0.042478  -0.703865
    O   O19   0.498504  0.946780  0.042685  -0.690145
    O   O20   0.056116  0.498945  0.042530  -0.692025
    O   O21   0.498384  0.950156  0.957505  -0.702893
    O   O22   0.947535  0.501072  0.957298  -0.688144
    O   O23   0.502520  0.055541  0.957508  -0.690823
    O   O24   0.052918  0.496966  0.957353  -0.707302
    O   O25   0.998426  0.549842  0.542488  -0.703222
    O   O26   0.447577  0.998932  0.542699  -0.688626
    O   O27   0.002561  0.444457  0.542490  -0.691159
    O   O28   0.552961  0.003039  0.542641  -0.707639
    O   O29   0.000911  0.447770  0.457314  -0.709411
    O   O30   0.450718  0.998836  0.457520  -0.704075
    O   O31   0.998556  0.553199  0.457309  -0.689935
    O   O32   0.556149  0.001038  0.457464  -0.692314
    C   C57   0.499617  0.999481  0.056027  0.666240
    C   C58   0.003387  0.500231  0.055845  0.653621
    C   C59   0.500513  0.002863  0.944169  0.650292
    C   C60   0.000234  0.498819  0.943990  0.648198
    C   C61   0.000552  0.497138  0.555827  0.651528
    C   C62   0.500278  0.001190  0.556006  0.649040
    C   C63   0.999671  0.500495  0.443968  0.665478
    C   C64   0.503418  0.999748  0.444150  0.654022
    O   O33   0.409348  0.053030  0.999165  -0.713620
    O   O34   0.950048  0.408779  0.999376  -0.705312
    O   O35   0.590758  0.949280  0.000683  -0.709330
    O   O36   0.053643  0.590305  0.000084  -0.705967
    O   O37   0.408492  0.947565  0.000666  -0.695871
    O   O38   0.948101  0.591054  0.999309  -0.688998
    O   O39   0.591653  0.054809  0.999910  -0.695053
    O   O40   0.055506  0.407993  0.000947  -0.692253
    O   O41   0.908538  0.552423  0.499326  -0.695965
    O   O42   0.448138  0.908940  0.500693  -0.689076
    O   O43   0.091700  0.445179  0.500090  -0.695004
    O   O44   0.555544  0.092001  0.499043  -0.692465
    O   O45   0.909395  0.446959  0.500830  -0.713758
    O   O46   0.450086  0.091215  0.500616  -0.705496
    O   O47   0.090805  0.550709  0.499313  -0.709067
    O   O48   0.553680  0.909689  0.499915  -0.706035
    C   C65   0.380439  0.000496  0.999849  0.695464
    C   C66   0.002560  0.379909  0.000227  0.704926
    C   C67   0.619670  0.001805  0.000388  0.704156
    C   C68   0.001048  0.619127  0.999649  0.713999
    C   C69   0.880485  0.499492  0.500144  0.695785
    C   C70   0.501085  0.880867  0.500353  0.713736
    C   C71   0.119717  0.498184  0.499611  0.703616
    C   C72   0.502599  0.120085  0.499762  0.705035
    Zn  Zn5   0.500339  0.070403  0.000225  1.335352
    Zn  Zn6   0.932581  0.499754  0.000015  1.326222
    Zn  Zn7   0.499769  0.931938  0.999957  1.329927
    Zn  Zn8   0.071049  0.499291  0.999805  1.332330
    Zn  Zn9   0.999816  0.568051  0.500035  1.329902
    Zn  Zn10  0.432618  0.000240  0.499982  1.326612
    Zn  Zn11  0.000386  0.429586  0.499774  1.335504
    Zn  Zn12  0.571086  0.000703  0.500189  1.332751
    C   C73   0.037679  0.459376  0.808934  0.466129
    C   C74   0.539190  0.039787  0.809022  0.464667
    C   C75   0.963132  0.536368  0.808840  0.466130
    C   C76   0.461994  0.965451  0.809106  0.461538
    C   C77   0.039873  0.538875  0.191034  0.459839
    C   C78   0.539301  0.962103  0.191000  0.463686
    C   C79   0.965084  0.462120  0.190825  0.462128
    C   C80   0.462419  0.036761  0.191227  0.459519
    C   C81   0.539866  0.961072  0.308959  0.458256
    C   C82   0.039346  0.537846  0.308993  0.464122
    C   C83   0.465076  0.037827  0.309173  0.460224
    C   C84   0.962464  0.463188  0.308771  0.460007
    C   C85   0.537714  0.040648  0.691065  0.466281
    C   C86   0.039191  0.460236  0.690976  0.466506
    C   C87   0.463167  0.963656  0.691153  0.466579
    C   C88   0.961995  0.534571  0.690887  0.462874
    N   N1    0.000386  0.497933  0.823176  -0.163341
    N   N2    0.500618  0.002666  0.823353  -0.161557
    N   N3    0.002638  0.500521  0.176652  -0.157448
    N   N4    0.500656  0.999423  0.176836  -0.160159
    N   N5    0.502636  0.999427  0.323344  -0.156293
    N   N6    0.000704  0.500528  0.323160  -0.161054
    N   N7    0.500424  0.002092  0.676820  -0.163735
    N   N8    0.000623  0.497355  0.676643  -0.163334
    C   C89   0.962221  0.536300  0.779355  -0.124265
    C   C90   0.461889  0.964392  0.779622  -0.122529
    C   C91   0.038671  0.459193  0.779449  -0.122399
    C   C92   0.539206  0.040630  0.779536  -0.122772
    C   C93   0.963843  0.461961  0.220306  -0.122555
    C   C94   0.462693  0.037650  0.220712  -0.116444
    C   C95   0.040380  0.538999  0.220522  -0.119703
    C   C96   0.539860  0.961244  0.220484  -0.121841
    C   C97   0.463824  0.037984  0.279692  -0.120176
    C   C98   0.962730  0.462297  0.279287  -0.117085
    C   C99   0.540362  0.960947  0.279471  -0.118380
    C   C100  0.039897  0.538702  0.279508  -0.122556
    C   C101  0.462247  0.963723  0.720638  -0.125084
    C   C102  0.961881  0.535631  0.720371  -0.123630
    C   C103  0.538697  0.040830  0.720550  -0.122789
    C   C104  0.039198  0.459393  0.720462  -0.124538
    C   C105  0.000468  0.497686  0.764619  0.103728
    C   C106  0.500527  0.002454  0.764797  0.107699
    C   C107  0.001916  0.500482  0.235196  0.105433
    C   C108  0.501484  0.999454  0.235380  0.101944
    C   C109  0.501892  0.999463  0.264800  0.104232
    C   C110  0.001517  0.500492  0.264616  0.102798
    C   C111  0.500489  0.002337  0.735376  0.104831
    C   C112  0.000515  0.497569  0.735199  0.109383
    C   C113  0.923570  0.574821  0.764507  -0.044294
    C   C114  0.423182  0.925768  0.764865  -0.048234
    C   C115  0.077366  0.420553  0.764693  -0.047774
    C   C116  0.577871  0.079139  0.764690  -0.047077
    C   C117  0.925006  0.423349  0.234996  -0.045509
    C   C118  0.424230  0.076240  0.235626  -0.049760
    C   C119  0.078832  0.577605  0.235434  -0.046410
    C   C120  0.578748  0.922679  0.235172  -0.046923
    C   C121  0.424983  0.076596  0.265006  -0.046556
    C   C122  0.924263  0.423705  0.264376  -0.049714
    C   C123  0.578809  0.922341  0.264556  -0.046106
    C   C124  0.078780  0.577268  0.264818  -0.046249
    C   C125  0.423592  0.925202  0.735484  -0.044090
    C   C126  0.923170  0.574255  0.735126  -0.048169
    C   C127  0.577387  0.079471  0.735308  -0.047738
    C   C128  0.077859  0.420884  0.735311  -0.046644
    O   O49   0.073012  0.419974  0.823483  -0.490374
    O   O50   0.578776  0.075080  0.823484  -0.489996
    O   O51   0.927770  0.575904  0.823295  -0.489418
    O   O52   0.422448  0.930266  0.823648  -0.487650
    O   O53   0.075601  0.578134  0.176612  -0.490025
    O   O54   0.578416  0.926622  0.176361  -0.489334
    O   O55   0.929715  0.422875  0.176203  -0.489259
    O   O56   0.422908  0.072242  0.176822  -0.489342
    O   O57   0.575600  0.921814  0.323379  -0.489865
    O   O58   0.078464  0.573329  0.323629  -0.489424
    O   O59   0.429713  0.077073  0.323798  -0.489065
    O   O60   0.922957  0.427708  0.323180  -0.489385
    O   O61   0.573051  0.080051  0.676517  -0.490376
    O   O62   0.078782  0.424943  0.676517  -0.490297
    O   O63   0.427808  0.924120  0.676696  -0.489481
    O   O64   0.922454  0.569756  0.676342  -0.487805
    H   H17   0.892997  0.605592  0.775514  0.126844
    H   H18   0.392387  0.895337  0.775944  0.127859
    H   H19   0.107906  0.389871  0.775775  0.127961
    H   H20   0.608697  0.109654  0.775699  0.127910
    H   H21   0.894581  0.392639  0.223862  0.127456
    H   H22   0.393318  0.106758  0.224670  0.128704
    H   H23   0.109552  0.608309  0.224476  0.127662
    H   H24   0.609355  0.892156  0.224035  0.127297
    H   H25   0.394561  0.107305  0.276141  0.127733
    H   H26   0.893355  0.393188  0.275333  0.128619
    H   H27   0.609533  0.891636  0.275512  0.127595
    H   H28   0.109391  0.607791  0.275952  0.127168
    H   H29   0.393022  0.894431  0.724475  0.126836
    H   H30   0.892378  0.604685  0.724044  0.127894
    H   H31   0.607931  0.110152  0.724228  0.127991
    H   H32   0.108688  0.390369  0.724304  0.127865
    C   C129  0.488559  0.946188  0.131553  -0.169356
    C   C130  0.056258  0.488995  0.131432  -0.173259
    C   C131  0.511639  0.052738  0.131519  -0.176156
    C   C132  0.949756  0.512270  0.131272  -0.174618
    C   C133  0.490164  0.056263  0.868653  -0.172492
    C   C134  0.053798  0.508852  0.868495  -0.176999
    C   C135  0.511218  0.949290  0.868696  -0.173141
    C   C136  0.946891  0.487499  0.868499  -0.171961
    C   C137  0.990181  0.443752  0.631344  -0.172062
    C   C138  0.553842  0.991174  0.631502  -0.177715
    C   C139  0.011234  0.550724  0.631298  -0.173513
    C   C140  0.446935  0.012528  0.631495  -0.173149
    C   C141  0.988612  0.553772  0.368440  -0.169463
    C   C142  0.556272  0.010958  0.368560  -0.174497
    C   C143  0.011693  0.447222  0.368479  -0.176337
    C   C144  0.449770  0.987683  0.368728  -0.175783
    H   H33   0.478812  0.904322  0.142923  0.142017
    H   H34   0.098012  0.479038  0.142849  0.143347
    H   H35   0.521650  0.094582  0.142857  0.143859
    H   H36   0.907844  0.522228  0.142562  0.143278
    H   H37   0.481009  0.098280  0.857298  0.144202
    H   H38   0.095821  0.518055  0.857155  0.144924
    H   H39   0.520363  0.907227  0.857376  0.144250
    H   H40   0.904890  0.478163  0.857165  0.143892
    H   H41   0.981023  0.401736  0.642700  0.144015
    H   H42   0.595863  0.981972  0.642843  0.144999
    H   H43   0.020376  0.592789  0.642617  0.144308
    H   H44   0.404934  0.021865  0.642829  0.144013
    H   H45   0.978864  0.595635  0.357068  0.142038
    H   H46   0.598023  0.020912  0.357139  0.143598
    H   H47   0.021704  0.405376  0.357143  0.143943
    H   H48   0.407854  0.977723  0.357441  0.143510
    C   C145  0.488643  0.946068  0.102156  -0.073965
    C   C146  0.056585  0.489308  0.102034  -0.066639
    C   C147  0.510987  0.052894  0.102125  -0.060541
    C   C148  0.949806  0.511844  0.101879  -0.064114
    C   C149  0.490625  0.056458  0.898049  -0.072962
    C   C150  0.053907  0.508578  0.897891  -0.062007
    C   C151  0.510718  0.949197  0.898091  -0.074200
    C   C152  0.946710  0.488188  0.897894  -0.075075
    C   C153  0.990652  0.443552  0.601948  -0.072652
    C   C154  0.553952  0.991443  0.602106  -0.061399
    C   C155  0.010744  0.550812  0.601904  -0.073018
    C   C156  0.446755  0.011835  0.602101  -0.073775
    C   C157  0.988697  0.553898  0.397837  -0.073791
    C   C158  0.556607  0.010654  0.397958  -0.066087
    C   C159  0.011043  0.447073  0.397873  -0.060941
    C   C160  0.449828  0.988118  0.398120  -0.063464
    H   H49   0.479226  0.903819  0.091062  0.116073
    H   H50   0.098874  0.479833  0.090986  0.113978
    H   H51   0.520263  0.095147  0.091009  0.112232
    H   H52   0.907639  0.521227  0.090714  0.112416
    H   H53   0.482084  0.098877  0.909157  0.114755
    H   H54   0.096268  0.517316  0.909012  0.112169
    H   H55   0.519217  0.906806  0.909229  0.114825
    H   H56   0.904316  0.479641  0.909020  0.115823
    H   H57   0.982114  0.401130  0.590842  0.114717
    H   H58   0.596313  0.982703  0.590985  0.112144
    H   H59   0.019246  0.593202  0.590764  0.114480
    H   H60   0.404362  0.020380  0.590974  0.115655
    H   H61   0.979280  0.596150  0.408929  0.115917
    H   H62   0.598899  0.020131  0.409003  0.113967
    H   H63   0.020319  0.404823  0.408991  0.112444
    H   H64   0.407663  0.978739  0.409288  0.112317
    C   C161  0.499690  0.999487  0.087278  0.022155
    C   C162  0.003280  0.500511  0.087094  0.029735
    C   C163  0.500645  0.002848  0.912926  0.038519
    C   C164  0.000288  0.498497  0.912748  0.035046
    C   C165  0.000676  0.497158  0.587070  0.036947
    C   C166  0.500334  0.001521  0.587248  0.033803
    C   C167  0.999745  0.500483  0.412718  0.022625
    C   C168  0.503305  0.999457  0.412901  0.029201
    C   C169  0.500264  0.999451  0.146380  0.189626
    C   C170  0.002898  0.500619  0.146196  0.187523
    C   C171  0.500680  0.002745  0.853819  0.188292
    C   C172  0.000360  0.498083  0.853642  0.188053
    C   C173  0.000693  0.497272  0.646177  0.188469
    C   C174  0.500403  0.001944  0.646354  0.189245
    C   C175  0.000317  0.500506  0.353615  0.190209
    C   C176  0.502908  0.999331  0.353799  0.189054
    C   C177  0.188171  0.100529  0.971783  -0.074226
    C   C178  0.211946  0.160614  0.983512  -0.126169
    H   H65   0.219446  0.156370  0.006808  0.038251
    H   H66   0.255366  0.173374  0.972886  0.035048
    H   H67   0.177773  0.196975  0.979348  0.025283
    H   H68   0.198081  0.098494  0.948610  0.035231
    H   H69   0.138108  0.101014  0.974617  0.097125
    C   C179  0.902046  0.188465  0.972209  -0.067593
    C   C180  0.841296  0.214322  0.982097  -0.131060
    H   H70   0.842924  0.222788  0.005393  0.041621
    H   H71   0.830944  0.257521  0.970730  0.033983
    H   H72   0.804613  0.180862  0.977331  0.028642
    H   H73   0.907010  0.196783  0.948996  0.034459
    H   H74   0.899888  0.138666  0.975759  0.092760
    C   C181  0.811098  0.899674  0.973664  -0.010065
    C   C182  0.785975  0.839495  0.984664  -0.158155
    H   H75   0.778962  0.842486  0.008037  0.047827
    H   H76   0.742120  0.828391  0.974026  0.038214
    H   H77   0.819202  0.802595  0.979910  0.034334
    H   H78   0.802143  0.902875  0.950435  0.024492
    H   H79   0.861000  0.898162  0.976940  0.069762
    C   C183  0.088361  0.815844  0.965301  0.131143
    C   C184  0.139937  0.777635  0.952937  -0.270247
    H   H80   0.163809  0.752084  0.970070  0.055767
    H   H81   0.122119  0.746071  0.936394  0.050159
    H   H82   0.173333  0.808718  0.942636  0.060128
    H   H83   0.063624  0.837048  0.947198  0.019288
    H   H84   0.109835  0.852341  0.978228  0.066540
    C   C185  0.188512  0.901735  0.028871  -0.032240
    C   C186  0.212420  0.841512  0.017334  -0.150415
    H   H85   0.219894  0.845359  0.994021  0.042998
    H   H86   0.255836  0.828948  0.028014  0.038150
    H   H87   0.178313  0.805158  0.021626  0.030984
    H   H88   0.198408  0.904108  0.052038  0.025953
    H   H89   0.138465  0.900975  0.026018  0.084112
    C   C187  0.914314  0.814454  0.035575  0.103150
    C   C188  0.863046  0.775629  0.047802  -0.277484
    H   H90   0.839087  0.750487  0.030566  0.058301
    H   H91   0.881190  0.743655  0.064095  0.054203
    H   H92   0.829625  0.806243  0.058386  0.062494
    H   H93   0.938907  0.835347  0.053797  0.029268
    H   H94   0.892517  0.851079  0.022848  0.074878
    C   C189  0.816070  0.089785  0.035279  0.096714
    C   C190  0.777698  0.142094  0.046829  -0.288767
    H   H95   0.753071  0.165481  0.029265  0.060755
    H   H96   0.745288  0.125104  0.063207  0.059056
    H   H97   0.808560  0.175698  0.057127  0.065229
    H   H98   0.837720  0.067018  0.053820  0.039077
    H   H99   0.852214  0.110175  0.021773  0.082487
    C   C191  0.088232  0.183490  0.036377  0.087101
    C   C192  0.139893  0.221842  0.048566  -0.277951
    H   H100  0.164258  0.246510  0.031307  0.056984
    H   H101  0.121999  0.254233  0.064741  0.055892
    H   H102  0.172908  0.190962  0.059258  0.062979
    H   H103  0.064350  0.161973  0.054644  0.034837
    H   H104  0.109329  0.147229  0.023161  0.090265
    C   C193  0.688560  0.598261  0.471125  -0.031558
    C   C194  0.712469  0.658482  0.482666  -0.151218
    H   H105  0.719941  0.654630  0.505979  0.043139
    H   H106  0.755885  0.671047  0.471986  0.038387
    H   H107  0.678362  0.694837  0.478374  0.031114
    H   H108  0.698455  0.595892  0.447958  0.025918
    H   H109  0.638513  0.599021  0.473979  0.084088
    C   C195  0.414351  0.685539  0.464429  0.102782
    C   C196  0.363079  0.724363  0.452205  -0.277782
    H   H110  0.339123  0.749503  0.469442  0.058401
    H   H111  0.381218  0.756339  0.435910  0.054314
    H   H112  0.329656  0.693748  0.441622  0.062587
    H   H113  0.438942  0.664649  0.446205  0.029496
    H   H114  0.392558  0.648912  0.477155  0.075005
    C   C197  0.316117  0.410213  0.464715  0.096308
    C   C198  0.277745  0.357906  0.453163  -0.288400
    H   H115  0.253119  0.334514  0.470727  0.060618
    H   H116  0.245334  0.374899  0.436787  0.058962
    H   H117  0.308607  0.324305  0.442863  0.065139
    H   H118  0.337764  0.432984  0.446175  0.039258
    H   H119  0.352261  0.389821  0.478220  0.082595
    C   C199  0.588272  0.316504  0.463612  0.087692
    C   C200  0.639931  0.278150  0.451422  -0.277796
    H   H120  0.664296  0.253481  0.468680  0.056916
    H   H121  0.622034  0.245761  0.435246  0.055904
    H   H122  0.672946  0.309031  0.440730  0.062808
    H   H123  0.564389  0.338022  0.445346  0.034608
    H   H124  0.609371  0.352763  0.476829  0.090294
    C   C201  0.688217  0.399458  0.528207  -0.073508
    C   C202  0.711991  0.339375  0.516475  -0.127562
    H   H125  0.719487  0.343623  0.493179  0.038708
    H   H126  0.755411  0.326613  0.527100  0.035331
    H   H127  0.677818  0.303014  0.520638  0.025643
    H   H128  0.698127  0.401489  0.551380  0.035262
    H   H129  0.638154  0.398975  0.525373  0.097062
    C   C203  0.402091  0.311530  0.527784  -0.067004
    C   C204  0.341340  0.285675  0.517897  -0.131112
    H   H130  0.342966  0.277209  0.494601  0.041644
    H   H131  0.330988  0.242476  0.529265  0.034010
    H   H132  0.304659  0.319136  0.522664  0.028599
    H   H133  0.407058  0.303210  0.550997  0.034373
    H   H134  0.399934  0.361329  0.524235  0.092626
    C   C205  0.311143  0.600312  0.526339  -0.009681
    C   C206  0.286017  0.660492  0.515343  -0.158519
    H   H135  0.279001  0.657506  0.491970  0.047844
    H   H136  0.242163  0.671593  0.525982  0.038304
    H   H137  0.319244  0.697392  0.520097  0.034476
    H   H138  0.302191  0.597105  0.549568  0.024350
    H   H139  0.361045  0.601826  0.523062  0.069600
    C   C207  0.588407  0.684151  0.534697  0.131556
    C   C208  0.639982  0.722360  0.547061  -0.270220
    H   H140  0.663852  0.747914  0.529929  0.055772
    H   H141  0.622164  0.753923  0.563605  0.050081
    H   H142  0.673380  0.691279  0.557361  0.060132
    H   H143  0.563672  0.662944  0.552801  0.019144
    H   H144  0.609881  0.647656  0.521770  0.066506
