# generated using pymatgen
data_ZnH24C28NO4
_symmetry_space_group_name_H-M   'P 1'
_cell_length_a   13.70196800
_cell_length_b   16.58370500
_cell_length_c   17.82290500
_cell_angle_alpha   90.00026000
_cell_angle_beta   89.98851400
_cell_angle_gamma   73.74996100
_symmetry_Int_Tables_number   1
_chemical_formula_structural   ZnH24C28NO4
_chemical_formula_sum   'Zn2 H48 C56 N2 O8'
_cell_volume   3888.09345484
_cell_formula_units_Z   2
loop_
 _symmetry_equiv_pos_site_id
 _symmetry_equiv_pos_as_xyz
  1  'x, y, z'
loop_
 _atom_site_type_symbol
 _atom_site_label
 _atom_site_symmetry_multiplicity
 _atom_site_fract_x
 _atom_site_fract_y
 _atom_site_fract_z
 _atom_site_occupancy
  Zn  Zn1  1  0.49592200  0.41401500  0.48732900  1
  Zn  Zn2  1  0.48921700  0.59811200  0.48248600  1
  H  H1  1  0.99276000  0.71881200  0.58657500  1
  H  H2  1  0.17202900  0.45898200  0.46098300  1
  H  H3  1  0.80879100  0.32548300  0.42056200  1
  H  H4  1  0.09001600  0.37952800  0.42741300  1
  H  H5  1  0.74546100  0.57701500  0.56255400  1
  H  H6  1  0.48390800  0.37207600  0.25163300  1
  H  H7  1  0.47442900  0.63004000  0.24358500  1
  H  H8  1  0.49616000  0.36692200  0.85390600  1
  H  H9  1  0.50595800  0.37586200  0.71913400  1
  H  H10  1  0.48353500  0.62343700  0.87507400  1
  H  H11  1  0.61529600  0.10645700  0.56570900  1
  H  H12  1  0.61892000  0.25415600  0.56708500  1
  H  H13  1  0.37951700  0.31670800  0.41084800  1
  H  H14  1  0.37283300  0.17053100  0.40771000  1
  H  H15  1  0.56225000  0.85626800  0.58616600  1
  H  H16  1  0.56649900  0.70775300  0.58103500  1
  H  H17  1  0.40308700  0.74662200  0.37894300  1
  H  H18  1  0.40205900  0.89524800  0.37882400  1
  H  H19  1  0.17996500  0.67229200  0.68593700  1
  H  H20  1  0.29563400  0.62458300  0.63536200  1
  H  H21  1  0.26721400  0.73305400  0.66481500  1
  H  H22  1  0.22708700  0.73129000  0.52887000  1
  H  H23  1  0.11885400  0.77148600  0.58358400  1
  H  H24  1  0.39944200  0.74399100  0.16555800  1
  H  H25  1  0.53835000  0.71642000  0.16590100  1
  H  H26  1  0.46691700  0.77617300  0.08999600  1
  H  H27  1  0.54271000  0.63072500  0.05194000  1
  H  H28  1  0.40564000  0.65848100  0.05090100  1
  H  H29  1  0.64449100  0.64728500  0.78513500  1
  H  H30  1  0.64755200  0.61573000  0.68803200  1
  H  H31  1  0.61075500  0.72650000  0.71298000  1
  H  H32  1  0.45519800  0.68246600  0.68262800  1
  H  H33  1  0.45980800  0.71045100  0.77716800  1
  H  H34  1  0.85910900  0.78553000  0.51169800  1
  H  H35  1  0.74163100  0.76193600  0.49125300  1
  H  H36  1  0.74747500  0.83442000  0.56589400  1
  H  H37  1  0.74027000  0.69745300  0.61356000  1
  H  H38  1  0.85342700  0.71815700  0.64301600  1
  H  H39  1  0.14076300  0.22935900  0.45489600  1
  H  H40  1  0.03387900  0.19642300  0.48999700  1
  H  H41  1  0.10668200  0.14301800  0.41090200  1
  H  H42  1  0.94732400  0.23491500  0.36550300  1
  H  H43  1  0.04886700  0.27733500  0.33662900  1
  H  H44  1  0.62123400  0.33305200  0.04005000  1
  H  H45  1  0.64284600  0.28695100  0.13267700  1
  H  H46  1  0.59446000  0.23432300  0.05858600  1
  H  H47  1  0.45813000  0.30184200  0.14540500  1
  H  H48  1  0.43380500  0.35192300  0.05586900  1
  C  C1  1  0.50254100  0.50710200  0.63254700  1
  C  C2  1  0.69225700  0.46467000  0.47827100  1
  C  C3  1  0.48223200  0.50491300  0.33803200  1
  C  C4  1  0.29320600  0.54821000  0.49415800  1
  C  C5  1  0.02838900  0.66224700  0.55642900  1
  C  C6  1  0.18196700  0.57216800  0.50726200  1
  C  C7  1  0.85266600  0.36673700  0.43892300  1
  C  C8  1  0.95527800  0.34533400  0.42475800  1
  C  C9  1  0.01145100  0.39952300  0.44340800  1
  C  C10  1  0.96725400  0.47514400  0.48028500  1
  C  C11  1  0.86366700  0.49453900  0.49730800  1
  C  C12  1  0.02363600  0.53148000  0.50104200  1
  C  C13  1  0.97436300  0.60624700  0.53675600  1
  C  C14  1  0.87222800  0.62334400  0.55562500  1
  C  C15  1  0.82058800  0.56543200  0.53976000  1
  C  C16  1  0.12827100  0.51558100  0.48747300  1
  C  C17  1  0.13014800  0.64741500  0.54189500  1
  C  C18  1  0.80496300  0.44179700  0.47335800  1
  C  C19  1  0.48171700  0.42383300  0.14229900  1
  C  C20  1  0.48116500  0.42796400  0.21960500  1
  C  C21  1  0.47909200  0.50214900  0.25569200  1
  C  C22  1  0.47611700  0.57307600  0.21398700  1
  C  C23  1  0.47627700  0.56999900  0.13603800  1
  C  C24  1  0.47959600  0.49479500  0.10055200  1
  C  C25  1  0.48146100  0.49134500  0.01987400  1
  C  C26  1  0.48391200  0.49117400  0.95226500  1
  C  C27  1  0.49486600  0.42622300  0.82814600  1
  C  C28  1  0.50069800  0.43215600  0.75120200  1
  C  C29  1  0.49991500  0.50744800  0.71617100  1
  C  C30  1  0.49277800  0.57805800  0.76200700  1
  C  C31  1  0.48684900  0.57034000  0.83900200  1
  C  C32  1  0.48773700  0.49555200  0.87197700  1
  C  C33  1  0.56293800  0.15243200  0.53119400  1
  C  C34  1  0.56493700  0.23529400  0.53187600  1
  C  C35  1  0.43165800  0.27008300  0.44491600  1
  C  C36  1  0.42768700  0.18808000  0.44303400  1
  C  C37  1  0.49363600  0.12871600  0.48645800  1
  C  C38  1  0.48941200  0.04319900  0.48489100  1
  C  C39  1  0.48554700  0.97148800  0.48340100  1
  C  C40  1  0.52702200  0.83286300  0.53993500  1
  C  C41  1  0.52871000  0.74956200  0.53739700  1
  C  C42  1  0.43868500  0.77095100  0.42441400  1
  C  C43  1  0.43767000  0.85454200  0.42436700  1
  C  C44  1  0.48256100  0.88564400  0.48258600  1
  C  C45  1  0.17836000  0.71248400  0.57089900  1
  C  C46  1  0.23430400  0.68343300  0.64378400  1
  C  C47  1  0.47363800  0.64521600  0.08765300  1
  C  C48  1  0.46932200  0.72515800  0.13078500  1
  C  C49  1  0.49720700  0.66239500  0.73521500  1
  C  C50  1  0.60728800  0.66297300  0.72970400  1
  C  C51  1  0.81364200  0.70366900  0.59285200  1
  C  C52  1  0.78944100  0.77586000  0.53688900  1
  C  C53  1  0.00540600  0.26479300  0.38564100  1
  C  C54  1  0.07638000  0.20466300  0.43895100  1
  C  C55  1  0.48488600  0.34214800  0.10531000  1
  C  C56  1  0.59292200  0.29636000  0.08258800  1
  N  N1  1  0.49949600  0.29261300  0.48898900  1
  N  N2  1  0.48471200  0.71968300  0.48044700  1
  O  O1  1  0.50282100  0.43674600  0.59860000  1
  O  O2  1  0.49845100  0.57592700  0.59455500  1
  O  O3  1  0.64665600  0.40446700  0.48148900  1
  O  O4  1  0.64099600  0.54423100  0.47576200  1
  O  O5  1  0.48729400  0.43587900  0.37537600  1
  O  O6  1  0.48176200  0.57556200  0.37120800  1
  O  O7  1  0.34382500  0.46819800  0.49328300  1
  O  O8  1  0.33897500  0.60732600  0.48846800  1
