# generated using pymatgen
data_CuH21C32(NO2)2
_symmetry_space_group_name_H-M   'P 1'
_cell_length_a   13.57345000
_cell_length_b   17.87643400
_cell_length_c   19.31300400
_cell_angle_alpha   89.98419800
_cell_angle_beta   89.99385400
_cell_angle_gamma   73.71302400
_symmetry_Int_Tables_number   1
_chemical_formula_structural   CuH21C32(NO2)2
_chemical_formula_sum   'Cu2 H42 C64 N4 O8'
_cell_volume   4498.13977717
_cell_formula_units_Z   2
loop_
 _symmetry_equiv_pos_site_id
 _symmetry_equiv_pos_as_xyz
  1  'x, y, z'
loop_
 _atom_site_type_symbol
 _atom_site_label
 _atom_site_symmetry_multiplicity
 _atom_site_fract_x
 _atom_site_fract_y
 _atom_site_fract_z
 _atom_site_occupancy
  Cu  Cu1  1  0.49542100  0.42849300  0.49516200  1
  Cu  Cu2  1  0.48794100  0.57945400  0.50125700  1
  H  H1  1  0.17256700  0.67401100  0.43753900  1
  H  H2  1  0.84147800  0.66083800  0.40176900  1
  H  H3  1  0.99134500  0.70096100  0.41036000  1
  H  H4  1  0.17446200  0.45541000  0.52191700  1
  H  H5  1  0.80438800  0.33702900  0.55897000  1
  H  H6  1  0.08961400  0.38256400  0.55231800  1
  H  H7  1  0.98699400  0.30005500  0.58167200  1
  H  H8  1  0.74533200  0.57133500  0.42476600  1
  H  H9  1  0.43483500  0.63248800  0.28039500  1
  H  H10  1  0.43500300  0.63129300  0.15427300  1
  H  H11  1  0.58926400  0.38748300  0.15623700  1
  H  H12  1  0.59111600  0.38943800  0.28185500  1
  H  H13  1  0.45848000  0.40150400  0.06787100  1
  H  H14  1  0.44702600  0.39779800  0.94294200  1
  H  H15  1  0.54293100  0.60607400  0.93007700  1
  H  H16  1  0.55050000  0.61081400  0.05509600  1
  H  H17  1  0.42762200  0.62416000  0.84019400  1
  H  H18  1  0.42426600  0.62293200  0.71563200  1
  H  H19  1  0.53449500  0.37412500  0.71633600  1
  H  H20  1  0.54299900  0.37530400  0.84177900  1
  H  H21  1  0.61561200  0.28770800  0.56687500  1
  H  H22  1  0.61440800  0.15241200  0.57695000  1
  H  H23  1  0.33014600  0.10833900  0.52857800  1
  H  H24  1  0.32695400  0.97294400  0.52919900  1
  H  H25  1  0.65213300  0.89976900  0.50111700  1
  H  H26  1  0.65473800  0.03512700  0.49794200  1
  H  H27  1  0.61685600  0.80297500  0.57803800  1
  H  H28  1  0.61216600  0.66809900  0.57214000  1
  H  H29  1  0.35816300  0.73005900  0.43775700  1
  H  H30  1  0.35762000  0.86671400  0.44298000  1
  H  H31  1  0.28404200  0.22624000  0.41484500  1
  H  H32  1  0.23195200  0.15164900  0.32859900  1
  H  H33  1  0.27939900  0.07316600  0.22371100  1
  H  H34  1  0.46110100  0.01716800  0.19348200  1
  H  H35  1  0.59545300  0.04051500  0.26858000  1
  H  H36  1  0.55148900  0.11849300  0.37194100  1
  H  H37  1  0.28894900  0.35570000  0.42410600  1
  H  H38  1  0.21299100  0.37360700  0.31607000  1
  H  H39  1  0.22738800  0.34396900  0.19227200  1
  H  H40  1  0.39557100  0.27990200  0.14083500  1
  H  H41  1  0.55006600  0.24662700  0.21379300  1
  H  H42  1  0.53816800  0.27675500  0.33691400  1
  C  C1  1  0.48163800  0.49943700  0.63099200  1
  C  C2  1  0.68926000  0.46634500  0.50337900  1
  C  C3  1  0.50305100  0.50860200  0.36549200  1
  C  C4  1  0.29482000  0.54168800  0.49066500  1
  C  C5  1  0.03004500  0.64697800  0.43602200  1
  C  C6  1  0.18333700  0.56183700  0.48128400  1
  C  C7  1  0.84880800  0.37498100  0.54146800  1
  C  C8  1  0.95185800  0.35420500  0.55511200  1
  C  C9  1  0.01029100  0.40279600  0.53766300  1
  C  C10  1  0.96715600  0.47291400  0.50322600  1
  C  C11  1  0.86263000  0.49243600  0.48685300  1
  C  C12  1  0.02540500  0.52410000  0.48492200  1
  C  C13  1  0.97746300  0.59330700  0.45154200  1
  C  C14  1  0.87701600  0.60884400  0.43121600  1
  C  C15  1  0.82111800  0.55812100  0.44668100  1
  C  C16  1  0.13037900  0.50856100  0.49832800  1
  C  C17  1  0.13230000  0.63199300  0.45171600  1
  C  C18  1  0.80231400  0.44460300  0.50896300  1
  C  C19  1  0.46996900  0.57863200  0.25343600  1
  C  C20  1  0.47031500  0.57793200  0.18191100  1
  C  C21  1  0.51041500  0.50891700  0.14630200  1
  C  C22  1  0.55419700  0.44150500  0.18296500  1
  C  C23  1  0.55470700  0.44244900  0.25423100  1
  C  C24  1  0.50992500  0.51031800  0.28984100  1
  C  C25  1  0.47811300  0.44632000  0.03786800  1
  C  C26  1  0.47189300  0.44412700  0.96666400  1
  C  C27  1  0.49385500  0.50170300  0.92679300  1
  C  C28  1  0.52211100  0.56146100  0.95958100  1
  C  C29  1  0.52694600  0.56414400  0.03082000  1
  C  C30  1  0.50523200  0.50649400  0.07043100  1
  C  C31  1  0.45309500  0.56875100  0.81390200  1
  C  C32  1  0.45015100  0.56798900  0.74269100  1
  C  C33  1  0.47933600  0.49837100  0.70686900  1
  C  C34  1  0.51020700  0.42923000  0.74328100  1
  C  C35  1  0.51445300  0.43002900  0.81475300  1
  C  C36  1  0.48679400  0.49994300  0.85067500  1
  C  C37  1  0.56410500  0.26667200  0.53458100  1
  C  C38  1  0.56333900  0.19006000  0.54045600  1
  C  C39  1  0.49431200  0.16286900  0.50288000  1
  C  C40  1  0.42957300  0.21284200  0.45655100  1
  C  C41  1  0.43297400  0.29007800  0.45147100  1
  C  C42  1  0.40114200  0.06286200  0.52168600  1
  C  C43  1  0.39929100  0.98613100  0.52211400  1
  C  C44  1  0.48907100  0.92685100  0.51424100  1
  C  C45  1  0.58106900  0.94517500  0.50799300  1
  C  C46  1  0.58264900  0.02195600  0.50631400  1
  C  C47  1  0.49239900  0.08138100  0.51123600  1
  C  C48  1  0.55897800  0.78832200  0.54668200  1
  C  C49  1  0.55609500  0.71199000  0.54346200  1
  C  C50  1  0.41423600  0.74656800  0.46946200  1
  C  C51  1  0.41367800  0.82385400  0.47268700  1
  C  C52  1  0.48669500  0.84531600  0.51160800  1
  C  C53  1  0.38698400  0.14100200  0.35878300  1
  C  C54  1  0.31218500  0.12759800  0.31586600  1
  C  C55  1  0.33862300  0.08328700  0.25677500  1
  C  C56  1  0.44033000  0.05185600  0.23985700  1
  C  C57  1  0.51556500  0.06487400  0.28206300  1
  C  C58  1  0.48959900  0.10915500  0.34129100  1
  C  C59  1  0.37389600  0.32603600  0.33582300  1
  C  C60  1  0.28751300  0.34550000  0.29422500  1
  C  C61  1  0.29531000  0.32888100  0.22440600  1
  C  C62  1  0.38948400  0.29297100  0.19557600  1
  C  C63  1  0.47602000  0.27423300  0.23652600  1
  C  C64  1  0.46868300  0.29113500  0.30635900  1
  N  N1  1  0.50007400  0.31558400  0.49058000  1
  N  N2  1  0.48336900  0.69218400  0.50612000  1
  N  N3  1  0.35533700  0.18686900  0.41921300  1
  N  N4  1  0.36384000  0.34325900  0.40753000  1
  O  O1  1  0.49211400  0.43460300  0.59621800  1
  O  O2  1  0.47578500  0.56600900  0.60086700  1
  O  O3  1  0.64382800  0.41050400  0.50236300  1
  O  O4  1  0.63733300  0.54008600  0.50463100  1
  O  O5  1  0.50546000  0.44224900  0.39534500  1
  O  O6  1  0.49384500  0.57310600  0.40030100  1
  O  O7  1  0.34593700  0.46787200  0.49348400  1
  O  O8  1  0.33976400  0.59767300  0.49203800  1
