# generated using pymatgen
data_ZnH15C20S2NO4
_symmetry_space_group_name_H-M   'P 1'
_cell_length_a   15.06339600
_cell_length_b   8.55638000
_cell_length_c   13.41337600
_cell_angle_alpha   90.00000000
_cell_angle_beta   98.27843100
_cell_angle_gamma   90.00000000
_symmetry_Int_Tables_number   1
_chemical_formula_structural   ZnH15C20S2NO4
_chemical_formula_sum   'Zn2 H30 C40 S4 N2 O8'
_cell_volume   1710.81083686
_cell_formula_units_Z   2
loop_
 _symmetry_equiv_pos_site_id
 _symmetry_equiv_pos_as_xyz
  1  'x, y, z'
loop_
 _atom_site_type_symbol
 _atom_site_label
 _atom_site_symmetry_multiplicity
 _atom_site_fract_x
 _atom_site_fract_y
 _atom_site_fract_z
 _atom_site_occupancy
  Zn  Zn1  1  0.50095900  0.49931000  0.88884800  1
  Zn  Zn2  1  0.49901700  0.49896300  0.11098000  1
  H  H1  1  0.56488000  0.99821100  0.04828100  1
  H  H2  1  0.43470400  0.99924800  0.95000400  1
  H  H3  1  0.80087600  0.74892500  0.00927500  1
  H  H4  1  0.19964000  0.24901100  0.99229600  1
  H  H5  1  0.19930700  0.74810200  0.98803900  1
  H  H6  1  0.80073500  0.24992100  0.01281200  1
  H  H7  1  0.90417100  0.20538500  0.91553300  1
  H  H8  1  0.09619900  0.79284200  0.08589600  1
  H  H9  1  0.06343900  0.20548300  0.90488400  1
  H  H10  1  0.93691800  0.79280100  0.09664000  1
  H  H11  1  0.39959800  0.77562900  0.50511200  1
  H  H12  1  0.47478300  0.11679000  0.40695600  1
  H  H13  1  0.60131200  0.77448000  0.49473800  1
  H  H14  1  0.52404900  0.11706000  0.59309600  1
  H  H15  1  0.51966100  0.88375200  0.41218300  1
  H  H16  1  0.60136100  0.22709200  0.53106800  1
  H  H17  1  0.48181500  0.88368900  0.58770700  1
  H  H18  1  0.39789100  0.22799000  0.46888600  1
  H  H19  1  0.35924200  0.91658000  0.16241800  1
  H  H20  1  0.38307700  0.92802700  0.29829000  1
  H  H21  1  0.35377000  0.74262100  0.23735800  1
  H  H22  1  0.35113100  0.10899500  0.77934700  1
  H  H23  1  0.38552100  0.06631800  0.65850800  1
  H  H24  1  0.36076100  0.26494300  0.69150600  1
  H  H25  1  0.64113900  0.91594000  0.83800000  1
  H  H26  1  0.61740200  0.92920200  0.70220500  1
  H  H27  1  0.64645200  0.74293500  0.76214000  1
  H  H28  1  0.64665600  0.10086400  0.22022700  1
  H  H29  1  0.61495900  0.07583900  0.34424400  1
  H  H30  1  0.64042000  0.26827200  0.30004500  1
  C  C1  1  0.67823400  0.85809900  0.03090100  1
  C  C2  1  0.32188100  0.13970700  0.96930300  1
  C  C3  1  0.32204000  0.85858600  0.96945700  1
  C  C4  1  0.67773900  0.13921000  0.02998100  1
  C  C5  1  0.76761200  0.85861800  0.01876500  1
  C  C6  1  0.23271400  0.13930000  0.98230900  1
  C  C7  1  0.23298100  0.85852400  0.98282400  1
  C  C8  1  0.76704800  0.13942500  0.01765300  1
  C  C9  1  0.81298100  0.99918600  0.01509200  1
  C  C10  1  0.18725800  0.99884600  0.98597700  1
  C  C11  1  0.63476000  0.99849100  0.03936300  1
  C  C12  1  0.36499600  0.99916800  0.95968500  1
  C  C13  1  0.94593200  0.11583800  0.95484500  1
  C  C14  1  0.05442500  0.88247200  0.04668600  1
  C  C15  1  0.03654700  0.11597400  0.94879900  1
  C  C16  1  0.96380700  0.88236200  0.05276500  1
  C  C17  1  0.09130900  0.99932900  0.99459600  1
  C  C18  1  0.90902800  0.99895200  0.00689600  1
  C  C19  1  0.49861300  0.50052700  0.44560500  1
  C  C20  1  0.50149600  0.50060000  0.55424100  1
  C  C21  1  0.50983900  0.63671800  0.39628200  1
  C  C22  1  0.51424100  0.36404800  0.60663100  1
  C  C23  1  0.49061900  0.63693100  0.60352500  1
  C  C24  1  0.48537700  0.36400300  0.39323400  1
  C  C25  1  0.53025500  0.77873200  0.45889400  1
  C  C26  1  0.53176700  0.22222800  0.54888000  1
  C  C27  1  0.47068800  0.77901200  0.54088900  1
  C  C28  1  0.46745300  0.22237000  0.45102800  1
  C  C29  1  0.48985900  0.36309300  0.29084300  1
  C  C30  1  0.49637100  0.63657900  0.70751900  1
  C  C31  1  0.50967400  0.36328600  0.70901200  1
  C  C32  1  0.50393500  0.63626200  0.29228600  1
  C  C33  1  0.62485600  0.71366100  0.02161200  1
  C  C34  1  0.37525000  0.28428700  0.97818500  1
  C  C35  1  0.37551600  0.71430200  0.97837800  1
  C  C36  1  0.62437200  0.28372300  0.02147100  1
  C  C37  1  0.38959700  0.85477500  0.23160500  1
  C  C38  1  0.38991300  0.15212500  0.72086800  1
  C  C39  1  0.61075500  0.85506700  0.76846400  1
  C  C40  1  0.60978900  0.15340800  0.27752400  1
  S  S1  1  0.50713800  0.81606100  0.22491800  1
  S  S2  1  0.50633400  0.18231400  0.77487600  1
  S  S3  1  0.49315900  0.81643400  0.77485000  1
  S  S4  1  0.49285200  0.18200900  0.22511600  1
  N  N1  1  0.49711500  0.49922200  0.24152400  1
  N  N2  1  0.50284400  0.49956700  0.75830300  1
  O  O1  1  0.59655300  0.65734200  0.10257100  1
  O  O2  1  0.40410800  0.33960200  0.89719400  1
  O  O3  1  0.40367800  0.65815300  0.89731400  1
  O  O4  1  0.59562500  0.33880100  0.10259100  1
  O  O5  1  0.59395500  0.66490700  0.93034500  1
  O  O6  1  0.40533300  0.33448500  0.06939600  1
  O  O7  1  0.40629400  0.66501800  0.06954100  1
  O  O8  1  0.59437700  0.33438100  0.93036100  1
