# Generated by REPEAT Assigner based on pymatgen
data_DB0-m3_o51_o155_f0_fsc.sym.18
_audit_creation_date              2022-05-24
_audit_creation_method            REPEAT_Assigner
_cell_length_a                    13.137803
_cell_length_b                    17.572650
_cell_length_c                    8.555429
_cell_angle_alpha                 90.000000
_cell_angle_beta                  93.390939
_cell_angle_gamma                 90.000000
_cell_volume                      1971.699707
_symmetry_space_group_name_H-M    P1
_symmetry_Int_Tables_number       1
loop_
    _symmetry_equiv_pos_site_id
    _symmetry_equiv_pos_as_xyz
    1  x,y,z
loop_
    _atom_site_type_symbol
    _atom_site_label
    _atom_site_fract_x
    _atom_site_fract_y
    _atom_site_fract_z
    _atom_type_partial_charge
    C   C1   0.698902  0.006486  0.155388  -0.025510
    C   C2   0.300953  0.993631  0.843156  0.041734
    C   C3   0.802600  0.993808  0.167865  -0.292618
    C   C4   0.197251  0.006298  0.830675  -0.338682
    C   C5   0.857660  0.993485  0.034602  0.339188
    C   C6   0.142180  0.006587  0.963932  0.348865
    C   C7   0.806056  0.996422  0.887882  -0.304141
    C   C8   0.193778  0.003627  0.110658  -0.294988
    H   H1   0.845436  0.988563  0.781872  0.126630
    H   H2   0.154393  0.011468  0.216669  0.132388
    C   C9   0.701861  0.008244  0.877103  0.030775
    C   C10  0.297976  0.991817  0.121445  -0.017282
    C   C11  0.650922  0.018368  0.010837  -0.174561
    C   C12  0.348925  0.981728  0.987708  -0.171692
    C   C13  0.969507  0.987423  0.053670  -0.257464
    C   C14  0.030331  0.012637  0.944853  -0.246352
    H   H3   0.002033  0.963650  0.162025  0.144843
    H   H4   0.997801  0.036411  0.836501  0.148499
    H   H5   0.841101  0.986709  0.282127  0.121300
    H   H6   0.158753  0.013407  0.716413  0.127343
    H   H7   0.570719  0.030624  0.001683  0.134678
    H   H8   0.429130  0.969480  0.996864  0.132955
    O   O1   0.609471  0.936324  0.341930  -0.671680
    O   O2   0.390289  0.063769  0.656448  -0.757889
    O   O3   0.402451  0.931851  0.660558  -0.692504
    O   O4   0.597538  0.068272  0.338168  -0.774494
    C   C15  0.636069  0.003765  0.290424  0.865686
    C   C16  0.363790  0.996340  0.708116  0.845631
    O   O5   0.387533  0.061943  0.323856  -0.685206
    O   O6   0.612391  0.938148  0.674567  -0.759732
    O   O7   0.600401  0.068273  0.673738  -0.708797
    O   O8   0.399307  0.931784  0.324990  -0.774237
    C   C17  0.359324  0.995059  0.269634  0.847963
    C   C18  0.640513  0.005018  0.728919  0.838907
    Zn  Zn1  0.493521  0.085988  0.497793  1.070695
    Zn  Zn2  0.506335  0.914097  0.500730  1.050815
    C   C19  0.579354  0.222054  0.509096  -0.307716
    C   C20  0.421189  0.777886  0.510490  -0.308042
    C   C21  0.401289  0.224777  0.484155  -0.336868
    C   C22  0.597996  0.775342  0.493360  -0.336561
    N   N1   0.489278  0.185770  0.496370  0.244550
    N   N2   0.510592  0.814306  0.502183  0.254005
    C   C23  0.494341  0.342052  0.497530  -0.061803
    C   C24  0.505722  0.657983  0.501292  -0.069046
    C   C25  0.583561  0.300655  0.514821  0.237943
    C   C26  0.417508  0.699287  0.516123  0.241273
    C   C27  0.402385  0.303752  0.479922  0.253296
    C   C28  0.596630  0.696388  0.487420  0.257781
    C   C29  0.675874  0.338270  0.535910  -0.220876
    C   C30  0.326519  0.661604  0.534256  -0.220651
    C   C31  0.312849  0.344964  0.460579  -0.232802
    C   C32  0.684944  0.655294  0.469484  -0.233760
    C   C33  0.592429  0.537952  0.495027  -0.003892
    C   C34  0.407243  0.462126  0.491542  -0.002151
    C   C35  0.410549  0.541284  0.504518  0.015055
    C   C36  0.589916  0.458725  0.506027  0.015193
    C   C37  0.502900  0.578976  0.500183  0.074283
    C   C38  0.497163  0.421064  0.498207  0.068816
    C   C39  0.682651  0.577006  0.475078  -0.101702
    C   C40  0.315582  0.423206  0.468239  -0.102265
    C   C41  0.323333  0.583442  0.526720  -0.117180
    C   C42  0.678642  0.416439  0.529557  -0.115844
    H   H9   0.751931  0.548053  0.450096  0.105991
    H   H10  0.244568  0.452289  0.442391  0.106028
    H   H11  0.252574  0.556869  0.552564  0.110027
    H   H12  0.751306  0.442805  0.557312  0.108724
    H   H13  0.331118  0.192914  0.480293  0.232920
    H   H14  0.668034  0.807195  0.492577  0.227756
    H   H15  0.647644  0.188077  0.512097  0.223954
    H   H16  0.352742  0.811648  0.508917  0.219170
    C   C43  0.771671  0.297612  0.574911  0.685687
    O   O9   0.775056  0.247909  0.674540  -0.501416
    C   C44  0.867565  0.321431  0.504013  -0.481835
    H   H17  0.850710  0.363391  0.409228  0.091904
    H   H18  0.903891  0.270814  0.453567  0.155739
    H   H19  0.920016  0.346919  0.595898  0.144562
    C   C45  0.233526  0.702192  0.572567  0.676744
    O   O10  0.237599  0.752192  0.671564  -0.495493
    C   C46  0.132241  0.677822  0.502410  -0.472485
    H   H20  0.141879  0.636405  0.406660  0.089837
    H   H21  0.091012  0.728315  0.453403  0.152496
    H   H22  0.087891  0.651504  0.594551  0.141823
    C   C47  0.214193  0.307909  0.423980  0.686314
    O   O11  0.206115  0.258926  0.323061  -0.502243
    C   C48  0.121634  0.333416  0.501893  -0.473176
    H   H23  0.142473  0.375812  0.594267  0.086520
    H   H24  0.086461  0.283507  0.556816  0.154547
    H   H25  0.066557  0.358810  0.413507  0.140961
    C   C49  0.781130  0.692539  0.435438  0.686708
    O   O12  0.782163  0.742221  0.336047  -0.501800
    C   C50  0.879256  0.666113  0.513212  -0.474859
    H   H26  0.864903  0.623466  0.604825  0.087033
    H   H27  0.919227  0.715553  0.569073  0.155676
    H   H28  0.927196  0.640708  0.424421  0.140089
