# generated using pymatgen
data_Fe2H29C43NO20
_symmetry_space_group_name_H-M   'P 1'
_cell_length_a   15.31131500
_cell_length_b   9.35731200
_cell_length_c   16.02416300
_cell_angle_alpha   92.12104300
_cell_angle_beta   103.15605400
_cell_angle_gamma   107.37775200
_symmetry_Int_Tables_number   1
_chemical_formula_structural   Fe2H29C43NO20
_chemical_formula_sum   'Fe2 H29 C43 N1 O20'
_cell_volume   2119.87024899
_cell_formula_units_Z   1
loop_
 _symmetry_equiv_pos_site_id
 _symmetry_equiv_pos_as_xyz
  1  'x, y, z'
loop_
 _atom_site_type_symbol
 _atom_site_label
 _atom_site_symmetry_multiplicity
 _atom_site_fract_x
 _atom_site_fract_y
 _atom_site_fract_z
 _atom_site_occupancy
  Fe  Fe1  1  0.49401100  0.02099200  0.80545400  1
  Fe  Fe2  1  0.51617400  0.04944800  0.18190100  1
  H  H1  1  0.81155000  0.11037100  0.20408800  1
  H  H2  1  0.96382500  0.12064800  0.17795900  1
  H  H3  1  0.06519200  0.15120500  0.06986800  1
  H  H4  1  0.94443500  0.88892500  0.93161900  1
  H  H5  1  0.17937700  0.04679500  0.08232400  1
  H  H6  1  0.52376500  0.60411100  0.21670000  1
  H  H7  1  0.48603000  0.28417400  0.53159500  1
  H  H8  1  0.51205700  0.31832500  0.41369300  1
  H  H9  1  0.52393800  0.91127200  0.45788300  1
  H  H10  1  0.94908000  0.25035400  0.91163100  1
  H  H11  1  0.82856300  0.25470000  0.88430400  1
  H  H12  1  0.80528300  0.14203600  0.73644800  1
  H  H13  1  0.90808400  0.30923400  0.76331700  1
  H  H14  1  0.92279800  0.12462600  0.76389400  1
  H  H15  1  0.00051300  0.68421000  0.86976100  1
  H  H16  1  0.02549000  0.66859000  0.76520000  1
  H  H17  1  0.86974400  0.69112100  0.69445000  1
  H  H18  1  0.85668500  0.53578300  0.75955800  1
  H  H19  1  0.84437100  0.71083500  0.79839600  1
  H  H20  1  0.26636400  0.05199900  0.71248700  1
  H  H21  1  0.19005800  0.11078600  0.76794100  1
  H  H22  1  0.04964300  0.95274400  0.65636200  1
  H  H23  1  0.13080500  0.08522200  0.60807400  1
  H  H24  1  0.12577800  0.88930200  0.60289500  1
  H  H25  1  0.36080700  0.30085400  0.76831600  1
  H  H26  1  0.35047600  0.47591000  0.73024300  1
  H  H27  1  0.41553600  0.43495100  0.92105500  1
  H  H28  1  0.38148000  0.59098200  0.87663800  1
  H  H29  1  0.29386300  0.40847900  0.86571500  1
  C  C1  1  0.81711100  0.09557200  0.13848900  1
  C  C2  1  0.90293100  0.10045200  0.12398600  1
  C  C3  1  0.91033400  0.07211800  0.04153800  1
  C  C4  1  0.83312000  0.05309200  0.97228600  1
  C  C5  1  0.74497200  0.04459100  0.98616600  1
  C  C6  1  0.73733100  0.06165100  0.07099700  1
  C  C7  1  0.00221400  0.07035900  0.02900300  1
  C  C8  1  0.00830700  0.97145300  0.96981100  1
  C  C9  1  0.10078900  0.92219100  0.87132400  1
  C  C10  1  0.18584500  0.93291300  0.85222400  1
  C  C11  1  0.26997200  0.98912500  0.91547700  1
  C  C12  1  0.26748700  0.02629800  0.99971300  1
  C  C13  1  0.18198200  0.02014200  0.01708200  1
  C  C14  1  0.09906400  0.97296800  0.95274000  1
  C  C15  1  0.48040200  0.22668900  0.68621200  1
  C  C16  1  0.35982100  0.02077200  0.89060700  1
  C  C17  1  0.66354600  0.02591300  0.91118100  1
  C  C18  1  0.50598100  0.76306600  0.73373900  1
  C  C19  1  0.51857900  0.32430500  0.25219700  1
  C  C20  1  0.35115100  0.05943700  0.07320900  1
  C  C21  1  0.64681500  0.03724100  0.09343000  1
  C  C22  1  0.53235800  0.85002700  0.30335400  1
  C  C23  1  0.49375600  0.49469400  0.70654400  1
  C  C24  1  0.48911300  0.37250000  0.65314800  1
  C  C25  1  0.49228700  0.38597000  0.56882300  1
  C  C26  1  0.50319200  0.63379400  0.67560800  1
  C  C27  1  0.50813700  0.64755800  0.59025900  1
  C  C28  1  0.50440600  0.52459600  0.53635300  1
  C  C29  1  0.51206500  0.54379500  0.45138600  1
  C  C30  1  0.51306300  0.42729300  0.39481100  1
  C  C31  1  0.51703700  0.44802600  0.31081700  1
  C  C32  1  0.52055700  0.80163700  0.47817900  1
  C  C33  1  0.51974100  0.68425100  0.42253600  1
  C  C34  1  0.52377500  0.70475400  0.33769200  1
  C  C35  1  0.52023600  0.58592700  0.28220800  1
  C  C36  1  0.87651900  0.19274800  0.87169000  1
  C  C37  1  0.87818500  0.19218000  0.77755500  1
  C  C38  1  0.98767700  0.71801400  0.80361300  1
  C  C39  1  0.88267800  0.66004900  0.76123200  1
  C  C40  1  0.19623000  0.01774300  0.72714200  1
  C  C41  1  0.12051000  0.98389800  0.64313500  1
  C  C42  1  0.38789700  0.42494200  0.78239700  1
  C  C43  1  0.36868500  0.46792100  0.86702200  1
  N  N1  1  0.51582500  0.78129100  0.55967600  1
  O  O1  1  0.52865200  0.22227500  0.76448400  1
  O  O2  1  0.42670100  0.14942300  0.92008200  1
  O  O3  1  0.42248600  0.10241700  0.63921600  1
  O  O4  1  0.37047500  0.92990600  0.83207600  1
  O  O5  1  0.58306100  0.03702000  0.92115600  1
  O  O6  1  0.67238000  0.00697000  0.83237400  1
  O  O7  1  0.49803000  0.88961500  0.70542900  1
  O  O8  1  0.51411400  0.75168600  0.81624300  1
  O  O9  1  0.51545400  0.19170200  0.27849900  1
  O  O10  1  0.52261100  0.34554600  0.17248300  1
  O  O11  1  0.42749400  0.02925200  0.06543900  1
  O  O12  1  0.34442800  0.09786200  0.15048900  1
  O  O13  1  0.60347800  0.97005000  0.34013800  1
  O  O14  1  0.64019600  0.12860700  0.15426900  1
  O  O15  1  0.47715100  0.85340700  0.22812900  1
  O  O16  1  0.57756900  0.91127800  0.06356000  1
  O  O17  1  0.84481000  0.04403200  0.89025700  1
  O  O18  1  0.01916100  0.87485400  0.80692900  1
  O  O19  1  0.18608000  0.88869500  0.76988400  1
  O  O20  1  0.48512200  0.47497800  0.78894900  1
