# generated using pymatgen
data_CuH7C10NO8
_symmetry_space_group_name_H-M   'P 1'
_cell_length_a   14.01540700
_cell_length_b   8.79181100
_cell_length_c   7.34311500
_cell_angle_alpha   104.14350700
_cell_angle_beta   91.64647100
_cell_angle_gamma   90.59752200
_symmetry_Int_Tables_number   1
_chemical_formula_structural   CuH7C10NO8
_chemical_formula_sum   'Cu2 H14 C20 N2 O16'
_cell_volume   876.89203098
_cell_formula_units_Z   2
loop_
 _symmetry_equiv_pos_site_id
 _symmetry_equiv_pos_as_xyz
  1  'x, y, z'
loop_
 _atom_site_type_symbol
 _atom_site_label
 _atom_site_symmetry_multiplicity
 _atom_site_fract_x
 _atom_site_fract_y
 _atom_site_fract_z
 _atom_site_occupancy
  Cu  Cu1  1  0.50069300  0.52266000  0.69036400  1
  Cu  Cu2  1  0.48467200  0.48785400  0.31798000  1
  H  H1  1  0.48519100  0.96145100  0.28687500  1
  H  H2  1  0.49597800  0.04999400  0.71734400  1
  H  H3  1  0.90026300  0.38117200  0.98687300  1
  H  H4  1  0.78359400  0.43042200  0.90842000  1
  H  H5  1  0.85172400  0.57252500  0.08565000  1
  H  H6  1  0.08191900  0.58563000  0.99387200  1
  H  H7  1  0.19941000  0.59766900  0.10627300  1
  H  H8  1  0.13502900  0.77538100  0.10539900  1
  H  H9  1  0.27391200  0.22037800  0.70743900  1
  H  H10  1  0.19290900  0.22804900  0.89691600  1
  H  H11  1  0.27506900  0.06716300  0.83311800  1
  H  H12  1  0.71696000  0.79479900  0.28588900  1
  H  H13  1  0.70142900  0.94904500  0.16282400  1
  H  H14  1  0.78685600  0.79688800  0.08185100  1
  C  C1  1  0.49115300  0.20619200  0.45622700  1
  C  C2  1  0.49193400  0.80397700  0.55070600  1
  C  C3  1  0.30980300  0.50284300  0.52727200  1
  C  C4  1  0.67440300  0.50666600  0.48122100  1
  C  C5  1  0.77602300  0.51564200  0.46851100  1
  C  C6  1  0.20778900  0.50314000  0.54166000  1
  C  C7  1  0.96281200  0.54124300  0.44558300  1
  C  C8  1  0.02063900  0.51234000  0.58040100  1
  C  C9  1  0.12235000  0.50565800  0.55736300  1
  C  C10  1  0.86125100  0.52578800  0.45728400  1
  C  C11  1  0.48897700  0.03609000  0.42859900  1
  C  C12  1  0.49219000  0.97405000  0.57641100  1
  C  C13  1  0.90091500  0.53822900  0.80619800  1
  C  C14  1  0.85637600  0.47663900  0.95625500  1
  C  C15  1  0.08415700  0.64566400  0.29329100  1
  C  C16  1  0.12801300  0.65147000  0.11308200  1
  C  C17  1  0.33904000  0.28357100  0.98277400  1
  C  C18  1  0.26541500  0.19436200  0.84687400  1
  C  C19  1  0.64218800  0.72890600  0.01895300  1
  C  C20  1  0.71657100  0.82299900  0.14669300  1
  N  N1  1  0.46832400  0.45818500  0.03964100  1
  N  N2  1  0.51498200  0.55122500  0.96863800  1
  O  O1  1  0.49854200  0.29415600  0.62764200  1
  O  O2  1  0.48144600  0.71517400  0.38034500  1
  O  O3  1  0.48109300  0.26232500  0.30817500  1
  O  O4  1  0.49966200  0.74701700  0.69885500  1
  O  O5  1  0.36199100  0.52613100  0.68277300  1
  O  O6  1  0.62222100  0.48452700  0.32603200  1
  O  O7  1  0.34608000  0.48220800  0.36090200  1
  O  O8  1  0.63809200  0.52654800  0.64710200  1
  O  O9  1  0.98453000  0.48025500  0.73569600  1
  O  O10  1  0.86481900  0.64793800  0.75727600  1
  O  O11  1  0.99817100  0.57512700  0.29100500  1
  O  O12  1  0.12316500  0.71401200  0.44160300  1
  O  O13  1  0.40092700  0.38084600  0.92720800  1
  O  O14  1  0.34592100  0.26355200  0.14094600  1
  O  O15  1  0.58380400  0.62989600  0.07920900  1
  O  O16  1  0.63295400  0.74598000  0.86019400  1
