# Generated by REPEAT Assigner based on pymatgen
data_DB0-m29_o89_o90_f0_pts.sym.62
_audit_creation_date              2022-05-24
_audit_creation_method            REPEAT_Assigner
_cell_length_a                    14.279685
_cell_length_b                    16.955027
_cell_length_c                    11.452675
_cell_angle_alpha                 108.029238
_cell_angle_beta                  94.260192
_cell_angle_gamma                 108.042687
_cell_volume                      2462.236948
_symmetry_space_group_name_H-M    P1
_symmetry_Int_Tables_number       1
loop_
    _symmetry_equiv_pos_site_id
    _symmetry_equiv_pos_as_xyz
    1  x,y,z
loop_
    _atom_site_type_symbol
    _atom_site_label
    _atom_site_fract_x
    _atom_site_fract_y
    _atom_site_fract_z
    _atom_type_partial_charge
    C   C1   0.849096  0.996892  0.138624  -0.249856
    C   C2   0.757046  0.995993  0.089713  0.082105
    C   C3   0.741844  0.997090  0.969347  0.016563
    C   C4   0.817369  0.999336  0.901200  -0.203135
    C   C5   0.908851  0.997571  0.948312  0.176442
    C   C6   0.925174  0.997623  0.068942  0.129363
    C   C7   0.982883  0.994531  0.875597  -0.160237
    C   C8   0.074661  0.993958  0.926097  0.155443
    C   C9   0.090745  0.994359  0.046935  0.111409
    C   C10  0.016445  0.996582  0.118493  -0.162489
    C   C11  0.151558  0.994402  0.857829  -0.145742
    C   C12  0.243987  0.997218  0.908840  0.023525
    C   C13  0.259178  0.997830  0.030169  0.021850
    C   C14  0.182801  0.995159  0.096988  -0.231637
    H   H1   0.859342  0.995564  0.231994  0.164152
    H   H2   0.799232  0.998741  0.808211  0.155922
    H   H3   0.142135  0.993673  0.763748  0.106394
    H   H4   0.200319  0.998220  0.191818  0.164328
    N   N1   0.041573  0.933929  0.282746  -0.363464
    C   C15  0.065746  0.964887  0.408323  0.089189
    C   C16  0.076237  0.053318  0.454311  -0.043930
    C   C17  0.057356  0.076736  0.352276  -0.340310
    C   C18  0.036305  0.001637  0.248382  0.338809
    H   H5   0.030302  0.869837  0.223278  0.331128
    H   H6   0.076216  0.925648  0.463308  0.065279
    H   H7   0.096813  0.096381  0.551180  0.099140
    H   H8   0.060295  0.141466  0.353450  0.174827
    O   O1   0.598109  0.010541  0.134950  -0.457170
    C   C19  0.679038  0.995219  0.167913  0.489830
    O   O2   0.499200  0.826440  0.154579  -0.484465
    O   O3   0.691517  0.981326  0.273568  -0.487221
    O   O4   0.490678  0.916082  0.343349  -0.429700
    C   C20  0.493584  0.839694  0.272560  0.478738
    Fe  Fe1  0.503868  0.999730  0.252164  1.420706
    O   O5   0.364946  0.953792  0.151206  -0.591376
    O   O6   0.433752  0.081477  0.113921  -0.485102
    C   C21  0.356769  0.009469  0.096373  0.632489
    O   O7   0.557364  0.122251  0.380724  -0.589662
    O   O8   0.409853  0.062953  0.436751  -0.544433
    C   C22  0.493158  0.129964  0.456003  0.625411
    O   O9   0.443768  0.874233  0.619771  -0.574499
    O   O10  0.591525  0.932643  0.563622  -0.513814
    C   C23  0.507773  0.866072  0.544342  0.592775
    O   O11  0.637558  0.042124  0.848274  -0.571990
    O   O12  0.566645  0.915855  0.888114  -0.486538
    C   C24  0.644514  0.986977  0.904620  0.599719
    O   O13  0.309475  0.010435  0.724374  -0.500075
    O   O14  0.511187  0.080557  0.657547  -0.438370
    C   C25  0.506108  0.156231  0.727635  0.480483
    O   O15  0.404827  0.986187  0.866780  -0.472004
    C   C26  0.322531  0.998584  0.831498  0.523197
    O   O16  0.498939  0.169013  0.845131  -0.478737
    Fe  Fe2  0.498232  0.996772  0.748470  1.416559
    C   C27  0.507702  0.215576  0.550831  -0.026596
    C   C28  0.511151  0.284565  0.509424  0.071657
    H   H9   0.507271  0.272907  0.410684  0.053788
    C   C29  0.512820  0.364731  0.590706  -0.433123
    C   C30  0.515670  0.376665  0.715953  0.101652
    H   H10  0.517646  0.438678  0.782255  0.051346
    C   C31  0.514533  0.308747  0.758557  -0.168975
    H   H11  0.516609  0.320447  0.857094  0.140076
    C   C32  0.509194  0.227122  0.676976  0.077782
    N   N2   0.505114  0.511656  0.622086  -0.276931
    N   N3   0.497744  0.573868  0.579096  -0.240770
    C   C33  0.491701  0.560720  0.456285  0.790276
    N   N4   0.493678  0.483858  0.377632  -0.279341
    N   N5   0.501060  0.421647  0.420626  -0.236023
    C   C34  0.507117  0.434804  0.543446  0.792091
    C   C35  0.482568  0.618784  0.283746  0.093869
    H   H12  0.479843  0.556566  0.217257  0.057190
    C   C36  0.483887  0.686797  0.241253  -0.181575
    H   H13  0.481238  0.674974  0.142614  0.144718
    C   C37  0.490212  0.768676  0.323077  0.087790
    C   C38  0.492448  0.780355  0.449345  -0.018907
    C   C39  0.488739  0.711283  0.490640  0.055043
    H   H14  0.493180  0.723066  0.589466  0.059385
    C   C40  0.486146  0.630869  0.409114  -0.423547
    I   I1   0.954286  0.988242  0.686523  0.049303
