# generated using pymatgen
data_Cu6H44C69O25
_symmetry_space_group_name_H-M   'P 1'
_cell_length_a   18.74091900
_cell_length_b   18.65202700
_cell_length_c   18.67153500
_cell_angle_alpha   109.35077900
_cell_angle_beta   109.54692800
_cell_angle_gamma   109.56643700
_symmetry_Int_Tables_number   1
_chemical_formula_structural   Cu6H44C69O25
_chemical_formula_sum   'Cu6 H44 C69 O25'
_cell_volume   5021.14511225
_cell_formula_units_Z   1
loop_
 _symmetry_equiv_pos_site_id
 _symmetry_equiv_pos_as_xyz
  1  'x, y, z'
loop_
 _atom_site_type_symbol
 _atom_site_label
 _atom_site_symmetry_multiplicity
 _atom_site_fract_x
 _atom_site_fract_y
 _atom_site_fract_z
 _atom_site_occupancy
  Cu  Cu1  1  0.49895200  0.44683900  0.44245800  1
  Cu  Cu2  1  0.50227500  0.56895000  0.56513600  1
  Cu  Cu3  1  0.94385500  0.44881400  0.00430400  1
  Cu  Cu4  1  0.06192600  0.57014300  0.00232400  1
  Cu  Cu5  1  0.06244500  0.00716500  0.56191900  1
  Cu  Cu6  1  0.93892400  0.00700800  0.44450600  1
  H  H1  1  0.53952800  0.20636300  0.55323800  1
  H  H2  1  0.72267900  0.66728100  0.71343400  1
  H  H3  1  0.84703000  0.80310600  0.83629300  1
  H  H4  1  0.95712000  0.80434600  0.95441100  1
  H  H5  1  0.94308800  0.66978100  0.94814100  1
  H  H6  1  0.78081500  0.34267700  0.78658100  1
  H  H7  1  0.65403600  0.20727600  0.66606700  1
  H  H8  1  0.55058600  0.34154900  0.56243000  1
  H  H9  1  0.25215200  0.40102100  0.53512900  1
  H  H10  1  0.13705700  0.28631800  0.53257900  1
  H  H11  1  0.21743800  0.05713400  0.38918500  1
  H  H12  1  0.40720400  0.21273800  0.50754800  1
  H  H13  1  0.33198100  0.17027800  0.38821700  1
  H  H14  1  0.38041700  0.65517400  0.38500600  1
  H  H15  1  0.26849100  0.65555900  0.27015300  1
  H  H16  1  0.07047600  0.31538200  0.12995400  1
  H  H17  1  0.13215600  0.31830900  0.06820000  1
  H  H18  1  0.18408900  0.31539700  0.24164600  1
  H  H19  1  0.24543300  0.31766400  0.17954000  1
  H  H20  1  0.76872000  0.76953600  0.64741300  1
  H  H21  1  0.88374800  0.88192900  0.64785700  1
  H  H22  1  0.68070800  0.74740300  0.31057300  1
  H  H23  1  0.74219000  0.68538800  0.30846900  1
  H  H24  1  0.56894200  0.63369100  0.31048800  1
  H  H25  1  0.62990700  0.57117000  0.30757800  1
  H  H26  1  0.14613300  0.38666700  0.88329400  1
  H  H27  1  0.14625600  0.27135900  0.77173200  1
  H  H28  1  0.81023000  0.13519700  0.56962200  1
  H  H29  1  0.80786400  0.07243100  0.63077800  1
  H  H30  1  0.81105500  0.24833800  0.68088000  1
  H  H31  1  0.80638400  0.18548000  0.74203300  1
  H  H32  1  0.99589600  0.77095900  0.12142000  1
  H  H33  1  0.99275500  0.88293600  0.23328100  1
  H  H34  1  0.06869100  0.75221900  0.43835200  1
  H  H35  1  0.94534700  0.68862400  0.38005700  1
  H  H36  1  0.06707800  0.63883600  0.32494400  1
  H  H37  1  0.94374000  0.57479400  0.26686700  1
  H  H38  1  0.30579900  0.00066500  0.43358500  1
  H  H39  1  0.21019600  0.96753200  0.44739600  1
  H  H40  1  0.39845100  0.03424600  0.58311000  1
  H  H41  1  0.30468500  0.00430200  0.59867500  1
  H  H42  1  0.23105200  0.85298800  0.47388000  1
  H  H43  1  0.33595500  0.88211500  0.55762700  1
  H  H44  1  0.32458200  0.88277400  0.45781000  1
  C  C1  1  0.38078000  0.39137200  0.50213500  1
  C  C2  1  0.61602000  0.50447500  0.61975100  1
  C  C3  1  0.62027600  0.62417300  0.50522200  1
  C  C4  1  0.38624800  0.51224800  0.38812200  1
  C  C5  1  0.76863200  0.66352700  0.76307200  1
  C  C6  1  0.83993300  0.74195800  0.83298300  1
  C  C7  1  0.90155800  0.74264400  0.89883200  1
  C  C8  1  0.89297300  0.66484300  0.89403500  1
  C  C9  1  0.82214400  0.58467800  0.82280000  1
  C  C10  1  0.75798800  0.58410700  0.75780000  1
  C  C11  1  0.81436400  0.50581200  0.81718800  1
  C  C12  1  0.74116600  0.42645000  0.74704600  1
  C  C13  1  0.67653400  0.42595600  0.68252700  1
  C  C14  1  0.68474200  0.50477600  0.68772700  1
  C  C15  1  0.73224400  0.34686400  0.73983900  1
  C  C16  1  0.66003100  0.26858600  0.67080900  1
  C  C17  1  0.59588800  0.26814000  0.60770900  1
  C  C18  1  0.60350200  0.34603500  0.61351500  1
  C  C19  1  0.30281800  0.24279600  0.48077400  1
  C  C20  1  0.31118300  0.32397600  0.50084200  1
  C  C21  1  0.24993800  0.33884800  0.51965000  1
  C  C22  1  0.18396000  0.27341400  0.51771700  1
  C  C23  1  0.18007700  0.19338200  0.49967600  1
  C  C24  1  0.24163000  0.18184600  0.48164300  1
  C  C25  1  0.26809000  0.11568100  0.45457300  1
  C  C26  1  0.34086500  0.18746500  0.45459600  1
  C  C27  1  0.24926000  0.43911400  0.24769700  1
  C  C28  1  0.32013500  0.51464200  0.32121200  1
  C  C29  1  0.32578700  0.59329500  0.32882700  1
  C  C30  1  0.26229800  0.59354300  0.26315200  1
  C  C31  1  0.19062500  0.51507500  0.19079200  1
  C  C32  1  0.18713100  0.43928800  0.18712200  1
  C  C33  1  0.13409700  0.34224000  0.13206700  1
  C  C34  1  0.20694600  0.34202500  0.20359700  1
  C  C35  1  0.68719600  0.68783300  0.43148600  1
  C  C36  1  0.69010200  0.69147400  0.50697400  1
  C  C37  1  0.76228000  0.76314700  0.58557400  1
  C  C38  1  0.82811800  0.82696000  0.58586200  1
  C  C39  1  0.82091800  0.82164900  0.50757600  1
  C  C40  1  0.74804800  0.75030700  0.43179800  1
  C  C41  1  0.70428600  0.70840400  0.33485700  1
  C  C42  1  0.63242500  0.63519400  0.33452800  1
  C  C43  1  0.00439100  0.39241300  0.88743600  1
  C  C44  1  0.88352500  0.50645400  0.88505100  1
  C  C45  1  0.00119700  0.62636900  0.11905700  1
  C  C46  1  0.12204400  0.51307900  0.12199300  1
  C  C47  1  0.00392200  0.12430200  0.62330900  1
  C  C48  1  0.11414300  0.12483600  0.50040100  1
  C  C49  1  0.99816400  0.89049300  0.38322300  1
  C  C50  1  0.88706000  0.88932000  0.50596900  1
  C  C51  1  0.93075300  0.25120000  0.74997000  1
  C  C52  1  0.00610600  0.32442700  0.82149900  1
  C  C53  1  0.08439000  0.33086700  0.82816600  1
  C  C54  1  0.08447000  0.26480500  0.76488100  1
  C  C55  1  0.00622400  0.19289200  0.69249400  1
  C  C56  1  0.93093500  0.18997000  0.68843900  1
  C  C57  1  0.83430700  0.13657700  0.63327000  1
  C  C58  1  0.83407700  0.20908900  0.70501500  1
  C  C59  1  0.00012100  0.69093300  0.25757600  1
  C  C60  1  0.99919500  0.69392200  0.18494200  1
  C  C61  1  0.99713500  0.76498900  0.17740600  1
  C  C62  1  0.99474700  0.82851800  0.24084500  1
  C  C63  1  0.99776100  0.82356100  0.31431100  1
  C  C64  1  0.00144300  0.75317700  0.31960500  1
  C  C65  1  0.00561200  0.71222400  0.37563400  1
  C  C66  1  0.00451100  0.63925700  0.30288000  1
  C  C67  1  0.28199300  0.01159300  0.48104300  1
  C  C68  1  0.32652300  0.99150700  0.54975600  1
  C  C69  1  0.30288600  0.89604500  0.50680600  1
  O  O1  1  0.42683500  0.36821400  0.46885200  1
  O  O2  1  0.39460000  0.47242200  0.53687100  1
  O  O3  1  0.60381700  0.47114800  0.53927200  1
  O  O4  1  0.57012400  0.53851500  0.64237700  1
  O  O5  1  0.57153400  0.54468000  0.43531100  1
  O  O6  1  0.60938200  0.64620700  0.57404400  1
  O  O7  1  0.39467600  0.44179700  0.36494700  1
  O  O8  1  0.43410900  0.58033600  0.46866700  1
  O  O9  1  0.93556200  0.36986300  0.89831400  1
  O  O10  1  0.07223400  0.47310900  0.93372100  1
  O  O11  1  0.86324300  0.47409300  0.93320800  1
  O  O12  1  0.96305300  0.53973800  0.89524200  1
  O  O13  1  0.97082700  0.54695200  0.10998800  1
  O  O14  1  0.03295200  0.64795400  0.07124400  1
  O  O15  1  0.04311800  0.44275700  0.07514900  1
  O  O16  1  0.14209400  0.58147800  0.10979300  1
  O  O17  1  0.07309100  0.11392500  0.64249900  1
  O  O18  1  0.93283300  0.07610900  0.54469600  1
  O  O19  1  0.13752500  0.07700600  0.53114700  1
  O  O20  1  0.03461200  0.11436000  0.47096000  1
  O  O21  1  0.03227200  0.90043600  0.46270300  1
  O  O22  1  0.96479500  0.93802200  0.36305400  1
  O  O23  1  0.96763700  0.93726900  0.57395400  1
  O  O24  1  0.86282700  0.89972200  0.43670400  1
  O  O25  1  0.30264400  0.09910500  0.52215400  1
