# Generated by REPEAT Assigner based on pymatgen
data_DB0-m2_o9_o26_f0_pcu.sym.15
_audit_creation_date              2022-05-24
_audit_creation_method            REPEAT_Assigner
_cell_length_a                    10.922382
_cell_length_b                    15.894214
_cell_length_c                    17.396318
_cell_angle_alpha                 96.701294
_cell_angle_beta                  89.990211
_cell_angle_gamma                 92.962722
_cell_volume                      2995.353053
_symmetry_space_group_name_H-M    P1
_symmetry_Int_Tables_number       1
loop_
    _symmetry_equiv_pos_site_id
    _symmetry_equiv_pos_as_xyz
    1  x,y,z
loop_
    _atom_site_type_symbol
    _atom_site_label
    _atom_site_fract_x
    _atom_site_fract_y
    _atom_site_fract_z
    _atom_type_partial_charge
    O   O1   0.494584  0.418800  0.384087  -0.628258
    O   O2   0.505995  0.581147  0.615146  -0.623558
    O   O3   0.501603  0.564118  0.390442  -0.601114
    O   O4   0.498990  0.435941  0.608798  -0.599251
    C   C1   0.497204  0.488832  0.350870  0.687641
    C   C2   0.503501  0.511168  0.648359  0.681410
    O   O5   0.314944  0.430969  0.500481  -0.578359
    O   O6   0.685645  0.569091  0.498776  -0.578008
    O   O7   0.330354  0.575504  0.501118  -0.553940
    O   O8   0.670218  0.424476  0.498141  -0.554871
    C   C3   0.264506  0.504311  0.501738  0.680658
    C   C4   0.736087  0.495695  0.497484  0.681961
    Cu  Cu1  0.491186  0.415528  0.496014  0.887485
    Cu  Cu2  0.509399  0.584481  0.503229  0.878687
    H   H1   0.231019  0.890609  0.616061  0.115095
    H   H2   0.767654  0.109381  0.384887  0.113071
    C   C5   0.215655  0.761830  0.637256  -0.063585
    C   C6   0.784603  0.237818  0.362725  -0.064373
    H   H3   0.257897  0.774946  0.693855  0.125675
    H   H4   0.742274  0.224400  0.306174  0.125703
    C   C7   0.176589  0.680214  0.609792  -0.092246
    C   C8   0.824167  0.319449  0.389763  -0.090866
    H   H5   0.185618  0.629932  0.645890  0.112468
    H   H6   0.815445  0.369562  0.353413  0.112191
    C   C9   0.121777  0.662928  0.537803  0.110172
    C   C10  0.878934  0.337030  0.461744  0.107887
    C   C11  0.105133  0.728500  0.492977  -0.052520
    C   C12  0.895476  0.271628  0.506816  -0.051539
    C   C13  0.144687  0.811101  0.521040  -0.067928
    C   C14  0.854895  0.189082  0.479342  -0.067344
    C   C15  0.198977  0.827070  0.593446  -0.054412
    C   C16  0.800399  0.172915  0.407049  -0.051293
    C   C17  0.937076  0.572115  0.513494  -0.054523
    C   C18  0.063559  0.427888  0.485671  -0.061658
    H   H7   0.889321  0.629786  0.526918  0.086220
    H   H8   0.111258  0.370235  0.472039  0.087315
    C   C19  0.871655  0.495215  0.497281  -0.114648
    C   C20  0.128984  0.504770  0.502005  -0.106066
    C   C21  0.936885  0.421867  0.483524  0.077988
    C   C22  0.063788  0.578146  0.515794  0.070392
    C   C23  0.493995  0.483667  0.266048  -0.074249
    C   C24  0.506584  0.516334  0.733147  -0.068558
    C   C25  0.493987  0.557196  0.230684  -0.072967
    C   C26  0.506556  0.442826  0.768545  -0.076011
    C   C27  0.490350  0.553643  0.151163  -0.217888
    C   C28  0.510130  0.446478  0.848038  -0.215046
    C   C29  0.487587  0.476135  0.105472  0.299193
    C   C30  0.512965  0.524032  0.893654  0.295323
    C   C31  0.485362  0.402674  0.140988  -0.257729
    C   C32  0.515117  0.597448  0.858078  -0.252598
    C   C33  0.489150  0.406193  0.220660  -0.053077
    C   C34  0.511315  0.593839  0.778443  -0.059450
    C   C35  0.482380  0.468516  0.020140  -0.232379
    C   C36  0.518373  0.531707  0.978987  -0.232095
    H   H9   0.495808  0.618702  0.264560  0.118073
    H   H10  0.504896  0.381244  0.734772  0.118351
    H   H11  0.512465  0.652360  0.752391  0.119977
    H   H12  0.488208  0.347666  0.246687  0.117875
    H   H13  0.552742  0.592151  0.007998  0.138803
    H   H14  0.448013  0.408095  0.991080  0.138810
    H   H15  0.481786  0.341592  0.106239  0.138280
    H   H16  0.518821  0.658615  0.892699  0.137500
    H   H17  0.513996  0.387518  0.872773  0.139292
    H   H18  0.486673  0.612631  0.126482  0.139552
    N   N1   0.522896  0.710983  0.508559  -0.078877
    N   N2   0.477471  0.289051  0.490929  -0.088869
    C   C37  0.460544  0.748144  0.456210  0.059294
    C   C38  0.540293  0.251991  0.543111  0.064480
    C   C39  0.464537  0.834980  0.458373  -0.186460
    C   C40  0.535469  0.165214  0.541462  -0.188642
    C   C41  0.528043  0.885421  0.516808  0.228742
    C   C42  0.470493  0.114663  0.483739  0.238336
    C   C43  0.586828  0.846125  0.572899  -0.086515
    C   C44  0.411136  0.153823  0.427813  -0.098381
    C   C45  0.583372  0.758341  0.567172  -0.002650
    C   C46  0.415567  0.241578  0.433004  0.005910
    C   C47  0.542760  0.977872  0.514539  -0.195699
    C   C48  0.455648  0.022195  0.486253  -0.205131
    H   H19  0.409025  0.709873  0.410676  0.118199
    H   H20  0.592604  0.290321  0.588218  0.116692
    H   H21  0.369890  0.272770  0.390032  0.150344
    H   H22  0.628307  0.727114  0.610458  0.150868
    H   H23  0.369844  0.990398  0.465890  0.165577
    H   H24  0.628709  0.009531  0.534760  0.162593
    H   H25  0.579929  0.138455  0.587655  0.157912
    H   H26  0.420829  0.861909  0.411959  0.159110
    N   N3   0.648931  0.894138  0.637372  0.569134
    O   O9   0.604827  0.963987  0.669781  -0.355812
    O   O10  0.733477  0.859377  0.673649  -0.380346
    N   N4   0.347783  0.105656  0.363912  0.574519
    O   O11  0.391116  0.035547  0.331438  -0.356469
    O   O12  0.262470  0.140319  0.328208  -0.381251
    N   N5   0.042273  0.711291  0.420339  0.574835
    O   O13  0.072568  0.648470  0.370440  -0.368956
    O   O14  0.948167  0.754185  0.406308  -0.327393
    N   N6   0.959590  0.288878  0.578994  0.570968
    O   O15  0.930132  0.351725  0.629133  -0.367382
    O   O16  0.053676  0.245700  0.592456  -0.326134
    N   N7   0.132258  0.880030  0.476077  0.583452
    O   O17  0.129150  0.956918  0.510757  -0.347052
    O   O18  0.145124  0.868708  0.401311  -0.332974
    N   N8   0.866418  0.120436  0.524780  0.582709
    O   O19  0.855306  0.132611  0.599642  -0.331744
    O   O20  0.866950  0.043200  0.490619  -0.347579
