# generated using pymatgen
data_CuH46C62N3O4
_symmetry_space_group_name_H-M   'P 1'
_cell_length_a   19.32805500
_cell_length_b   15.92981300
_cell_length_c   14.51218000
_cell_angle_alpha   90.00704900
_cell_angle_beta   89.99615500
_cell_angle_gamma   90.00100100
_symmetry_Int_Tables_number   1
_chemical_formula_structural   CuH46C62N3O4
_chemical_formula_sum   'Cu2 H92 C124 N6 O8'
_cell_volume   4468.18845983
_cell_formula_units_Z   2
loop_
 _symmetry_equiv_pos_site_id
 _symmetry_equiv_pos_as_xyz
  1  'x, y, z'
loop_
 _atom_site_type_symbol
 _atom_site_label
 _atom_site_symmetry_multiplicity
 _atom_site_fract_x
 _atom_site_fract_y
 _atom_site_fract_z
 _atom_site_occupancy
  Cu  Cu1  1  0.50328200  0.49527800  0.58940900  1
  Cu  Cu2  1  0.50029700  0.49544700  0.40512800  1
  H  H1  1  0.28525700  0.48017400  0.35459500  1
  H  H2  1  0.71898500  0.45653900  0.63253200  1
  H  H3  1  0.50352500  0.92856600  0.35007000  1
  H  H4  1  0.49799000  0.06166100  0.64885200  1
  H  H5  1  0.38338800  0.49405800  0.05338700  1
  H  H6  1  0.62006000  0.49933000  0.93966600  1
  H  H7  1  0.44055300  0.38013500  0.92933000  1
  H  H8  1  0.56152400  0.61788800  0.06112300  1
  H  H9  1  0.27748200  0.34752200  0.62548100  1
  H  H10  1  0.24805600  0.32026600  0.73953000  1
  H  H11  1  0.33913000  0.32171300  0.71347800  1
  H  H12  1  0.31329500  0.40462400  0.87035200  1
  H  H13  1  0.31814700  0.54889800  0.92913000  1
  H  H14  1  0.30975400  0.66805700  0.82300100  1
  H  H15  1  0.28591600  0.64331000  0.65946000  1
  H  H16  1  0.71798600  0.38261000  0.32178000  1
  H  H17  1  0.73987600  0.38545500  0.20105300  1
  H  H18  1  0.65063900  0.38588800  0.23679600  1
  H  H19  1  0.67623800  0.50541300  0.11021500  1
  H  H20  1  0.67345500  0.65928300  0.10133300  1
  H  H21  1  0.69295900  0.74363500  0.23996500  1
  H  H22  1  0.72395700  0.67471500  0.38547400  1
  H  H23  1  0.16259100  0.65905300  0.59793200  1
  H  H24  1  0.16706400  0.70055600  0.71337000  1
  H  H25  1  0.08541900  0.69544000  0.65397700  1
  H  H26  1  0.07139600  0.63407100  0.82245500  1
  H  H27  1  0.04168900  0.49940300  0.89400800  1
  H  H28  1  0.07273000  0.36718600  0.81709000  1
  H  H29  1  0.13471600  0.36983500  0.66976400  1
  H  H30  1  0.85113700  0.66104200  0.45126900  1
  H  H31  1  0.85132400  0.73472000  0.35744700  1
  H  H32  1  0.93168700  0.70277000  0.40977600  1
  H  H33  1  0.93989900  0.69532800  0.22648000  1
  H  H34  1  0.95516700  0.58865300  0.10640200  1
  H  H35  1  0.91449200  0.44448600  0.13223800  1
  H  H36  1  0.85505300  0.40835000  0.27617400  1
  H  H37  1  0.15447400  0.63825000  0.38653300  1
  H  H38  1  0.07566800  0.65880900  0.32459500  1
  H  H39  1  0.15836900  0.67787900  0.27102700  1
  H  H40  1  0.08293000  0.59518400  0.15307300  1
  H  H41  1  0.07896800  0.45710600  0.07854100  1
  H  H42  1  0.12439800  0.33304100  0.15912500  1
  H  H43  1  0.17313800  0.34736200  0.31449100  1
  H  H44  1  0.81078800  0.60137500  0.66935300  1
  H  H45  1  0.86293200  0.61926200  0.76915000  1
  H  H46  1  0.77686100  0.57723100  0.78233000  1
  H  H47  1  0.88151800  0.49591600  0.87776900  1
  H  H48  1  0.93375900  0.35576900  0.88002900  1
  H  H49  1  0.93577300  0.27010500  0.73920500  1
  H  H50  1  0.88314600  0.32346800  0.59709600  1
  H  H51  1  0.61056900  0.85502100  0.36913600  1
  H  H52  1  0.65945900  0.87170600  0.47464400  1
  H  H53  1  0.70214500  0.84121100  0.37184900  1
  H  H54  1  0.76366000  0.94074700  0.30210400  1
  H  H55  1  0.78460400  0.08401300  0.25171500  1
  H  H56  1  0.70165500  0.19525000  0.28973900  1
  H  H57  1  0.59951200  0.16422700  0.37750200  1
  H  H58  1  0.34603700  0.12440800  0.53179300  1
  H  H59  1  0.39487300  0.13518400  0.63812700  1
  H  H60  1  0.30396500  0.15236500  0.63620300  1
  H  H61  1  0.24083000  0.05264100  0.70271400  1
  H  H62  1  0.21655600  0.90863700  0.74738900  1
  H  H63  1  0.29546900  0.79559900  0.70200200  1
  H  H64  1  0.39647700  0.82519400  0.61108600  1
  H  H65  1  0.61418300  0.12656400  0.61466700  1
  H  H66  1  0.68665800  0.09446700  0.54211600  1
  H  H67  1  0.70079100  0.13259600  0.65559000  1
  H  H68  1  0.74777700  0.02818300  0.73735300  1
  H  H69  1  0.74311600  0.89003800  0.80827200  1
  H  H70  1  0.65142600  0.79105100  0.76517900  1
  H  H71  1  0.56657400  0.82870900  0.65181600  1
  H  H72  1  0.38027200  0.87241600  0.41540400  1
  H  H73  1  0.31227100  0.85844700  0.33527700  1
  H  H74  1  0.29154400  0.89149900  0.45047800  1
  H  H75  1  0.23607300  0.97254000  0.29560500  1
  H  H76  1  0.23557900  0.11392800  0.23046400  1
  H  H77  1  0.33452200  0.20732500  0.25610700  1
  H  H78  1  0.43147500  0.16180600  0.34760400  1
  H  H79  1  0.42381000  0.65042400  0.13477400  1
  H  H80  1  0.34026300  0.62195400  0.08478300  1
  H  H81  1  0.35425800  0.72428600  0.13115700  1
  H  H82  1  0.34923400  0.81889800  0.01630900  1
  H  H83  1  0.38982600  0.87703500  0.87087200  1
  H  H84  1  0.47022400  0.79668700  0.77423300  1
  H  H85  1  0.50864400  0.65896500  0.82141400  1
  H  H86  1  0.44225400  0.34266000  0.16367200  1
  H  H87  1  0.43542000  0.23127300  0.15477000  1
  H  H88  1  0.42192600  0.29322900  0.05420300  1
  H  H89  1  0.53399900  0.15753000  0.15270200  1
  H  H90  1  0.65572000  0.13833900  0.11558900  1
  H  H91  1  0.72092300  0.25106000  0.04005400  1
  H  H92  1  0.66484500  0.38155700  0.99995100  1
  C  C1  1  0.50261000  0.33427100  0.49720900  1
  C  C2  1  0.50085700  0.65646500  0.49751000  1
  C  C3  1  0.36822900  0.49469100  0.50067300  1
  C  C4  1  0.63520400  0.49744700  0.49366400  1
  C  C5  1  0.25205100  0.50032700  0.58180400  1
  C  C6  1  0.74994800  0.51462400  0.41250900  1
  C  C7  1  0.18022900  0.50089800  0.57741600  1
  C  C8  1  0.82152300  0.50837400  0.41374000  1
  C  C9  1  0.14634400  0.49188800  0.49376100  1
  C  C10  1  0.85577100  0.48362100  0.49247000  1
  C  C11  1  0.18552400  0.48455500  0.41409800  1
  C  C12  1  0.81838800  0.46756300  0.57172000  1
  C  C13  1  0.25687900  0.48547100  0.41844700  1
  C  C14  1  0.74699100  0.47238700  0.57049700  1
  C  C15  1  0.29141200  0.49378200  0.50150000  1
  C  C16  1  0.71176000  0.49564900  0.49148000  1
  C  C17  1  0.93154000  0.48414400  0.49357200  1
  C  C18  1  0.06998500  0.49046100  0.49070300  1
  C  C19  1  0.55484300  0.97104200  0.54912800  1
  C  C20  1  0.44649900  0.01970700  0.44978100  1
  C  C21  1  0.55924600  0.01657600  0.45704200  1
  C  C22  1  0.44214500  0.97436200  0.54174900  1
  C  C23  1  0.50277200  0.24426400  0.49648200  1
  C  C24  1  0.49999100  0.74652700  0.49912800  1
  C  C25  1  0.49836200  0.03119600  0.58019500  1
  C  C26  1  0.50289400  0.95965200  0.41841300  1
  C  C27  1  0.50265200  0.07670500  0.48834400  1
  C  C28  1  0.49870400  0.91408700  0.51041400  1
  C  C29  1  0.50281800  0.16865900  0.49351000  1
  C  C30  1  0.49927700  0.82210200  0.50374000  1
  C  C31  1  0.47208100  0.56785500  0.97081200  1
  C  C32  1  0.53144800  0.42767900  0.02394000  1
  C  C33  1  0.43680500  0.49918400  0.02658000  1
  C  C34  1  0.56683300  0.49606900  0.96778100  1
  C  C35  1  0.53562200  0.56229200  0.03140000  1
  C  C36  1  0.46818300  0.43296400  0.96267900  1
  C  C37  1  0.50083500  0.49356000  0.08630600  1
  C  C38  1  0.50305500  0.50183600  0.90815300  1
  C  C39  1  0.49961900  0.49427000  0.18745900  1
  C  C40  1  0.50432100  0.49808700  0.80703300  1
  C  C41  1  0.28292600  0.51016500  0.67316100  1
  C  C42  1  0.29347700  0.44223100  0.73170700  1
  C  C43  1  0.28894700  0.35312000  0.69991700  1
  C  C44  1  0.30734200  0.45685900  0.82349900  1
  C  C45  1  0.31103800  0.53774300  0.85656700  1
  C  C46  1  0.30591900  0.60462900  0.79718300  1
  C  C47  1  0.29283000  0.59068100  0.70543800  1
  C  C48  1  0.71854800  0.55090000  0.32976400  1
  C  C49  1  0.70285700  0.50267400  0.25266400  1
  C  C50  1  0.70325200  0.40881800  0.25396400  1
  C  C51  1  0.68639000  0.54229100  0.17109300  1
  C  C52  1  0.68428900  0.62860100  0.16611400  1
  C  C53  1  0.69546400  0.67598200  0.24380900  1
  C  C54  1  0.71233700  0.63715700  0.32543700  1
  C  C55  1  0.14068400  0.50349900  0.66393500  1
  C  C56  1  0.12163900  0.57853800  0.70648900  1
  C  C57  1  0.13542900  0.66281900  0.66491400  1
  C  C58  1  0.08630200  0.57614300  0.78912200  1
  C  C59  1  0.06934800  0.50057000  0.82927300  1
  C  C60  1  0.08661800  0.42656100  0.78616300  1
  C  C61  1  0.12153000  0.42815000  0.70350100  1
  C  C62  1  0.86142400  0.53213200  0.33177500  1
  C  C63  1  0.88692500  0.61304200  0.31868800  1
  C  C64  1  0.87944400  0.68120900  0.38885000  1
  C  C65  1  0.92055600  0.63246100  0.23752700  1
  C  C66  1  0.92936000  0.57258900  0.17007700  1
  C  C67  1  0.90649300  0.49190100  0.18445100  1
  C  C68  1  0.87302600  0.47177400  0.26520100  1
  C  C69  1  0.15342900  0.47898600  0.32306000  1
  C  C70  1  0.12822000  0.54934500  0.27727100  1
  C  C71  1  0.12954100  0.63558200  0.31802700  1
  C  C72  1  0.10187300  0.54063100  0.18942300  1
  C  C73  1  0.09994600  0.46318800  0.14726900  1
  C  C74  1  0.12534000  0.39375100  0.19237600  1
  C  C75  1  0.15256400  0.40187400  0.27961600  1
  C  C76  1  0.85321200  0.44076200  0.65636500  1
  C  C77  1  0.85283800  0.48968100  0.73581300  1
  C  C78  1  0.82383100  0.57667700  0.73844700  1
  C  C79  1  0.88164000  0.45830500  0.81576000  1
  C  C80  1  0.91114900  0.37963000  0.81714500  1
  C  C81  1  0.91249400  0.33179200  0.73822400  1
  C  C82  1  0.88339800  0.36216600  0.65828600  1
  C  C83  1  0.62256700  0.03321600  0.39785500  1
  C  C84  1  0.66917500  0.96962100  0.37330100  1
  C  C85  1  0.65908200  0.87962900  0.39921600  1
  C  C86  1  0.72704600  0.98898600  0.32118800  1
  C  C87  1  0.73920600  0.06973800  0.29229400  1
  C  C88  1  0.69284200  0.13187100  0.31364100  1
  C  C89  1  0.63474100  0.11363700  0.36461400  1
  C  C90  1  0.37804500  0.95806600  0.59956900  1
  C  C91  1  0.33360800  0.02269000  0.62816500  1
  C  C92  1  0.34595700  0.11336800  0.60676700  1
  C  C93  1  0.27575500  0.00369100  0.68048400  1
  C  C94  1  0.26172800  0.92251100  0.70620000  1
  C  C95  1  0.30581800  0.85931000  0.68062900  1
  C  C96  1  0.36341100  0.87686400  0.62834100  1
  C  C97  1  0.60998900  0.94993800  0.62021200  1
  C  C98  1  0.66034800  0.00761200  0.64896500  1
  C  C99  1  0.66505400  0.09503600  0.61243300  1
  C  C100  1  0.70800100  0.98478800  0.71567300  1
  C  C101  1  0.70574400  0.90689400  0.75604900  1
  C  C102  1  0.65471300  0.85149400  0.73160600  1
  C  C103  1  0.60705700  0.87306100  0.66529200  1
  C  C104  1  0.38813500  0.04171200  0.38382700  1
  C  C105  1  0.33346600  0.98684000  0.36336700  1
  C  C106  1  0.32985300  0.89751900  0.39402400  1
  C  C107  1  0.27891500  0.01423900  0.30967700  1
  C  C108  1  0.27849300  0.09350900  0.27263300  1
  C  C109  1  0.33384900  0.14563500  0.28703900  1
  C  C110  1  0.38842700  0.11965700  0.34091200  1
  C  C111  1  0.44593500  0.65389300  0.94376600  1
  C  C112  1  0.40325400  0.70201900  0.00096300  1
  C  C113  1  0.37928500  0.67218200  0.09310400  1
  C  C114  1  0.38306100  0.78154100  0.97347300  1
  C  C115  1  0.40583900  0.81480400  0.89153400  1
  C  C116  1  0.45054200  0.76968200  0.83731300  1
  C  C117  1  0.47111000  0.69055300  0.86377500  1
  C  C118  1  0.56488900  0.34634000  0.05291700  1
  C  C119  1  0.52812100  0.28202500  0.09647600  1
  C  C120  1  0.45270200  0.28851200  0.11821100  1
  C  C121  1  0.56160200  0.20805900  0.11925300  1
  C  C122  1  0.63037700  0.19677500  0.09856400  1
  C  C123  1  0.66677000  0.25974600  0.05601200  1
  C  C124  1  0.63437700  0.33384000  0.03335400  1
  N  N1  1  0.03621300  0.43103800  0.44236300  1
  N  N2  1  0.96510800  0.54397200  0.54101200  1
  N  N3  1  0.96776900  0.42825000  0.44332500  1
  N  N4  1  0.03336700  0.54711200  0.53927800  1
  N  N5  1  0.49852900  0.49530700  0.26727600  1
  N  N6  1  0.50509700  0.49546100  0.72725500  1
  O  O1  1  0.50614000  0.37329600  0.57637700  1
  O  O2  1  0.49732300  0.61748400  0.41804600  1
  O  O3  1  0.49880000  0.37347300  0.41822600  1
  O  O4  1  0.50487100  0.61724300  0.57650500  1
  O  O5  1  0.40256300  0.49708300  0.57856700  1
  O  O6  1  0.60094200  0.49895600  0.41588700  1
  O  O7  1  0.39988600  0.49712600  0.42063400  1
  O  O8  1  0.60369900  0.49863900  0.57390900  1
