# generated using pymatgen
data_ZnH10C15NO6
_symmetry_space_group_name_H-M   'P 1'
_cell_length_a   8.50616500
_cell_length_b   9.11290700
_cell_length_c   13.06664600
_cell_angle_alpha   90.59051300
_cell_angle_beta   86.47881000
_cell_angle_gamma   93.27088700
_symmetry_Int_Tables_number   1
_chemical_formula_structural   ZnH10C15NO6
_chemical_formula_sum   'Zn2 H20 C30 N2 O12'
_cell_volume   1009.29011989
_cell_formula_units_Z   2
loop_
 _symmetry_equiv_pos_site_id
 _symmetry_equiv_pos_as_xyz
  1  'x, y, z'
loop_
 _atom_site_type_symbol
 _atom_site_label
 _atom_site_symmetry_multiplicity
 _atom_site_fract_x
 _atom_site_fract_y
 _atom_site_fract_z
 _atom_site_occupancy
  Zn  Zn1  1  0.43997400  0.17012100  0.50798600  1
  Zn  Zn2  1  0.43225100  0.84128200  0.51028700  1
  H  H1  1  0.35954600  0.98525600  0.19676900  1
  H  H2  1  0.39169100  0.98639500  0.01165200  1
  H  H3  1  0.94926700  0.04715200  0.58304000  1
  H  H4  1  0.64357700  0.00194400  0.84891800  1
  H  H5  1  0.74812600  0.99651500  0.00584100  1
  H  H6  1  0.28649200  0.98778300  0.84888900  1
  H  H7  1  0.72041700  0.03246700  0.15992200  1
  H  H8  1  0.92740600  0.97006100  0.43608500  1
  H  H9  1  0.28821500  0.39056100  0.38762900  1
  H  H10  1  0.48743900  0.37010500  0.34507600  1
  H  H11  1  0.53721100  0.62033400  0.35581200  1
  H  H12  1  0.32831000  0.62395500  0.36599900  1
  H  H13  1  0.19504900  0.36092700  0.55307900  1
  H  H14  1  0.18913100  0.60503900  0.53031100  1
  H  H15  1  0.59210600  0.39699700  0.62608700  1
  H  H16  1  0.56168000  0.61946600  0.63855900  1
  H  H17  1  0.32769100  0.38788000  0.65512600  1
  H  H18  1  0.29332700  0.62299500  0.64659600  1
  H  H19  1  0.85806900  0.36880500  0.35648200  1
  H  H20  1  0.93711700  0.76107100  0.55641600  1
  C  C1  1  0.97495300  0.00312800  0.14496400  1
  C  C2  1  0.10728000  0.99495800  0.20200500  1
  C  C3  1  0.25590600  0.99065800  0.15346500  1
  C  C4  1  0.27461300  0.99062800  0.04834700  1
  C  C5  1  0.14534200  0.99332700  0.99018000  1
  C  C6  1  0.99497300  0.99906800  0.03753100  1
  C  C7  1  0.16841300  0.99068100  0.88416400  1
  C  C8  1  0.04179300  0.99625200  0.82366900  1
  C  C9  1  0.89157000  0.99971600  0.87061800  1
  C  C10  1  0.86829100  0.99802900  0.97568900  1
  C  C11  1  0.06102900  0.00295700  0.71726100  1
  C  C12  1  0.93202700  0.02657300  0.66318400  1
  C  C13  1  0.78276000  0.02199200  0.70892700  1
  C  C14  1  0.76159600  0.00559400  0.81292000  1
  C  C15  1  0.82708200  0.01686800  0.19728200  1
  C  C16  1  0.81239200  0.00909000  0.30281600  1
  C  C17  1  0.94211600  0.98654900  0.35545100  1
  C  C18  1  0.08959200  0.98848600  0.30786300  1
  C  C19  1  0.64941800  0.01888000  0.64433400  1
  C  C20  1  0.66155400  0.01198600  0.36336800  1
  C  C21  1  0.22248500  0.99258400  0.37379400  1
  C  C22  1  0.21164000  0.99967500  0.65591600  1
  C  C23  1  0.41153500  0.41986900  0.40596800  1
  C  C24  1  0.43101400  0.58633500  0.40411700  1
  C  C25  1  0.30906500  0.41432500  0.57428100  1
  C  C26  1  0.58281500  0.43170200  0.54594100  1
  C  C27  1  0.29881300  0.58045400  0.56686500  1
  C  C28  1  0.57508800  0.59676900  0.55506900  1
  C  C29  1  0.72948200  0.38643900  0.48716900  1
  C  C30  1  0.73107400  0.67094900  0.51849600  1
  N  N1  1  0.43831000  0.36354600  0.50696900  1
  N  N2  1  0.43536000  0.64774400  0.50806200  1
  O  O1  1  0.59676200  0.89054700  0.61152800  1
  O  O2  1  0.60057400  0.14303000  0.61237100  1
  O  O3  1  0.61383800  0.13875500  0.39912400  1
  O  O4  1  0.60152400  0.88555500  0.39852700  1
  O  O5  1  0.27370000  0.12183700  0.40756900  1
  O  O6  1  0.27190800  0.86782000  0.40554900  1
  O  O7  1  0.25735900  0.87250900  0.61860000  1
  O  O8  1  0.27121900  0.12628500  0.62027200  1
  O  O9  1  0.83145400  0.33144700  0.53325100  1
  O  O10  1  0.75255800  0.40584100  0.38172700  1
  O  O11  1  0.77618900  0.67497600  0.42827700  1
  O  O12  1  0.83387500  0.72231500  0.59138400  1
