# generated using pymatgen
data_Fe2H15C56Br5(NO5)4
_symmetry_space_group_name_H-M   'P 1'
_cell_length_a   9.39724900
_cell_length_b   23.73063500
_cell_length_c   17.34104000
_cell_angle_alpha   113.64030000
_cell_angle_beta   89.05549400
_cell_angle_gamma   88.55223300
_symmetry_Int_Tables_number   1
_chemical_formula_structural   Fe2H15C56Br5(NO5)4
_chemical_formula_sum   'Fe2 H15 C56 Br5 N4 O20'
_cell_volume   3539.94828329
_cell_formula_units_Z   1
loop_
 _symmetry_equiv_pos_site_id
 _symmetry_equiv_pos_as_xyz
  1  'x, y, z'
loop_
 _atom_site_type_symbol
 _atom_site_label
 _atom_site_symmetry_multiplicity
 _atom_site_fract_x
 _atom_site_fract_y
 _atom_site_fract_z
 _atom_site_occupancy
  Fe  Fe1  1  0.48344400  0.99485900  0.34770800  1
  Fe  Fe2  1  0.53009900  0.01855000  0.66891900  1
  H  H1  1  0.80980500  0.98932800  0.90473400  1
  H  H2  1  0.74762100  0.98131600  0.12082500  1
  H  H3  1  0.19936300  0.99076900  0.09455600  1
  H  H4  1  0.99205800  0.00938800  0.69341600  1
  H  H5  1  0.02280100  0.97869700  0.31300200  1
  H  H6  1  0.23653500  0.31744600  0.70464800  1
  H  H7  1  0.31245100  0.49006900  0.69894800  1
  H  H8  1  0.76539100  0.81382500  0.52629000  1
  H  H9  1  0.99797300  0.62325100  0.68614500  1
  H  H10  1  0.18690500  0.57182700  0.68163800  1
  H  H11  1  0.39194800  0.19915400  0.45754100  1
  H  H12  1  0.96754200  0.44895300  0.27384800  1
  H  H13  1  0.85876700  0.53330000  0.25460200  1
  H  H14  1  0.52421400  0.68321300  0.33329900  1
  H  H15  1  0.97499700  0.37291800  0.30734200  1
  C  C1  1  0.14352600  0.00018700  0.77904000  1
  C  C2  1  0.15909000  0.99401200  0.85512100  1
  C  C3  1  0.04028600  0.99093200  0.90140600  1
  C  C4  1  0.90526800  0.99243100  0.87125300  1
  C  C5  1  0.88960700  0.99983700  0.79717000  1
  C  C6  1  0.00753700  0.00426100  0.75186700  1
  C  C7  1  0.85312300  0.98132900  0.14470800  1
  C  C8  1  0.87120800  0.97940900  0.22268700  1
  C  C9  1  0.00706800  0.97919900  0.25172600  1
  C  C10  1  0.12321200  0.98395200  0.20537600  1
  C  C11  1  0.10520200  0.98676100  0.12834800  1
  C  C12  1  0.96972000  0.98427100  0.09681800  1
  C  C13  1  0.74826900  0.98096000  0.27699100  1
  C  C14  1  0.49127500  0.88607500  0.36728300  1
  C  C15  1  0.26475500  0.99032000  0.24063900  1
  C  C16  1  0.41314900  0.09811800  0.48770700  1
  C  C17  1  0.61864500  0.91096600  0.53438300  1
  C  C18  1  0.74766600  0.00117200  0.76496500  1
  C  C19  1  0.41019900  0.12492500  0.66491000  1
  C  C20  1  0.26513900  0.00227900  0.72525200  1
  C  C21  1  0.30397600  0.37184400  0.59923300  1
  C  C22  1  0.19863300  0.30013100  0.48013800  1
  C  C23  1  0.37199500  0.20860100  0.52318100  1
  C  C24  1  0.39383300  0.16169800  0.55044700  1
  C  C25  1  0.32060700  0.23047600  0.69031700  1
  C  C26  1  0.28654100  0.27482700  0.66094600  1
  C  C27  1  0.31489400  0.26536800  0.57804600  1
  C  C28  1  0.16226700  0.40769200  0.51406400  1
  C  C29  1  0.23915000  0.41957100  0.58534800  1
  C  C30  1  0.25023700  0.47927800  0.64328200  1
  C  C31  1  0.14948700  0.34739200  0.45759900  1
  C  C32  1  0.37370600  0.17318900  0.63506400  1
  C  C33  1  0.52902300  0.83742100  0.39752800  1
  C  C34  1  0.00713600  0.56055900  0.55478300  1
  C  C35  1  0.97809600  0.49498200  0.40977600  1
  C  C36  1  0.95571800  0.55145600  0.47677000  1
  C  C37  1  0.96957400  0.61495300  0.62269100  1
  C  C38  1  0.88472100  0.65979200  0.61349200  1
  C  C39  1  0.84117700  0.65248800  0.53370500  1
  C  C40  1  0.88176100  0.59895800  0.46569700  1
  C  C41  1  0.84748400  0.59301900  0.38609300  1
  C  C42  1  0.78244500  0.64169900  0.37425500  1
  C  C43  1  0.75597100  0.69646900  0.52009000  1
  C  C44  1  0.68886300  0.80239500  0.47698000  1
  C  C45  1  0.61488600  0.84972300  0.46658200  1
  C  C46  1  0.49613000  0.77646000  0.35051300  1
  C  C47  1  0.55726600  0.72968100  0.36831400  1
  C  C48  1  0.66085800  0.74164400  0.42803700  1
  C  C49  1  0.09288100  0.51474700  0.56354300  1
  C  C50  1  0.09704800  0.45595700  0.50049900  1
  C  C51  1  0.03450600  0.44527200  0.42464800  1
  C  C52  1  0.17442900  0.52623400  0.63394800  1
  C  C53  1  0.08139700  0.33636200  0.38235100  1
  C  C54  1  0.94284300  0.48973900  0.32976000  1
  C  C55  1  0.88233800  0.53893400  0.31799800  1
  C  C56  1  0.02852700  0.38496000  0.36594000  1
  Br  Br1  1  0.34043300  0.98750900  0.89988800  1
  Br  Br2  1  0.84664800  0.73175700  0.71484400  1
  Br  Br3  1  0.06250400  0.25668800  0.29336500  1
  Br  Br4  1  0.35769200  0.75358200  0.26452500  1
  Br  Br5  1  0.29350500  0.25226700  0.80847100  1
  N  N1  1  0.06086400  0.98690500  0.97970200  1
  N  N2  1  0.94740300  0.98682900  0.01773600  1
  N  N3  1  0.27620400  0.31290500  0.54994600  1
  N  N4  1  0.73417100  0.69227700  0.44100500  1
  O  O1  1  0.61778900  0.98636600  0.25430600  1
  O  O2  1  0.46895500  0.87034400  0.28698400  1
  O  O3  1  0.76865500  0.98105000  0.35171500  1
  O  O4  1  0.50615100  0.94478000  0.41490300  1
  O  O5  1  0.29326900  0.96826600  0.29719400  1
  O  O6  1  0.35927300  0.02234400  0.22073100  1
  O  O7  1  0.50855600  0.08295300  0.42596000  1
  O  O8  1  0.32693600  0.05624300  0.49043400  1
  O  O9  1  0.49774200  0.93907200  0.57045000  1
  O  O10  1  0.74003600  0.93269700  0.56814400  1
  O  O11  1  0.72199800  0.03421300  0.72119300  1
  O  O12  1  0.64906600  0.96660500  0.77561200  1
  O  O13  1  0.24199600  0.99730800  0.64839800  1
  O  O14  1  0.51424100  0.08473000  0.62716600  1
  O  O15  1  0.39452600  0.01309400  0.75413100  1
  O  O16  1  0.33776000  0.12077300  0.72748100  1
  O  O17  1  0.39250200  0.38442300  0.66373800  1
  O  O18  1  0.68895300  0.74193000  0.58519700  1
  O  O19  1  0.16059800  0.24204100  0.43628600  1
  O  O20  1  0.76961600  0.63869500  0.29563100  1
