# generated using pymatgen
data_ZnH4C16N3O4
_symmetry_space_group_name_H-M   'P 1'
_cell_length_a   6.58128600
_cell_length_b   12.36963300
_cell_length_c   14.31896800
_cell_angle_alpha   89.89876600
_cell_angle_beta   89.93133400
_cell_angle_gamma   80.34758600
_symmetry_Int_Tables_number   1
_chemical_formula_structural   ZnH4C16N3O4
_chemical_formula_sum   'Zn2 H8 C32 N6 O8'
_cell_volume   1149.17514212
_cell_formula_units_Z   2
loop_
 _symmetry_equiv_pos_site_id
 _symmetry_equiv_pos_as_xyz
  1  'x, y, z'
loop_
 _atom_site_type_symbol
 _atom_site_label
 _atom_site_symmetry_multiplicity
 _atom_site_fract_x
 _atom_site_fract_y
 _atom_site_fract_z
 _atom_site_occupancy
  Zn  Zn1  1  0.50943300  0.50326000  0.10613900  1
  Zn  Zn2  1  0.48565300  0.49713500  0.89804800  1
  H  H1  1  0.46707700  0.15312800  0.05743000  1
  H  H2  1  0.60176200  0.22196900  0.95427200  1
  H  H3  1  0.47289800  0.04722900  0.94297300  1
  H  H4  1  0.52587600  0.85370800  0.95755700  1
  H  H5  1  0.34725000  0.98032100  0.05159400  1
  H  H6  1  0.25732200  0.84557600  0.02539400  1
  H  H7  1  0.62957500  0.66532300  0.45324400  1
  H  H8  1  0.73499300  0.33883000  0.44711400  1
  C  C1  1  0.17905500  0.24797000  0.01878800  1
  C  C2  1  0.30861900  0.15154300  0.03883600  1
  C  C3  1  0.23950400  0.05284200  0.03429700  1
  C  C4  1  0.97529400  0.24617100  0.99766600  1
  C  C5  1  0.90687000  0.14670300  0.99075200  1
  C  C6  1  0.03870700  0.04920700  0.00775500  1
  C  C7  1  0.96614500  0.95018100  0.00034900  1
  C  C8  1  0.09486600  0.85075600  0.01324500  1
  C  C9  1  0.02096600  0.75332400  0.00628100  1
  C  C10  1  0.70402500  0.14563600  0.96788700  1
  C  C11  1  0.63178900  0.04766300  0.96158400  1
  C  C12  1  0.76227000  0.95014700  0.97786300  1
  C  C13  1  0.68735300  0.85256600  0.97211800  1
  C  C14  1  0.81565800  0.75375100  0.98682400  1
  C  C15  1  0.26856300  0.34770000  0.01289500  1
  C  C16  1  0.82224300  0.34652700  0.99758700  1
  C  C17  1  0.72495100  0.65376300  0.99158600  1
  C  C18  1  0.17185700  0.65282600  0.00646700  1
  C  C19  1  0.37351700  0.58693200  0.53103300  1
  C  C20  1  0.56935900  0.59077400  0.47546800  1
  C  C21  1  0.31680600  0.50075300  0.46627600  1
  C  C22  1  0.51185200  0.50276600  0.41150400  1
  C  C23  1  0.43007800  0.41144100  0.52776800  1
  C  C24  1  0.48600500  0.49759400  0.59271400  1
  C  C25  1  0.62710100  0.41164500  0.47213600  1
  C  C26  1  0.68026000  0.49962500  0.53734300  1
  C  C27  1  0.51962300  0.50506600  0.30941200  1
  C  C28  1  0.47671200  0.49532200  0.69477700  1
  C  C29  1  0.34927000  0.31364500  0.55746400  1
  C  C30  1  0.11305100  0.50151800  0.42528800  1
  C  C31  1  0.23022100  0.68243400  0.56438900  1
  C  C32  1  0.88314800  0.49884600  0.57923300  1
  N  N1  1  0.52287300  0.50615700  0.22862800  1
  N  N2  1  0.47251200  0.49424500  0.77555200  1
  N  N3  1  0.28536200  0.23630500  0.58094800  1
  N  N4  1  0.95191300  0.50212400  0.39287400  1
  N  N5  1  0.11689600  0.75796200  0.59076800  1
  N  N6  1  0.04359700  0.49823000  0.61236300  1
  O  O1  1  0.31822400  0.37974100  0.92965100  1
  O  O2  1  0.32894900  0.38810600  0.09065700  1
  O  O3  1  0.75112600  0.38437900  0.07896600  1
  O  O4  1  0.73859100  0.38277600  0.91796800  1
  O  O5  1  0.67632700  0.62085400  0.07455500  1
  O  O6  1  0.66574900  0.61261200  0.91370300  1
  O  O7  1  0.24372200  0.61578900  0.92509800  1
  O  O8  1  0.25625300  0.61741700  0.08624200  1
