# generated using pymatgen
data_ZnH8C17INO4
_symmetry_space_group_name_H-M   'P 1'
_cell_length_a   9.36490400
_cell_length_b   8.56618600
_cell_length_c   15.09754800
_cell_angle_alpha   90.00000000
_cell_angle_beta   91.01880500
_cell_angle_gamma   90.00000000
_symmetry_Int_Tables_number   1
_chemical_formula_structural   ZnH8C17INO4
_chemical_formula_sum   'Zn2 H16 C34 I2 N2 O8'
_cell_volume   1210.95662441
_cell_formula_units_Z   2
loop_
 _symmetry_equiv_pos_site_id
 _symmetry_equiv_pos_as_xyz
  1  'x, y, z'
loop_
 _atom_site_type_symbol
 _atom_site_label
 _atom_site_symmetry_multiplicity
 _atom_site_fract_x
 _atom_site_fract_y
 _atom_site_fract_z
 _atom_site_occupancy
  Zn  Zn1  1  0.83993500  0.49978200  0.50180900  1
  Zn  Zn2  1  0.16006500  0.50021800  0.49819100  1
  H  H1  1  0.05142400  0.99893200  0.56222200  1
  H  H2  1  0.94857600  0.00106800  0.43777800  1
  H  H3  1  0.98012000  0.25050500  0.79827800  1
  H  H4  1  0.01988000  0.74949400  0.20172200  1
  H  H5  1  0.01523900  0.25067500  0.20100900  1
  H  H6  1  0.98476100  0.74932600  0.79899200  1
  H  H7  1  0.86103200  0.79754400  0.92177800  1
  H  H8  1  0.13896800  0.20245600  0.07822200  1
  H  H9  1  0.87438800  0.79593600  0.08207000  1
  H  H10  1  0.12561300  0.20406400  0.91793000  1
  H  H11  1  0.63003000  0.49830400  0.80212800  1
  H  H12  1  0.36997100  0.50169600  0.19787200  1
  H  H13  1  0.75568900  0.50042100  0.33208900  1
  H  H14  1  0.24431100  0.49957900  0.66791100  1
  H  H15  1  0.24428100  0.50123400  0.32672200  1
  H  H16  1  0.75571900  0.49876600  0.67327800  1
  C  C1  1  0.00910300  0.13880100  0.67397800  1
  C  C2  1  0.99089700  0.86119900  0.32602200  1
  C  C3  1  0.99181300  0.13953200  0.32563700  1
  C  C4  1  0.00818700  0.86046800  0.67436300  1
  C  C5  1  0.99116600  0.14020500  0.76438600  1
  C  C6  1  0.00883400  0.85979500  0.23561400  1
  C  C7  1  0.01011600  0.14018500  0.23520600  1
  C  C8  1  0.98988400  0.85981500  0.76479400  1
  C  C9  1  0.98914600  0.00031300  0.81083000  1
  C  C10  1  0.01085500  0.99968700  0.18917000  1
  C  C11  1  0.02763400  0.99938700  0.63131000  1
  C  C12  1  0.97236600  0.00061300  0.36869000  1
  C  C13  1  0.92414600  0.88572800  0.95533500  1
  C  C14  1  0.07585400  0.11427200  0.04466500  1
  C  C15  1  0.93240600  0.88441800  0.04662000  1
  C  C16  1  0.06759400  0.11558200  0.95338000  1
  C  C17  1  0.00844500  0.99848200  0.09191400  1
  C  C18  1  0.99155500  0.00151800  0.90808600  1
  C  C19  1  0.00504300  0.71839900  0.62080500  1
  C  C20  1  0.99495700  0.28160100  0.37919500  1
  C  C21  1  0.99461200  0.71951100  0.37987800  1
  C  C22  1  0.00538800  0.28048900  0.62012200  1
  C  C23  1  0.64450800  0.50069100  0.34149800  1
  C  C24  1  0.35549200  0.49930900  0.65850200  1
  C  C25  1  0.57219800  0.50113300  0.26214300  1
  C  C26  1  0.42780300  0.49886700  0.73785700  1
  C  C27  1  0.42786800  0.50144900  0.26045600  1
  C  C28  1  0.57213200  0.49855100  0.73954400  1
  C  C29  1  0.35554300  0.50118900  0.33816400  1
  C  C30  1  0.64445700  0.49881100  0.66183600  1
  C  C31  1  0.42491700  0.50066300  0.42131500  1
  C  C32  1  0.57508300  0.49933700  0.57868500  1
  C  C33  1  0.57515000  0.50037400  0.42324900  1
  C  C34  1  0.42485000  0.49962600  0.57675100  1
  I  I1  1  0.68517800  0.50058000  0.14289600  1
  I  I2  1  0.31482300  0.49942000  0.85710400  1
  N  N1  1  0.34914300  0.50033500  0.49802800  1
  N  N2  1  0.65085700  0.49966500  0.50197200  1
  O  O1  1  0.12588900  0.66943100  0.58820900  1
  O  O2  1  0.87411200  0.33056900  0.41179100  1
  O  O3  1  0.87389800  0.66986300  0.41229100  1
  O  O4  1  0.12610200  0.33013700  0.58770900  1
  O  O5  1  0.87998000  0.66350000  0.59511000  1
  O  O6  1  0.12002100  0.33650000  0.40489000  1
  O  O7  1  0.11982200  0.66477100  0.40539500  1
  O  O8  1  0.88017800  0.33522900  0.59460500  1
