# Generated by REPEAT Assigner based on pymatgen
data_DB0-m29_o80_o100_f0_pts.sym.10
_audit_creation_date              2022-05-24
_audit_creation_method            REPEAT_Assigner
_cell_length_a                    14.238231
_cell_length_b                    14.050637
_cell_length_c                    13.324485
_cell_angle_alpha                 94.043604
_cell_angle_beta                  92.244508
_cell_angle_gamma                 100.174392
_cell_volume                      2613.576868
_symmetry_space_group_name_H-M    P1
_symmetry_Int_Tables_number       1
loop_
    _symmetry_equiv_pos_site_id
    _symmetry_equiv_pos_as_xyz
    1  x,y,z
loop_
    _atom_site_type_symbol
    _atom_site_label
    _atom_site_fract_x
    _atom_site_fract_y
    _atom_site_fract_z
    _atom_type_partial_charge
    H   H1   0.911702  0.121084  0.338043  0.188998
    C   C1   0.739839  0.941957  0.852492  -0.144488
    C   C2   0.791364  0.891065  0.790341  -0.273513
    C   C3   0.883383  0.909076  0.831600  0.510729
    N   N1   0.890147  0.966234  0.918075  -0.563695
    C   C4   0.801962  0.986328  0.931081  0.467151
    C   C5   0.956171  0.880209  0.786023  -0.404907
    C   C6   0.056841  0.913808  0.819045  0.408676
    C   C7   0.128934  0.926081  0.752985  -0.293591
    C   C8   0.212502  0.959326  0.809997  -0.197826
    C   C9   0.188141  0.965385  0.909837  0.360435
    N   N2   0.092712  0.936851  0.914472  -0.386099
    C   C10  0.254993  0.998693  0.997727  -0.307340
    C   C11  0.230482  0.047882  0.078882  0.449623
    C   C12  0.292602  0.092235  0.157483  -0.135000
    C   C13  0.241074  0.143120  0.219639  -0.281179
    C   C14  0.149058  0.125122  0.178372  0.520810
    N   N3   0.142298  0.067977  0.091889  -0.567495
    C   C15  0.076272  0.154003  0.223940  -0.421998
    C   C16  0.975602  0.120434  0.190906  0.426056
    C   C17  0.903501  0.108204  0.256959  -0.292218
    C   C18  0.819934  0.074967  0.199945  -0.200343
    C   C19  0.844303  0.068869  0.100109  0.348296
    N   N4   0.939736  0.097374  0.095479  -0.389743
    C   C20  0.777453  0.035539  0.012222  -0.312455
    H   H2   0.765938  0.850220  0.719745  0.160224
    H   H3   0.941277  0.840472  0.712754  0.175548
    H   H4   0.120728  0.913221  0.671900  0.189445
    H   H5   0.329020  0.991393  0.992555  0.192640
    H   H6   0.266501  0.183967  0.290233  0.161762
    H   H7   0.091167  0.193738  0.297210  0.180054
    H   H8   0.703426  0.042839  0.017391  0.192601
    H   H9   0.054191  0.928788  0.979140  0.314696
    H   H10  0.978264  0.105405  0.030814  0.308846
    O   O1   0.646321  0.030021  0.190426  -0.669262
    C   C21  0.727215  0.051188  0.245050  0.767102
    O   O2   0.603202  0.841494  0.277562  -0.509975
    O   O3   0.725440  0.055159  0.343580  -0.530265
    O   O4   0.507863  0.920322  0.373197  -0.552573
    C   C22  0.551781  0.846317  0.356717  0.528740
    Fe  Fe1  0.538438  0.024194  0.280375  1.495925
    O   O5   0.417912  0.002817  0.192101  -0.641176
    O   O6   0.449947  0.166837  0.215278  -0.606043
    C   C23  0.392751  0.087140  0.179629  0.677706
    O   O7   0.577586  0.149179  0.366303  -0.657124
    O   O8   0.441817  0.090713  0.442585  -0.532407
    C   C24  0.516406  0.159291  0.435763  0.864690
    C   C25  0.505536  0.585476  0.881733  0.009331
    C   C26  0.494390  0.268431  0.586425  0.043708
    C   C27  0.410330  0.573947  0.902715  -0.235718
    C   C28  0.340525  0.548008  0.825922  0.126719
    C   C29  0.531356  0.571311  0.783967  -0.284434
    C   C30  0.461890  0.545942  0.706883  0.506555
    C   C31  0.366526  0.534499  0.727827  -0.441526
    C   C32  0.485048  0.360297  0.624283  -0.164059
    C   C33  0.500726  0.439105  0.565140  0.134995
    C   C34  0.489471  0.530968  0.602928  -0.227215
    C   C35  0.504812  0.608707  0.542503  0.107256
    C   C36  0.494683  0.700719  0.579801  -0.161359
    C   C37  0.513402  0.779174  0.522486  -0.107735
    C   C38  0.519196  0.255230  0.487433  -0.087775
    C   C39  0.537945  0.333687  0.430122  -0.194659
    C   C40  0.528031  0.425744  0.467497  0.144734
    C   C41  0.543551  0.503520  0.407137  -0.267002
    C   C42  0.532172  0.595359  0.444878  0.172397
    C   C43  0.547913  0.674182  0.385756  -0.187152
    C   C44  0.503062  0.464984  0.225493  -0.259402
    C   C45  0.571889  0.488689  0.303452  0.483536
    C   C46  0.667391  0.498455  0.283514  -0.299135
    C   C47  0.529695  0.451089  0.127929  0.002986
    C   C48  0.625108  0.460929  0.108123  -0.143047
    C   C49  0.538375  0.766012  0.423550  0.059520
    C   C50  0.693934  0.484594  0.185895  -0.076760
    H   H11  0.559984  0.605734  0.942026  0.087851
    H   H12  0.390749  0.585813  0.979547  0.135800
    H   H13  0.606024  0.580312  0.767603  0.106175
    H   H14  0.312721  0.514410  0.666902  0.157479
    H   H15  0.466125  0.368699  0.701537  0.113273
    H   H16  0.476677  0.714805  0.656556  0.175210
    H   H17  0.555715  0.319559  0.353292  0.187975
    H   H18  0.567012  0.665804  0.308561  0.110974
    H   H19  0.428257  0.457293  0.240978  0.106853
    H   H20  0.721366  0.517026  0.344450  0.130200
    H   H21  0.475760  0.432514  0.066950  0.082161
    H   H22  0.645944  0.450123  0.031598  0.106838
    H   H23  0.768723  0.492298  0.170327  0.115305
    O   O9   0.614583  0.031456  0.817940  -0.641789
    O   O10  0.582505  0.867448  0.794565  -0.597116
    C   C51  0.639707  0.947101  0.830319  0.673399
    O   O11  0.454872  0.885163  0.643570  -0.657880
    O   O12  0.590663  0.943703  0.567378  -0.533413
    C   C52  0.516085  0.875097  0.574135  0.867255
    O   O13  0.429482  0.192960  0.732380  -0.503640
    O   O14  0.386107  0.004310  0.819524  -0.673774
    C   C53  0.305217  0.983145  0.764894  0.760007
    O   O15  0.524771  0.114078  0.636743  -0.548905
    C   C54  0.480919  0.188123  0.653239  0.520311
    O   O16  0.306998  0.979202  0.666366  -0.527844
    Fe  Fe2  0.494056  0.010207  0.729540  1.497140
    C   C55  0.237584  0.535923  0.848745  0.183556
    C   C56  0.209672  0.446986  0.906655  -0.130206
    H   H24  0.228291  0.382833  0.863992  0.038965
    H   H25  0.247574  0.457585  0.981985  0.028110
    H   H26  0.131552  0.434735  0.916249  0.019827
    H   H27  0.224607  0.601248  0.893939  -0.042565
    H   H28  0.192705  0.526734  0.777642  -0.022328
