# Generated by REPEAT Assigner based on pymatgen
data_DB0-m3_o4_o25_f0_nbo.sym.5
_audit_creation_date              2022-05-24
_audit_creation_method            REPEAT_Assigner
_cell_length_a                    30.744487
_cell_length_b                    31.985909
_cell_length_c                    21.914210
_cell_angle_alpha                 90.000000
_cell_angle_beta                  134.531282
_cell_angle_gamma                 90.000000
_cell_volume                      15362.457298
_symmetry_space_group_name_H-M    P1
_symmetry_Int_Tables_number       1
loop_
    _symmetry_equiv_pos_site_id
    _symmetry_equiv_pos_as_xyz
    1  x,y,z
loop_
    _atom_site_type_symbol
    _atom_site_label
    _atom_site_fract_x
    _atom_site_fract_y
    _atom_site_fract_z
    _atom_type_partial_charge
    O   O1    0.453762  0.995560  0.364636  -0.621857
    O   O2    0.953762  0.495560  0.364636  -0.621862
    O   O3    0.558423  0.988853  0.467256  -0.587617
    O   O4    0.058423  0.488853  0.467256  -0.587615
    C   C1    0.505863  0.991431  0.387058  0.578249
    C   C2    0.005863  0.491431  0.387058  0.578245
    O   O5    0.446797  0.933676  0.451694  -0.702778
    O   O6    0.456316  0.058117  0.457575  -0.692517
    O   O7    0.946797  0.433676  0.451694  -0.702790
    O   O8    0.956316  0.558117  0.457575  -0.692525
    O   O9    0.551883  0.928360  0.551381  -0.654786
    O   O10   0.561357  0.052846  0.558785  -0.706806
    O   O11   0.051883  0.428360  0.551381  -0.654795
    O   O12   0.061357  0.552846  0.558785  -0.706810
    C   C3    0.497306  0.911658  0.499886  0.670633
    C   C4    0.510828  0.074865  0.509755  0.696801
    C   C5    0.997306  0.411658  0.499886  0.670653
    C   C6    0.010828  0.574865  0.509755  0.696810
    Zn  Zn1   0.435181  0.996489  0.436929  1.291232
    Zn  Zn2   0.935181  0.496489  0.436929  1.291240
    Zn  Zn3   0.572983  0.990004  0.572874  1.290448
    Zn  Zn4   0.072983  0.490004  0.572874  1.290451
    O   O13   0.449693  0.998234  0.542443  -0.664035
    O   O14   0.949693  0.498234  0.542443  -0.664040
    O   O15   0.554525  0.990300  0.645333  -0.682992
    O   O16   0.054525  0.490300  0.645333  -0.682993
    C   C7    0.502152  0.994498  0.622283  0.724751
    C   C8    0.002152  0.494498  0.622283  0.724751
    C   C9    0.462796  0.731358  0.407899  -0.330723
    C   C10   0.493946  0.256564  0.440973  -0.225309
    C   C11   0.962796  0.231358  0.407899  -0.330355
    C   C12   0.993946  0.756564  0.440973  -0.225347
    C   C13   0.520220  0.757642  0.470410  -0.164801
    C   C14   0.551036  0.230113  0.504043  -0.173343
    C   C15   0.020220  0.257642  0.470410  -0.165006
    C   C16   0.051036  0.730113  0.504043  -0.173334
    H   H1    0.548461  0.770106  0.460355  0.057095
    H   H2    0.580515  0.218742  0.495422  0.066940
    H   H3    0.048461  0.270106  0.460355  0.057127
    H   H4    0.080515  0.718742  0.495422  0.066939
    C   C17   0.492711  0.866930  0.494300  0.141125
    C   C18   0.514960  0.119636  0.513298  0.129288
    C   C19   0.992711  0.366930  0.494300  0.141138
    C   C20   0.014960  0.619636  0.513298  0.129295
    C   C21   0.483173  0.619678  0.476401  0.189298
    C   C22   0.501178  0.366793  0.500096  0.189170
    C   C23   0.983173  0.119678  0.476400  0.189280
    C   C24   0.001178  0.866793  0.500096  0.189338
    C   C25   0.429685  0.758199  0.421845  -0.135671
    C   C26   0.459069  0.228708  0.450274  -0.178754
    C   C27   0.929685  0.258199  0.421845  -0.136152
    C   C28   0.959069  0.728708  0.450274  -0.178754
    C   C29   0.487301  0.783679  0.485354  0.903531
    C   C30   0.516425  0.203013  0.514559  0.908314
    C   C31   0.987301  0.283679  0.485354  0.903802
    C   C32   0.016425  0.703013  0.514559  0.908337
    C   C33   0.452061  0.729483  0.494706  -0.293241
    C   C34   0.479405  0.256176  0.523301  -0.276013
    C   C35   0.952061  0.229483  0.494706  -0.292972
    C   C36   0.979405  0.756176  0.523301  -0.276057
    C   C37   0.484863  0.703118  0.479863  1.093527
    C   C38   0.513790  0.283830  0.512800  1.098699
    C   C39   0.984863  0.203118  0.479863  1.093335
    C   C40   0.013790  0.783830  0.512800  1.098867
    C   C41   0.509444  0.755987  0.558319  -0.174623
    C   C42   0.536668  0.229624  0.587576  -0.156698
    C   C43   0.009444  0.255987  0.558319  -0.174789
    C   C44   0.036668  0.729624  0.587576  -0.156691
    C   C45   0.541588  0.729257  0.542686  -0.275572
    C   C46   0.570527  0.257610  0.576296  -0.379208
    C   C47   0.041588  0.229257  0.542686  -0.275478
    C   C48   0.070527  0.757610  0.576296  -0.379266
    C   C49   0.489726  0.829339  0.489863  -0.654193
    C   C50   0.516549  0.157289  0.514669  -0.647133
    C   C51   0.989726  0.329339  0.489863  -0.654259
    C   C52   0.016549  0.657289  0.514669  -0.647150
    C   C53   0.483385  0.657367  0.477007  -0.738077
    C   C54   0.506775  0.329326  0.505780  -0.744532
    C   C55   0.983385  0.157367  0.477007  -0.738046
    C   C56   0.006775  0.829326  0.505780  -0.744709
    H   H5    0.527074  0.768163  0.619597  0.073931
    H   H6    0.554744  0.217567  0.649220  0.072854
    H   H7    0.027074  0.268163  0.619597  0.073955
    H   H8    0.054744  0.717567  0.649220  0.072853
    H   H9    0.423890  0.716879  0.504777  0.088893
    H   H10   0.449832  0.267682  0.531668  0.089820
    H   H11   0.923890  0.216879  0.504777  0.088846
    H   H12   0.949832  0.767682  0.531668  0.089826
    H   H13   0.383505  0.772162  0.373398  0.060954
    H   H14   0.412872  0.215196  0.398955  0.068996
    H   H15   0.883505  0.272162  0.373398  0.061109
    H   H16   0.912872  0.715196  0.398955  0.068997
    C   C57   0.454979  0.006420  0.239882  0.207209
    C   C58   0.954979  0.506420  0.239882  0.207215
    C   C59   0.503899  0.989449  0.318120  -0.057168
    C   C60   0.003899  0.489449  0.318120  -0.057162
    C   C61   0.547778  0.969934  0.324828  -0.017696
    C   C62   0.047778  0.469934  0.324828  -0.017698
    C   C63   0.541089  0.970190  0.254863  -0.405363
    C   C64   0.041089  0.470190  0.254863  -0.405365
    H   H17   0.575499  0.955500  0.260623  0.198994
    H   H18   0.075499  0.455500  0.260623  0.198995
    C   C65   0.490686  0.988118  0.177228  0.345540
    C   C66   0.990686  0.488118  0.177228  0.345528
    C   C67   0.446585  0.004964  0.171553  -0.314559
    C   C68   0.946585  0.504964  0.171553  -0.314559
    C   C69   0.384884  0.025400  0.114079  0.063994
    C   C70   0.884884  0.525400  0.114079  0.063996
    C   C71   0.396877  0.027846  0.196181  -0.146924
    C   C72   0.896877  0.527846  0.196181  -0.146922
    H   H19   0.368363  0.007787  0.197697  0.055160
    H   H20   0.404446  0.060195  0.220165  0.053333
    H   H21   0.868363  0.507787  0.197697  0.055159
    H   H22   0.904446  0.560195  0.220165  0.053334
    C   C73   0.463326  0.019583  0.683343  0.115234
    C   C74   0.963326  0.519583  0.683343  0.115208
    C   C75   0.501991  0.994448  0.688689  -0.082320
    C   C76   0.001991  0.494448  0.688689  -0.082303
    C   C77   0.539981  0.968233  0.759284  -0.192030
    C   C78   0.039981  0.468233  0.759284  -0.192048
    H   H23   0.571018  0.947429  0.766424  0.147632
    H   H24   0.071018  0.447429  0.766424  0.147633
    C   C79   0.536583  0.967186  0.819519  -0.132915
    C   C80   0.036583  0.467186  0.819519  -0.132850
    H   H25   0.565587  0.945957  0.873180  0.146491
    H   H26   0.065587  0.445957  0.873180  0.146474
    C   C81   0.497455  0.993870  0.812096  -0.110629
    C   C82   0.997455  0.493870  0.812096  -0.110761
    C   C83   0.462443  0.020162  0.742953  0.129137
    C   C84   0.962443  0.520162  0.742953  0.129197
    C   C85   0.414072  0.052425  0.699424  -0.145354
    C   C86   0.914072  0.552425  0.699424  -0.145390
    C   C87   0.415411  0.051980  0.629508  -0.167209
    C   C88   0.915411  0.551980  0.629508  -0.167180
    H   H27   0.431057  0.082109  0.736003  0.073873
    H   H28   0.371016  0.039826  0.676264  0.073422
    H   H29   0.931057  0.582109  0.736003  0.073881
    H   H30   0.871016  0.539826  0.676264  0.073426
    H   H31   0.433443  0.081349  0.627301  0.078000
    H   H32   0.372979  0.039362  0.567256  0.080219
    H   H33   0.933443  0.581349  0.627301  0.077992
    H   H34   0.872979  0.539362  0.567256  0.080214
    O   O17   0.400118  0.491576  0.345071  -0.695931
    O   O18   0.900118  0.991576  0.345071  -0.695925
    O   O19   0.398222  0.488974  0.448565  -0.664465
    O   O20   0.898222  0.988974  0.448565  -0.664461
    C   C89   0.370814  0.489476  0.368441  0.757708
    C   C90   0.870814  0.989476  0.368441  0.757631
    O   O21   0.488962  0.555323  0.429943  -0.680512
    O   O22   0.495936  0.430756  0.441813  -0.698930
    O   O23   0.988962  0.055323  0.429943  -0.680504
    O   O24   0.995936  0.930756  0.441813  -0.698925
    O   O25   0.483049  0.555444  0.529389  -0.709414
    O   O26   0.492549  0.430948  0.543859  -0.691007
    O   O27   0.983049  0.055444  0.529389  -0.709413
    O   O28   0.992549  0.930948  0.543859  -0.691000
    C   C91   0.484471  0.574796  0.477961  0.651167
    C   C92   0.495649  0.411466  0.494354  0.670956
    C   C93   0.984471  0.074796  0.477961  0.651177
    C   C94   0.995649  0.911466  0.494354  0.670861
    Zn  Zn5   0.491119  0.492705  0.418150  1.309628
    Zn  Zn6   0.991119  0.992705  0.418150  1.309617
    Zn  Zn7   0.488914  0.493536  0.554200  1.308393
    Zn  Zn8   0.988914  0.993536  0.554200  1.308404
    O   O29   0.581973  0.496190  0.523982  -0.677071
    O   O30   0.081973  0.996190  0.523982  -0.677068
    O   O31   0.579827  0.495544  0.627249  -0.663547
    O   O32   0.079827  0.995544  0.627249  -0.663549
    C   C95   0.609337  0.496882  0.604205  0.722936
    C   C96   0.109337  0.996882  0.604205  0.722962
    O   O33   0.580694  0.952848  0.083207  -0.676699
    O   O34   0.581772  0.025020  0.081042  -0.717650
    O   O35   0.080694  0.452848  0.083207  -0.676695
    O   O36   0.081772  0.525020  0.081042  -0.717647
    C   C97   0.609614  0.988713  0.110493  0.784101
    C   C98   0.109614  0.488713  0.110493  0.784049
    O   O37   0.488654  0.953080  0.079386  -0.695886
    O   O38   0.487961  0.025228  0.079874  -0.630466
    O   O39   0.988654  0.453080  0.079386  -0.695880
    O   O40   0.987961  0.525228  0.079874  -0.630456
    C   C99   0.487584  0.988909  0.107435  0.541235
    C   C100  0.987584  0.488909  0.107435  0.541244
    Zn  Zn9   0.489272  0.943963  0.988515  1.308696
    Zn  Zn10  0.491383  0.038543  0.992874  1.296320
    Zn  Zn11  0.989272  0.443963  0.988515  1.308695
    Zn  Zn12  0.991383  0.538543  0.992874  1.296318
    O   O41   0.398889  0.957534  0.898292  -0.670885
    O   O42   0.399968  0.029676  0.899958  -0.672074
    O   O43   0.898889  0.457534  0.898292  -0.670891
    O   O44   0.899968  0.529676  0.899958  -0.672080
    O   O45   0.494686  0.957165  0.903590  -0.727928
    O   O46   0.490579  0.029413  0.900595  -0.692877
    O   O47   0.994686  0.457165  0.903590  -0.727952
    O   O48   0.990579  0.529413  0.900595  -0.692900
    C   C101  0.370967  0.993904  0.870241  0.628055
    C   C102  0.870967  0.493904  0.870241  0.628095
    C   C103  0.493618  0.993500  0.874754  0.748095
    C   C104  0.993618  0.493500  0.874754  0.748210
    C   C105  0.270446  0.512466  0.230537  0.125675
    C   C106  0.770446  0.012466  0.230537  0.125591
    C   C107  0.304247  0.487859  0.302197  -0.104206
    C   C108  0.804247  0.987859  0.302197  -0.104047
    C   C109  0.272070  0.462287  0.310375  -0.176795
    C   C110  0.772070  0.962287  0.310375  -0.176892
    H   H35   0.296369  0.442135  0.365541  0.147529
    H   H36   0.796369  0.942135  0.365541  0.147554
    C   C111  0.708384  0.961542  0.246744  -0.154435
    C   C112  0.208384  0.461542  0.246744  -0.154487
    H   H37   0.684091  0.941007  0.253579  0.142389
    H   H38   0.184091  0.441007  0.253579  0.142397
    C   C113  0.676202  0.988127  0.176744  -0.134339
    C   C114  0.176202  0.488127  0.176744  -0.134261
    C   C115  0.709965  0.013468  0.172539  0.137916
    C   C116  0.209965  0.513468  0.172539  0.137858
    C   C117  0.704537  0.045871  0.119149  -0.179894
    C   C118  0.204537  0.545871  0.119149  -0.179862
    C   C119  0.275766  0.544995  0.187886  -0.141487
    C   C120  0.775766  0.044995  0.187886  -0.141464
    H   H39   0.685753  0.075644  0.118533  0.082638
    H   H40   0.683513  0.033506  0.056120  0.078182
    H   H41   0.185753  0.575644  0.118533  0.082632
    H   H42   0.183513  0.533506  0.056120  0.078174
    H   H43   0.296709  0.574186  0.226004  0.076460
    H   H44   0.294555  0.532417  0.163124  0.069218
    H   H45   0.796709  0.074186  0.226004  0.076459
    H   H46   0.794555  0.032417  0.163124  0.069221
    C   C121  0.710248  0.471358  0.670841  0.108898
    C   C122  0.210248  0.971358  0.670841  0.108908
    C   C123  0.676095  0.498621  0.671411  -0.121166
    C   C124  0.176095  0.998621  0.671411  -0.121204
    C   C125  0.708285  0.525358  0.741793  -0.069097
    C   C126  0.208285  0.025358  0.741793  -0.069066
    C   C127  0.272040  0.024051  0.806005  -0.300439
    C   C128  0.772040  0.524051  0.806005  -0.300395
    H   H47   0.296532  0.045324  0.859601  0.176444
    H   H48   0.796532  0.545324  0.859601  0.176432
    C   C129  0.304282  0.995095  0.803287  0.067946
    C   C130  0.804282  0.495095  0.803287  0.067885
    C   C131  0.270561  0.968851  0.734105  0.085222
    C   C132  0.770561  0.468851  0.734105  0.085237
    C   C133  0.275721  0.933837  0.695184  -0.148884
    C   C134  0.775721  0.433837  0.695184  -0.148888
    C   C135  0.704678  0.436414  0.621274  -0.168649
    C   C136  0.204678  0.936414  0.621274  -0.168663
    H   H49   0.292174  0.904676  0.733240  0.046791
    H   H50   0.298839  0.943337  0.675103  0.082363
    H   H51   0.792174  0.404676  0.733240  0.046792
    H   H52   0.798839  0.443337  0.675103  0.082359
    H   H53   0.681518  0.408834  0.618599  0.080032
    H   H54   0.688059  0.446989  0.559691  0.080905
    H   H55   0.181518  0.908834  0.618599  0.080041
    H   H56   0.188059  0.946989  0.559691  0.080908
    C   C137  0.676736  0.554783  0.751084  0.264491
    C   C138  0.638619  0.585297  0.690529  -0.120585
    C   C139  0.609900  0.612729  0.701457  0.123456
    C   C140  0.618930  0.609798  0.772363  -0.304589
    C   C141  0.656912  0.579405  0.832750  0.031735
    C   C142  0.685981  0.552206  0.822244  -0.338343
    H   H57   0.631555  0.588014  0.634927  0.083719
    H   H58   0.580336  0.636731  0.654624  0.045028
    H   H59   0.596304  0.631360  0.780601  0.123869
    H   H60   0.664117  0.576969  0.888503  0.068659
    H   H61   0.715601  0.528402  0.869462  0.205055
    C   C143  0.176736  0.054783  0.751084  0.264493
    C   C144  0.138619  0.085297  0.690529  -0.120586
    C   C145  0.109900  0.112729  0.701457  0.123454
    C   C146  0.118930  0.109798  0.772363  -0.304591
    C   C147  0.156912  0.079405  0.832750  0.031745
    C   C148  0.185981  0.052206  0.822244  -0.338357
    H   H62   0.131555  0.088014  0.634927  0.083713
    H   H63   0.080336  0.136731  0.654624  0.045032
    H   H64   0.096304  0.131360  0.780601  0.123868
    H   H65   0.164117  0.076969  0.888503  0.068656
    H   H66   0.215601  0.028402  0.869462  0.205057
    C   C149  0.436983  0.716142  0.323376  0.306949
    C   C150  0.376295  0.722655  0.249165  -0.280536
    C   C151  0.353217  0.708412  0.171735  -0.043186
    C   C152  0.390491  0.687648  0.167882  -0.160755
    C   C153  0.450943  0.681104  0.241589  -0.072468
    C   C154  0.474086  0.695306  0.319048  -0.224128
    H   H67   0.346109  0.738627  0.250582  0.140239
    H   H68   0.305743  0.713516  0.113938  0.096236
    H   H69   0.372330  0.676507  0.107136  0.115652
    H   H70   0.480286  0.664850  0.238695  0.107738
    H   H71   0.521522  0.690150  0.376225  0.120416
    C   C155  0.472520  0.273434  0.360156  0.238294
    C   C156  0.414186  0.265503  0.281781  -0.266947
    C   C157  0.395471  0.281349  0.207920  -0.067128
    C   C158  0.434840  0.305107  0.211993  -0.127326
    C   C159  0.493030  0.313038  0.290026  -0.099711
    C   C160  0.511836  0.297212  0.363926  -0.154744
    H   H72   0.382663  0.247024  0.277293  0.139445
    H   H73   0.349817  0.275130  0.146703  0.099142
    H   H74   0.420086  0.317506  0.154031  0.108128
    H   H75   0.523954  0.331665  0.293297  0.106685
    H   H76   0.557550  0.303533  0.424966  0.093878
    C   C161  0.936983  0.216142  0.323376  0.306808
    C   C162  0.876295  0.222655  0.249165  -0.280442
    C   C163  0.853217  0.208412  0.171735  -0.043216
    C   C164  0.890491  0.187648  0.167882  -0.160749
    C   C165  0.950943  0.181104  0.241589  -0.072463
    C   C166  0.974086  0.195306  0.319048  -0.224110
    H   H77   0.846109  0.238627  0.250582  0.140194
    H   H78   0.805743  0.213516  0.113938  0.096243
    H   H79   0.872330  0.176507  0.107136  0.115651
    H   H80   0.980286  0.164850  0.238695  0.107736
    H   H81   0.021522  0.190150  0.376225  0.120410
    C   C167  0.972520  0.773434  0.360156  0.238300
    C   C168  0.914186  0.765503  0.281781  -0.266947
    C   C169  0.895471  0.781349  0.207920  -0.067132
    C   C170  0.934840  0.805107  0.211993  -0.127319
    C   C171  0.993030  0.813038  0.290026  -0.099715
    C   C172  0.011836  0.797212  0.363926  -0.154741
    H   H82   0.882663  0.747024  0.277293  0.139445
    H   H83   0.849817  0.775130  0.146703  0.099143
    H   H84   0.920086  0.817506  0.154031  0.108125
    H   H85   0.023954  0.831665  0.293297  0.106688
    H   H86   0.057550  0.803533  0.424966  0.093876
    C   C173  0.605102  0.712454  0.610556  0.322756
    C   C174  0.640218  0.720439  0.696302  -0.339079
    C   C175  0.698596  0.704614  0.758049  0.005188
    C   C176  0.722405  0.680923  0.734719  -0.211613
    C   C177  0.687801  0.673101  0.649472  -0.017494
    C   C178  0.629365  0.688783  0.587658  -0.257256
    H   H87   0.622652  0.738787  0.716376  0.145718
    H   H88   0.725682  0.710717  0.824944  0.096224
    H   H89   0.768094  0.668428  0.783228  0.122395
    H   H90   0.706357  0.654446  0.631029  0.084629
    H   H91   0.602646  0.682233  0.521225  0.129115
    C   C179  0.635934  0.269422  0.650295  0.345212
    C   C180  0.677924  0.237876  0.701112  -0.225023
    C   C181  0.738665  0.247180  0.769916  -0.056030
    C   C182  0.757961  0.288145  0.788320  -0.148410
    C   C183  0.716464  0.319767  0.737673  -0.098096
    C   C184  0.655673  0.310524  0.668807  -0.310260
    H   H92   0.663280  0.205608  0.687140  0.117879
    H   H93   0.771174  0.222297  0.809424  0.099918
    H   H94   0.805589  0.295462  0.842244  0.101230
    H   H95   0.731592  0.351933  0.751863  0.167218
    H   H96   0.624574  0.335921  0.630151  0.152543
    C   C185  0.105102  0.212454  0.610556  0.322778
    C   C186  0.140218  0.220439  0.696302  -0.339098
    C   C187  0.198596  0.204614  0.758049  0.005194
    C   C188  0.222405  0.180923  0.734719  -0.211616
    C   C189  0.187801  0.173101  0.649472  -0.017492
    C   C190  0.129365  0.188783  0.587658  -0.257264
    H   H97   0.122652  0.238787  0.716376  0.145725
    H   H98   0.225682  0.210717  0.824944  0.096223
    H   H99   0.268094  0.168428  0.783228  0.122396
    H   H100  0.206357  0.154446  0.631029  0.084629
    H   H101  0.102646  0.182233  0.521225  0.129116
    C   C191  0.135934  0.769422  0.650295  0.345223
    C   C192  0.177924  0.737876  0.701112  -0.225018
    C   C193  0.238665  0.747180  0.769916  -0.056038
    C   C194  0.257961  0.788145  0.788320  -0.148405
    C   C195  0.216464  0.819767  0.737673  -0.098106
    C   C196  0.155673  0.810524  0.668807  -0.310250
    H   H102  0.163280  0.705608  0.687140  0.117878
    H   H103  0.271174  0.722297  0.809424  0.099919
    H   H104  0.305589  0.795462  0.842244  0.101230
    H   H105  0.231592  0.851933  0.751863  0.167221
    H   H106  0.124574  0.835921  0.630151  0.152535
    C   C197  0.599315  0.946723  0.401337  0.237080
    C   C198  0.658218  0.957060  0.442831  -0.222434
    C   C199  0.706783  0.934614  0.513553  -0.070947
    C   C200  0.696605  0.901442  0.542379  -0.179211
    C   C201  0.637802  0.890514  0.500106  -0.059621
    C   C202  0.589211  0.912921  0.429379  -0.163402
    H   H107  0.666504  0.983074  0.420604  0.122669
    H   H108  0.752881  0.943017  0.546373  0.101194
    H   H109  0.734704  0.883846  0.597789  0.113395
    H   H110  0.629741  0.864277  0.522206  0.097215
    H   H111  0.543173  0.903868  0.395875  0.110401
    C   C203  0.099315  0.446723  0.401337  0.237080
    C   C204  0.158218  0.457060  0.442831  -0.222438
    C   C205  0.206783  0.434614  0.513553  -0.070947
    C   C206  0.196605  0.401442  0.542379  -0.179207
    C   C207  0.137802  0.390514  0.500106  -0.059624
    C   C208  0.089211  0.412921  0.429379  -0.163397
    H   H112  0.166504  0.483074  0.420604  0.122671
    H   H113  0.252881  0.443017  0.546373  0.101195
    H   H114  0.234704  0.383846  0.597789  0.113394
    H   H115  0.129741  0.364277  0.522206  0.097215
    H   H116  0.043173  0.403868  0.395875  0.110399
    C   C209  0.333203  0.996017  0.046974  0.208003
    C   C210  0.282376  0.991613  0.034400  -0.143731
    C   C211  0.237219  0.963170  0.975915  -0.142542
    C   C212  0.241199  0.939500  0.927579  -0.155292
    C   C213  0.289905  0.944903  0.936740  0.044572
    C   C214  0.335282  0.973134  0.995564  -0.330607
    H   H117  0.276161  0.010886  0.068237  0.097267
    H   H118  0.198116  0.959919  0.967120  0.119060
    H   H119  0.205547  0.917458  0.881262  0.099229
    H   H120  0.292440  0.927145  0.897337  0.046935
    H   H121  0.371819  0.977395  0.999658  0.212093
    C   C215  0.380895  0.068242  0.081835  0.175687
    C   C216  0.324804  0.087945  0.022737  -0.244181
    C   C217  0.319593  0.126975  0.991492  -0.066846
    C   C218  0.370639  0.147324  0.020518  -0.118751
    C   C219  0.427053  0.128911  0.082146  -0.186892
    C   C220  0.432444  0.089800  0.113398  -0.046954
    H   H122  0.284355  0.073379  0.000926  0.106795
    H   H123  0.275354  0.141739  0.944529  0.097515
    H   H124  0.366575  0.177991  0.996193  0.100409
    H   H125  0.467397  0.145280  0.106542  0.117765
    H   H126  0.477772  0.077213  0.163329  0.068515
    C   C221  0.833203  0.496017  0.046974  0.207987
    C   C222  0.835282  0.473134  0.995564  -0.330573
    C   C223  0.789905  0.444903  0.936740  0.044556
    C   C224  0.741199  0.439500  0.927579  -0.155287
    C   C225  0.737219  0.463170  0.975915  -0.142548
    C   C226  0.782376  0.491613  0.034400  -0.143724
    H   H127  0.871819  0.477395  0.999658  0.212070
    H   H128  0.792440  0.427145  0.897337  0.046942
    H   H129  0.705547  0.417458  0.881262  0.099228
    H   H130  0.698116  0.459919  0.967120  0.119061
    H   H131  0.776161  0.510886  0.068237  0.097267
    C   C227  0.880895  0.568242  0.081835  0.175688
    C   C228  0.932444  0.589800  0.113398  -0.046963
    C   C229  0.927053  0.628911  0.082146  -0.186885
    C   C230  0.870639  0.647324  0.020518  -0.118753
    C   C231  0.819593  0.626975  0.991492  -0.066846
    C   C232  0.824804  0.587945  0.022737  -0.244178
    H   H132  0.977772  0.577213  0.163329  0.068515
    H   H133  0.967397  0.645280  0.106542  0.117763
    H   H134  0.866575  0.677991  0.996193  0.100409
    H   H135  0.775354  0.641739  0.944529  0.097514
    H   H136  0.784355  0.573379  0.000926  0.106793
