# Generated by REPEAT Assigner based on pymatgen
data_DB0-m3_o8_o28_f0_pcu.sym.108_sqe
_audit_creation_date              2022-05-24
_audit_creation_method            REPEAT_Assigner
_cell_length_a                    15.914850
_cell_length_b                    17.082251
_cell_length_c                    23.516642
_cell_angle_alpha                 90.006593
_cell_angle_beta                  92.706405
_cell_angle_gamma                 89.118494
_cell_volume                      6385.381077
_symmetry_space_group_name_H-M    P1
_symmetry_Int_Tables_number       1
loop_
    _symmetry_equiv_pos_site_id
    _symmetry_equiv_pos_as_xyz
    1  x,y,z
loop_
    _atom_site_type_symbol
    _atom_site_label
    _atom_site_fract_x
    _atom_site_fract_y
    _atom_site_fract_z
    _atom_type_partial_charge
    O   O1    0.419792  0.614015  0.502015  -0.621473
    O   O2    0.579735  0.386754  0.512275  -0.690495
    O   O3    0.564455  0.619705  0.505410  -0.683095
    O   O4    0.434984  0.381218  0.508569  -0.678861
    C   C1    0.489887  0.653426  0.502252  0.706890
    C   C2    0.509391  0.347348  0.511009  0.761129
    O   O5    0.427573  0.501202  0.590154  -0.751914
    O   O6    0.571759  0.499428  0.424379  -0.654953
    O   O7    0.572421  0.508189  0.593783  -0.733712
    O   O8    0.427361  0.492801  0.420847  -0.631027
    C   C3    0.500299  0.506069  0.618480  0.919891
    C   C4    0.499112  0.494942  0.395628  0.756266
    Zn  Zn1   0.404336  0.496593  0.504772  1.046765
    Zn  Zn2   0.595180  0.504288  0.509763  1.068590
    C   C5    0.523557  0.438144  0.123640  0.440425
    C   C6    0.466409  0.571080  0.888449  0.460463
    N   N1    0.498083  0.502011  0.152694  -0.160075
    N   N2    0.502177  0.511176  0.860086  -0.172267
    C   C7    0.473173  0.567807  0.124068  0.442178
    C   C8    0.538760  0.450480  0.889438  0.462612
    C   C9    0.470699  0.569479  0.065171  -0.090698
    C   C10   0.535356  0.446597  0.947975  -0.117812
    C   C11   0.500295  0.506174  0.035717  0.082130
    C   C12   0.501435  0.508171  0.977122  0.110899
    C   C13   0.528545  0.440740  0.065149  -0.096391
    C   C14   0.468661  0.571692  0.947371  -0.118997
    C   C15   0.439740  0.634440  0.035489  -0.067621
    C   C16   0.566084  0.381537  0.977585  -0.046921
    C   C17   0.437080  0.634865  0.976792  -0.050450
    C   C18   0.560928  0.377887  0.035826  -0.065033
    O   O9    0.542251  0.370805  0.151319  -0.476418
    O   O10   0.426221  0.629460  0.859513  -0.485654
    O   O11   0.452594  0.632853  0.152751  -0.481381
    O   O12   0.580419  0.394068  0.861942  -0.488088
    H   H1    0.415655  0.684997  0.057418  0.133949
    H   H2    0.592674  0.331994  0.955801  0.126546
    H   H3    0.411294  0.685853  0.954648  0.127515
    H   H4    0.584163  0.325826  0.057819  0.130540
    C   C19   0.476010  0.444862  0.769059  -0.340160
    C   C20   0.428461  0.525260  0.241873  -0.397518
    H   H5    0.458055  0.392929  0.791421  0.161048
    H   H6    0.372980  0.546727  0.218201  0.168602
    C   C21   0.479309  0.442013  0.710621  0.138090
    C   C22   0.428735  0.525214  0.300548  0.264164
    C   C23   0.500859  0.507826  0.680709  -0.319025
    C   C24   0.497856  0.494938  0.332612  -0.325162
    C   C25   0.522577  0.575109  0.710270  0.182270
    C   C26   0.566419  0.466018  0.303926  0.169225
    C   C27   0.524467  0.575803  0.769032  -0.347197
    C   C28   0.566991  0.471436  0.245370  -0.360118
    H   H7    0.544419  0.628222  0.791211  0.157472
    H   H8    0.621679  0.450135  0.224274  0.160053
    C   C29   0.500202  0.510988  0.798985  0.333320
    C   C30   0.497993  0.500012  0.213738  0.380086
    C   C31   0.484735  0.738599  0.495223  -0.129298
    C   C32   0.512817  0.261592  0.508881  -0.153692
    C   C33   0.555872  0.780331  0.483982  0.012045
    C   C34   0.439327  0.220478  0.499791  -0.080733
    C   C35   0.551251  0.860272  0.474984  -0.193431
    C   C36   0.439879  0.139831  0.496524  -0.132380
    C   C37   0.474482  0.899451  0.480177  0.353977
    C   C38   0.516564  0.098760  0.503589  0.330959
    C   C39   0.403428  0.857074  0.489507  -0.328629
    C   C40   0.589567  0.140553  0.512997  -0.327286
    C   C41   0.408177  0.777230  0.496975  0.111020
    C   C42   0.588292  0.221204  0.514875  0.190947
    N   N3    0.466189  0.981903  0.477398  -0.228798
    N   N4    0.524282  0.015858  0.504064  -0.042589
    H   H9    0.379354  0.250829  0.495093  0.098316
    H   H10   0.615588  0.750382  0.480013  0.080708
    H   H11   0.343611  0.887214  0.492551  0.154309
    H   H12   0.648933  0.109282  0.518727  0.104015
    H   H13   0.351505  0.745913  0.505123  0.042769
    H   H14   0.646731  0.251877  0.521983  0.021196
    N   N5    0.720709  0.509822  0.513456  -0.081556
    N   N6    0.278821  0.491220  0.501032  -0.096895
    C   C43   0.767300  0.449740  0.494511  -0.066014
    C   C44   0.233215  0.545007  0.528481  -0.055710
    C   C45   0.853875  0.453840  0.495498  -0.067146
    C   C46   0.146599  0.541464  0.527012  -0.096224
    C   C47   0.893025  0.520274  0.516881  0.421249
    C   C48   0.106494  0.481842  0.496924  0.420481
    C   C49   0.844106  0.580194  0.537286  -0.286966
    C   C50   0.154569  0.427825  0.468929  -0.324129
    C   C51   0.757799  0.574264  0.535164  0.019338
    C   C52   0.240920  0.433335  0.471258  0.141455
    N   N7    0.981422  0.528388  0.518920  -0.200629
    N   N8    0.018040  0.474087  0.494447  -0.186611
    H   H15   0.264620  0.591157  0.552202  0.161958
    H   H16   0.736725  0.397857  0.478309  0.185477
    H   H17   0.112930  0.585747  0.550072  0.065895
    H   H18   0.888414  0.404069  0.479698  0.028069
    H   H19   0.873435  0.632242  0.554570  0.136649
    H   H20   0.124504  0.380999  0.445139  0.135850
    H   H21   0.719935  0.621773  0.551059  0.169125
    H   H22   0.278289  0.390774  0.449161  0.110154
    C   C53   0.476317  0.365030  0.683704  0.253199
    C   C54   0.404549  0.320544  0.684287  -0.036963
    Cl  Cl1   0.308887  0.362535  0.703642  -0.085032
    C   C55   0.408578  0.241862  0.671208  -0.107795
    C   C56   0.484369  0.207359  0.658651  0.098118
    Cl  Cl2   0.492330  0.105936  0.649567  -0.115411
    C   C57   0.555183  0.252193  0.656121  -0.124266
    C   C58   0.551085  0.330877  0.668397  -0.179630
    H   H23   0.352994  0.206566  0.673128  0.091595
    H   H24   0.614706  0.225046  0.646665  0.113976
    H   H25   0.608002  0.364680  0.669770  0.134377
    C   C59   0.356514  0.562073  0.326763  0.161853
    C   C60   0.280484  0.524111  0.327297  -0.085036
    Cl  Cl3   0.270193  0.429717  0.298932  -0.079123
    C   C61   0.212821  0.559522  0.351976  -0.038500
    C   C62   0.220727  0.632893  0.375832  0.040076
    Cl  Cl4   0.134711  0.677667  0.407168  -0.104511
    C   C63   0.296344  0.671014  0.375017  -0.106362
    C   C64   0.364171  0.635678  0.350533  -0.129138
    H   H26   0.153609  0.529497  0.352915  0.092357
    H   H27   0.302416  0.728669  0.393512  0.101802
    H   H28   0.423458  0.665651  0.350015  0.102764
    C   C65   0.537750  0.648257  0.680705  0.265508
    C   C66   0.617967  0.677777  0.679826  -0.040089
    Cl  Cl5   0.704772  0.621443  0.705090  -0.081566
    C   C67   0.629806  0.752639  0.660100  -0.130198
    C   C68   0.561541  0.798389  0.642118  0.083828
    Cl  Cl6   0.575615  0.895968  0.622582  -0.105868
    C   C69   0.481729  0.768256  0.641640  -0.054886
    C   C70   0.469881  0.693189  0.660747  -0.288122
    H   H29   0.692411  0.776331  0.660414  0.105912
    H   H30   0.428192  0.804252  0.627759  0.102077
    H   H31   0.406899  0.670809  0.662528  0.153843
    C   C71   0.633794  0.419094  0.332446  0.269433
    C   C72   0.716839  0.441768  0.331687  -0.106713
    Cl  Cl7   0.742995  0.533831  0.305415  -0.073454
    C   C73   0.780071  0.392251  0.352854  0.005716
    C   C74   0.760830  0.320160  0.374688  0.002920
    Cl  Cl8   0.841293  0.257258  0.401186  -0.080155
    C   C75   0.678121  0.298048  0.376411  -0.069186
    C   C76   0.614798  0.347279  0.355191  -0.211451
    H   H32   0.844917  0.410044  0.352358  0.067189
    H   H33   0.662955  0.241655  0.393713  0.088806
    H   H34   0.550204  0.328582  0.355058  0.135774
    C   C77   0.357439  0.102969  0.488680  0.254922
    C   C78   0.315800  0.103588  0.435755  -0.140520
    Cl  Cl9   0.362452  0.145076  0.377079  -0.038664
    C   C79   0.237972  0.069650  0.428531  -0.011335
    C   C80   0.201263  0.035559  0.474114  0.043224
    Cl  Cl10  0.102511  0.992371  0.464819  -0.099512
    C   C81   0.242353  0.035426  0.527008  -0.131019
    C   C82   0.320228  0.069152  0.534301  -0.186454
    H   H35   0.205789  0.069614  0.387020  0.098520
    H   H36   0.213570  0.008769  0.562793  0.108030
    H   H37   0.351926  0.068909  0.575835  0.154028
    C   C83   0.627823  0.899841  0.458547  0.232824
    C   C84   0.630518  0.939135  0.407084  -0.026332
    Cl  Cl11  0.545093  0.938266  0.357170  -0.070523
    C   C85   0.702717  0.977032  0.393333  0.007424
    C   C86   0.772588  0.975247  0.430208  -0.064074
    Cl  Cl12  0.863959  0.023644  0.412525  -0.048236
    C   C87   0.770939  0.934311  0.480566  0.067100
    C   C88   0.699009  0.896251  0.494489  -0.385270
    H   H38   0.704714  0.007736  0.353249  0.073796
    H   H39   0.826056  0.932103  0.509228  0.077991
    H   H40   0.698342  0.864473  0.534169  0.190560
