# generated using pymatgen
data_FeH8C18NO8
_symmetry_space_group_name_H-M   'P 1'
_cell_length_a   15.90766200
_cell_length_b   12.75564800
_cell_length_c   13.82088200
_cell_angle_alpha   68.67035600
_cell_angle_beta   97.49971700
_cell_angle_gamma   109.08963000
_symmetry_Int_Tables_number   1
_chemical_formula_structural   FeH8C18NO8
_chemical_formula_sum   'Fe2 H16 C36 N2 O16'
_cell_volume   2468.46537405
_cell_formula_units_Z   2
loop_
 _symmetry_equiv_pos_site_id
 _symmetry_equiv_pos_as_xyz
  1  'x, y, z'
loop_
 _atom_site_type_symbol
 _atom_site_label
 _atom_site_symmetry_multiplicity
 _atom_site_fract_x
 _atom_site_fract_y
 _atom_site_fract_z
 _atom_site_occupancy
  Fe  Fe1  1  0.50551100  0.02648800  0.77700300  1
  Fe  Fe2  1  0.49365900  0.97301000  0.22347700  1
  H  H1  1  0.07736600  0.97977700  0.82690800  1
  H  H2  1  0.82244000  0.99070100  0.88483100  1
  H  H3  1  0.77013800  0.01210600  0.21870400  1
  H  H4  1  0.91742400  0.01849100  0.17884000  1
  H  H5  1  0.45417700  0.46485700  0.68899200  1
  H  H6  1  0.47951300  0.58489000  0.40071200  1
  H  H7  1  0.53632700  0.41809500  0.60146600  1
  H  H8  1  0.56654600  0.53905900  0.31527500  1
  H  H9  1  0.51691500  0.89392800  0.53473200  1
  H  H10  1  0.45207400  0.57642300  0.79749500  1
  H  H11  1  0.48783200  0.10785900  0.46465000  1
  H  H12  1  0.56604400  0.42702100  0.20568300  1
  H  H13  1  0.16605100  0.96572100  0.72123200  1
  H  H14  1  0.25997300  0.07881900  0.71080700  1
  H  H15  1  0.15271700  0.07841400  0.13203800  1
  H  H16  1  0.12386800  0.92816600  0.18043400  1
  C  C1  1  0.21509300  0.99115500  0.85604000  1
  C  C2  1  0.13265900  0.98624000  0.88120100  1
  C  C3  1  0.12038900  0.99489400  0.97406300  1
  C  C4  1  0.18991400  0.00403600  0.04506500  1
  C  C5  1  0.27392900  0.00890000  0.02105400  1
  C  C6  1  0.28642500  0.00462900  0.92456200  1
  C  C7  1  0.03462200  0.99654700  0.99447600  1
  C  C8  1  0.96275600  0.99910700  0.01045200  1
  C  C9  1  0.80929600  0.99474700  0.95792800  1
  C  C10  1  0.72591800  0.99361700  0.97843400  1
  C  C11  1  0.71148900  0.99722700  0.07424900  1
  C  C12  1  0.78124800  0.00983400  0.14408900  1
  C  C13  1  0.86385900  0.01207100  0.12240400  1
  C  C14  1  0.87740800  0.00204600  0.03037900  1
  C  C15  1  0.48021400  0.19406600  0.60153000  1
  C  C16  1  0.37516400  0.02559300  0.88851500  1
  C  C17  1  0.65661400  0.99438900  0.89641600  1
  C  C18  1  0.48567900  0.81542700  0.73658500  1
  C  C19  1  0.52270700  0.18654500  0.26441400  1
  C  C20  1  0.34707200  0.01395400  0.09910200  1
  C  C21  1  0.62277800  0.97591800  0.10953300  1
  C  C22  1  0.52582900  0.80767300  0.39826400  1
  C  C23  1  0.50392400  0.79956700  0.56998900  1
  C  C24  1  0.50467600  0.73755900  0.50715200  1
  C  C25  1  0.48995400  0.61652200  0.54903800  1
  C  C26  1  0.46999700  0.55960600  0.65402000  1
  C  C27  1  0.46766900  0.62268400  0.71616400  1
  C  C28  1  0.48567800  0.74364900  0.67427000  1
  C  C29  1  0.49563200  0.55105500  0.48243200  1
  C  C30  1  0.52017900  0.45239300  0.51984100  1
  C  C31  1  0.50544200  0.26486900  0.49387300  1
  C  C32  1  0.50425700  0.20273800  0.43048100  1
  C  C33  1  0.52530400  0.25899300  0.32703000  1
  C  C34  1  0.54830100  0.38058700  0.28642700  1
  C  C35  1  0.54756500  0.44393800  0.34901400  1
  C  C36  1  0.52479900  0.38662600  0.45316200  1
  N  N1  1  0.22808500  0.99166000  0.75570100  1
  N  N2  1  0.17395200  0.00536100  0.14375000  1
  O  O1  1  0.54277500  0.18791200  0.67367300  1
  O  O2  1  0.43915800  0.12159500  0.88883600  1
  O  O3  1  0.40707100  0.10465200  0.61704900  1
  O  O4  1  0.38750400  0.95742100  0.84320700  1
  O  O5  1  0.58678700  0.02590600  0.90096500  1
  O  O6  1  0.66845800  0.97377600  0.81366400  1
  O  O7  1  0.50859500  0.93059500  0.69095800  1
  O  O8  1  0.46398300  0.76675700  0.83497100  1
  O  O9  1  0.48982400  0.07133900  0.30697900  1
  O  O10  1  0.55216400  0.23471600  0.16894200  1
  O  O11  1  0.41016600  0.96702600  0.10198600  1
  O  O12  1  0.34688300  0.05937100  0.17021600  1
  O  O13  1  0.59936500  0.89670500  0.37872600  1
  O  O14  1  0.61046200  0.04424100  0.15442100  1
  O  O15  1  0.46019000  0.81320700  0.33003100  1
  O  O16  1  0.55978800  0.87813100  0.11178300  1
