# generated using pymatgen
data_ZnH9C26NO4F3
_symmetry_space_group_name_H-M   'P 1'
_cell_length_a   8.51770500
_cell_length_b   13.02695100
_cell_length_c   17.46190000
_cell_angle_alpha   90.61484400
_cell_angle_beta   93.31884000
_cell_angle_gamma   86.47220400
_symmetry_Int_Tables_number   1
_chemical_formula_structural   ZnH9C26NO4F3
_chemical_formula_sum   'Zn2 H18 C52 N2 O8 F6'
_cell_volume   1930.60264058
_cell_formula_units_Z   2
loop_
 _symmetry_equiv_pos_site_id
 _symmetry_equiv_pos_as_xyz
  1  'x, y, z'
loop_
 _atom_site_type_symbol
 _atom_site_label
 _atom_site_symmetry_multiplicity
 _atom_site_fract_x
 _atom_site_fract_y
 _atom_site_fract_z
 _atom_site_occupancy
  Zn  Zn1  1  0.47782800  0.50751800  0.91399000  1
  Zn  Zn2  1  0.49632700  0.49427600  0.08481000  1
  H  H1  1  0.00354100  0.57223200  0.02807300  1
  H  H2  1  0.97038600  0.42956700  0.97077700  1
  H  H3  1  0.69318900  0.83150400  0.99301900  1
  H  H4  1  0.28092300  0.17032300  0.00568300  1
  H  H5  1  0.66969200  0.98416900  0.01834900  1
  H  H6  1  0.30448100  0.01759300  0.98049200  1
  H  H7  1  0.63777500  0.16429800  0.00829500  1
  H  H8  1  0.33634400  0.83741900  0.99050500  1
  H  H9  1  0.48035800  0.67165500  0.80863500  1
  H  H10  1  0.49467000  0.33004600  0.19078900  1
  H  H11  1  0.45014300  0.25691100  0.69025100  1
  H  H12  1  0.50514800  0.74643000  0.30739700  1
  H  H13  1  0.48762800  0.85146800  0.56139100  1
  H  H14  1  0.46203900  0.15207200  0.43597300  1
  H  H15  1  0.49400700  0.84342000  0.42373200  1
  H  H16  1  0.44688800  0.16078000  0.57325700  1
  H  H17  1  0.45541700  0.35223900  0.80673700  1
  H  H18  1  0.50648800  0.65027500  0.19130200  1
  C  C1  1  0.11394300  0.70922100  0.00843900  1
  C  C2  1  0.86008100  0.29251200  0.99032900  1
  C  C3  1  0.98611100  0.65342000  0.01849000  1
  C  C4  1  0.98788200  0.34837500  0.98033300  1
  C  C5  1  0.83699800  0.69838900  0.01044100  1
  C  C6  1  0.13703900  0.30345200  0.98837500  1
  C  C7  1  0.81362300  0.80262600  0.00158600  1
  C  C8  1  0.16047500  0.19919500  0.99716800  1
  C  C9  1  0.94176200  0.86397200  0.00245000  1
  C  C10  1  0.03236800  0.13780700  0.99631000  1
  C  C11  1  0.09233100  0.81558800  0.00153900  1
  C  C12  1  0.88177300  0.18615900  0.99722400  1
  C  C13  1  0.92188000  0.97179100  0.00203500  1
  C  C14  1  0.05227400  0.02998100  0.99673300  1
  C  C15  1  0.19969000  0.97898200  0.98995900  1
  C  C16  1  0.77446600  0.02277200  0.00883700  1
  C  C17  1  0.21938300  0.87366100  0.99389500  1
  C  C18  1  0.75474500  0.12807800  0.00488600  1
  C  C19  1  0.26962200  0.36857100  0.99232100  1
  C  C20  1  0.70438700  0.63332600  0.00650000  1
  C  C21  1  0.26531900  0.64914300  0.00448300  1
  C  C22  1  0.70862400  0.35250200  0.99428400  1
  C  C23  1  0.48400200  0.60094900  0.77593100  1
  C  C24  1  0.50811800  0.39983100  0.22367000  1
  C  C25  1  0.46323000  0.42266700  0.77545300  1
  C  C26  1  0.50877800  0.57942400  0.22305800  1
  C  C27  1  0.52609900  0.68882500  0.65716600  1
  C  C28  1  0.52818100  0.30832400  0.34501100  1
  C  C29  1  0.49885900  0.60006800  0.69692200  1
  C  C30  1  0.51716700  0.39948500  0.30353400  1
  C  C31  1  0.48687500  0.50824400  0.65730700  1
  C  C32  1  0.51142800  0.49250800  0.34232700  1
  C  C33  1  0.47001100  0.41933600  0.69703000  1
  C  C34  1  0.50942100  0.58253300  0.30174500  1
  C  C35  1  0.46321400  0.32658200  0.65877000  1
  C  C36  1  0.50712000  0.67587500  0.33955900  1
  C  C37  1  0.50330300  0.77675500  0.53473600  1
  C  C38  1  0.47979700  0.22485800  0.46418400  1
  C  C39  1  0.51322100  0.68688100  0.57711300  1
  C  C40  1  0.50465600  0.31265000  0.42341700  1
  C  C41  1  0.50553100  0.59370700  0.53848600  1
  C  C42  1  0.50142300  0.40650700  0.46154400  1
  C  C43  1  0.50127700  0.77270300  0.45592500  1
  C  C44  1  0.46575600  0.22992200  0.54225300  1
  C  C45  1  0.50689200  0.67932400  0.41835700  1
  C  C46  1  0.47437700  0.32247300  0.58046600  1
  C  C47  1  0.49590400  0.50430000  0.57872100  1
  C  C48  1  0.50873100  0.49606300  0.42120100  1
  C  C49  1  0.49046800  0.41113600  0.54018700  1
  C  C50  1  0.50712900  0.58966200  0.45940100  1
  C  C51  1  0.58866200  0.78015900  0.70009500  1
  C  C52  1  0.58354500  0.20874900  0.30769500  1
  N  N1  1  0.46873600  0.51273100  0.81351900  1
  N  N2  1  0.50604700  0.48904200  0.18528200  1
  O  O1  1  0.32633800  0.39626400  0.06031900  1
  O  O2  1  0.64773900  0.60554300  0.93857600  1
  O  O3  1  0.31659900  0.40352000  0.92803000  1
  O  O4  1  0.65737800  0.59835900  0.07071500  1
  O  O5  1  0.30803400  0.61666800  0.93660100  1
  O  O6  1  0.66591800  0.38504600  0.06209500  1
  O  O7  1  0.32848900  0.60926400  0.06874800  1
  O  O8  1  0.64538300  0.39237800  0.93009100  1
  F  F1  1  0.67989900  0.83573200  0.65470500  1
  F  F2  1  0.68689400  0.74745200  0.76200300  1
  F  F3  1  0.46495900  0.84283900  0.72527100  1
  F  F4  1  0.66849100  0.14549600  0.36024400  1
  F  F5  1  0.68529800  0.22698500  0.25118200  1
  F  F6  1  0.45570200  0.15924800  0.27641000  1
