# Generated by REPEAT Assigner based on pymatgen
data_DB0-m2_o9_o20_f0_pcu.sym.17_sqe
_audit_creation_date              2022-05-24
_audit_creation_method            REPEAT_Assigner
_cell_length_a                    10.923296
_cell_length_b                    10.904268
_cell_length_c                    13.011819
_cell_angle_alpha                 89.994203
_cell_angle_beta                  89.994193
_cell_angle_gamma                 90.000000
_cell_volume                      1549.844761
_symmetry_space_group_name_H-M    P1
_symmetry_Int_Tables_number       1
loop_
    _symmetry_equiv_pos_site_id
    _symmetry_equiv_pos_as_xyz
    1  x,y,z
loop_
    _atom_site_type_symbol
    _atom_site_label
    _atom_site_fract_x
    _atom_site_fract_y
    _atom_site_fract_z
    _atom_type_partial_charge
    O   O1   0.489279  0.320607  0.585529  -0.546664
    O   O2   0.510721  0.679394  0.414471  -0.546585
    O   O3   0.500444  0.323134  0.409548  -0.558089
    O   O4   0.499556  0.676867  0.590453  -0.558073
    C   C1   0.491926  0.263681  0.496707  0.627754
    C   C2   0.508074  0.736319  0.503293  0.627684
    O   O5   0.321035  0.508120  0.586629  -0.539199
    O   O6   0.678965  0.491880  0.413371  -0.539279
    O   O7   0.323289  0.502174  0.410513  -0.518402
    O   O8   0.676711  0.497827  0.589487  -0.518349
    C   C3   0.263895  0.507143  0.497994  0.758216
    C   C4   0.736105  0.492858  0.502006  0.758280
    Cu  Cu1  0.498547  0.498368  0.602549  0.858116
    Cu  Cu2  0.501453  0.501633  0.397453  0.858141
    C   C5   0.210682  0.759672  0.231301  0.289581
    C   C6   0.789318  0.240329  0.768699  0.289619
    C   C7   0.167020  0.708543  0.321102  -0.318708
    C   C8   0.832980  0.291458  0.678898  -0.318706
    H   H1   0.171722  0.759815  0.392101  0.168853
    H   H2   0.828278  0.240185  0.607900  0.168804
    C   C9   0.114405  0.593398  0.319650  0.091440
    C   C10  0.885595  0.406602  0.680350  0.091379
    C   C11  0.104987  0.530328  0.227963  -0.320347
    C   C12  0.895013  0.469673  0.772037  -0.320305
    H   H3   0.061598  0.441297  0.226038  0.175995
    H   H4   0.938402  0.558703  0.773962  0.176036
    C   C13  0.150230  0.580815  0.138594  0.288494
    C   C14  0.849770  0.419186  0.861407  0.288485
    C   C15  0.202875  0.695594  0.140232  0.070210
    C   C16  0.797125  0.304406  0.859768  0.070054
    C   C17  0.933198  0.535219  0.415598  0.247835
    C   C18  0.066802  0.464782  0.584402  0.247779
    C   C19  0.871751  0.493362  0.502042  -0.294079
    C   C20  0.128249  0.506638  0.497958  -0.293967
    C   C21  0.940554  0.457784  0.587095  0.081184
    C   C22  0.059446  0.542217  0.412906  0.081090
    C   C23  0.278066  0.209203  0.208210  -0.473704
    C   C24  0.721934  0.790797  0.791791  -0.473676
    H   H5   0.188674  0.250776  0.201498  0.229788
    H   H6   0.811326  0.749225  0.798502  0.229770
    C   C25  0.317643  0.165751  0.302014  0.424669
    C   C26  0.682357  0.834250  0.697986  0.424545
    C   C27  0.431517  0.111391  0.310528  -0.078513
    C   C28  0.568483  0.888609  0.689473  -0.078293
    C   C29  0.504100  0.098506  0.224306  -0.224379
    C   C30  0.495900  0.901495  0.775694  -0.224426
    H   H7   0.592324  0.054084  0.229996  0.164929
    H   H8   0.407676  0.945916  0.770005  0.164940
    C   C31  0.464613  0.142686  0.130724  0.158444
    C   C32  0.535387  0.857314  0.869276  0.158440
    C   C33  0.351679  0.198179  0.122685  0.331440
    C   C34  0.648321  0.801822  0.877315  0.331484
    C   C35  0.481612  0.932188  0.412802  -0.192615
    C   C36  0.518388  0.067813  0.587198  -0.192550
    H   H9   0.463094  0.880440  0.343833  0.156202
    H   H10  0.536906  0.119560  0.656168  0.156246
    C   C37  0.508681  0.871948  0.503491  -0.078730
    C   C38  0.491320  0.128053  0.496510  -0.078748
    C   C39  0.528886  0.941711  0.591566  0.162202
    C   C40  0.471114  0.058290  0.408435  0.162358
    N   N1   0.503426  0.504228  0.243762  -0.225167
    N   N2   0.496574  0.495772  0.756239  -0.225176
    C   C41  0.502561  0.503168  0.154834  0.285242
    C   C42  0.497439  0.496833  0.845167  0.285252
    C   C43  0.500855  0.501054  0.046302  0.009870
    C   C44  0.499145  0.498947  0.953698  0.009924
    F   F1   0.245424  0.746135  0.052083  -0.149136
    F   F2   0.754576  0.253866  0.947918  -0.149090
    F   F3   0.536342  0.130449  0.046415  -0.149165
    F   F4   0.463658  0.869551  0.953585  -0.149146
    F   F5   0.259388  0.873857  0.232106  -0.173336
    F   F6   0.740612  0.126143  0.767894  -0.173363
    F   F7   0.141322  0.518360  0.048886  -0.161506
    F   F8   0.858678  0.481641  0.951114  -0.161418
    F   F9   0.870122  0.577972  0.333326  -0.149421
    F   F10  0.129878  0.422028  0.666674  -0.149447
    F   F11  0.312378  0.240476  0.030494  -0.197672
    F   F12  0.687622  0.759524  0.969506  -0.197667
    F   F13  0.243279  0.173907  0.385119  -0.231865
    F   F14  0.756721  0.826093  0.614881  -0.231809
