# Generated by REPEAT Assigner based on pymatgen
data_DB0-m3_o3_o15_f0_pcu.sym.68
_audit_creation_date              2022-05-24
_audit_creation_method            REPEAT_Assigner
_cell_length_a                    19.445745
_cell_length_b                    18.327081
_cell_length_c                    11.038372
_cell_angle_alpha                 90.000000
_cell_angle_beta                  90.009962
_cell_angle_gamma                 90.000000
_cell_volume                      3933.896418
_symmetry_space_group_name_H-M    P1
_symmetry_Int_Tables_number       1
loop_
    _symmetry_equiv_pos_site_id
    _symmetry_equiv_pos_as_xyz
    1  x,y,z
loop_
    _atom_site_type_symbol
    _atom_site_label
    _atom_site_fract_x
    _atom_site_fract_y
    _atom_site_fract_z
    _atom_type_partial_charge
    O   O1   0.397688  0.563693  0.489504  -0.634210
    O   O2   0.602310  0.438211  0.508539  -0.517770
    O   O3   0.602312  0.563693  0.510495  -0.634209
    O   O4   0.397690  0.438211  0.491461  -0.517770
    C   C1   0.365555  0.500794  0.488214  0.543098
    C   C2   0.634444  0.500794  0.511786  0.543105
    O   O5   0.506269  0.563577  0.319732  -0.567463
    O   O6   0.494670  0.438646  0.680210  -0.610722
    O   O7   0.493731  0.563577  0.680268  -0.567463
    O   O8   0.505330  0.438646  0.319790  -0.610715
    C   C3   0.510414  0.500938  0.261213  0.693746
    C   C4   0.489585  0.500938  0.738787  0.693750
    Zn  Zn1  0.500000  0.583964  0.500000  1.031038
    Zn  Zn2  0.500000  0.418280  0.500000  0.953954
    H   H1   0.534959  0.252697  0.092668  0.073247
    H   H2   0.460753  0.746656  0.912606  0.067217
    H   H3   0.465035  0.252699  0.907330  0.073254
    H   H4   0.539252  0.746654  0.087397  0.067218
    C   C5   0.536125  0.630995  0.106049  -0.192347
    C   C6   0.466245  0.368662  0.891689  -0.129311
    C   C7   0.463878  0.630996  0.893952  -0.192339
    C   C8   0.533752  0.368661  0.108311  -0.129310
    C   C9   0.521231  0.695747  0.049462  0.005265
    C   C10  0.481007  0.303650  0.947862  -0.118748
    C   C11  0.478773  0.695748  0.950540  0.005272
    C   C12  0.518988  0.303650  0.052137  -0.118758
    C   C13  0.487662  0.565326  0.940942  0.141474
    C   C14  0.511771  0.434775  0.059576  0.134917
    C   C15  0.512340  0.565326  0.059059  0.141473
    C   C16  0.488228  0.434776  0.940423  0.134914
    C   C17  0.483409  0.500271  0.875260  -0.277689
    C   C18  0.516591  0.500270  0.124740  -0.277687
    H   H5   0.569160  0.633098  0.184436  0.090585
    H   H6   0.434457  0.366110  0.811832  0.105197
    H   H7   0.430843  0.633101  0.815565  0.090576
    H   H8   0.565539  0.366109  0.188168  0.105197
    C   C19  0.744290  0.455864  0.430120  -0.073854
    C   C20  0.253638  0.542529  0.409347  -0.139234
    C   C21  0.255709  0.455863  0.569878  -0.073830
    C   C22  0.746362  0.542528  0.590654  -0.139266
    H   H9   0.715956  0.422719  0.366308  0.131020
    H   H10  0.280484  0.575739  0.344350  0.129616
    H   H11  0.284044  0.422717  0.633689  0.131014
    H   H12  0.719515  0.575737  0.655653  0.129624
    C   C23  0.815211  0.456347  0.426471  -0.382719
    C   C24  0.182717  0.540570  0.408934  -0.377304
    C   C25  0.184789  0.456346  0.573527  -0.382753
    C   C26  0.817283  0.540568  0.591067  -0.377275
    H   H13  0.841289  0.424091  0.358589  0.173666
    H   H14  0.154992  0.572409  0.342533  0.159451
    H   H15  0.158711  0.424089  0.641407  0.173681
    H   H16  0.845007  0.572407  0.657469  0.159442
    C   C27  0.852438  0.498285  0.507634  0.698250
    C   C28  0.147562  0.498285  0.492365  0.698268
    C   C29  0.709655  0.499907  0.510948  0.014617
    C   C30  0.290345  0.499907  0.489051  0.014596
    C   C31  0.964306  0.564011  0.498846  0.257869
    C   C32  0.035549  0.433174  0.494794  0.280000
    C   C33  0.035693  0.564011  0.501156  0.257766
    C   C34  0.964451  0.433173  0.505203  0.280210
    C   C35  0.071636  0.498523  0.495886  -0.423326
    C   C36  0.928364  0.498523  0.504113  -0.423464
    C   C37  0.549878  0.731681  0.559887  0.413701
    C   C38  0.456284  0.271961  0.427204  0.337241
    C   C39  0.450122  0.731681  0.440112  0.413708
    C   C40  0.543715  0.271961  0.572798  0.337238
    C   C41  0.552227  0.807236  0.553393  -0.385488
    C   C42  0.456455  0.196551  0.425160  -0.274745
    C   C43  0.447773  0.807236  0.446606  -0.385492
    C   C44  0.543545  0.196551  0.574841  -0.274746
    H   H17  0.595081  0.837052  0.591416  0.143752
    H   H18  0.420654  0.168623  0.366445  0.125881
    H   H19  0.404918  0.837051  0.408581  0.143752
    H   H20  0.579345  0.168622  0.633556  0.125882
    C   C45  0.500000  0.845451  0.499999  0.246339
    C   C46  0.500000  0.157797  0.500000  0.131166
    N   N1   0.500000  0.693620  0.499999  -0.268461
    N   N2   0.500000  0.308948  0.500001  -0.167007
    C   C47  0.486224  0.963482  0.394865  -0.186326
    C   C48  0.513012  0.038721  0.605570  -0.176356
    C   C49  0.513776  0.963482  0.605134  -0.186325
    C   C50  0.486987  0.038721  0.394430  -0.176355
    H   H21  0.476659  0.934613  0.311146  0.150264
    H   H22  0.521291  0.066597  0.690523  0.128264
    H   H23  0.523340  0.934612  0.688853  0.150263
    H   H24  0.478709  0.066597  0.309477  0.128263
    C   C51  0.500000  0.077225  0.500000  0.170197
    C   C52  0.500000  0.925456  0.499999  0.143751
    N   N3   0.928171  0.630906  0.493590  -0.527621
    C   C53  0.908843  0.651012  0.380892  0.709741
    O   O9   0.908840  0.606486  0.298822  -0.561303
    C   C54  0.887773  0.727803  0.355455  -0.523264
    H   H25  0.944322  0.672689  0.548945  0.280554
    H   H26  0.889000  0.761021  0.439375  0.093664
    H   H27  0.834764  0.728109  0.318383  0.167038
    H   H28  0.923302  0.751888  0.287812  0.153547
    N   N4   0.071208  0.366353  0.482832  -0.575038
    C   C55  0.078378  0.344241  0.366843  0.746445
    O   O10  0.072915  0.388171  0.284453  -0.575921
    C   C56  0.091159  0.265826  0.338110  -0.575448
    H   H29  0.059103  0.325528  0.543105  0.302444
    H   H30  0.097824  0.233470  0.422168  0.107240
    H   H31  0.138305  0.261125  0.282366  0.191438
    H   H32  0.046971  0.243911  0.286037  0.156918
    N   N5   0.071828  0.630906  0.506413  -0.527619
    C   C57  0.091157  0.651011  0.619112  0.709733
    O   O11  0.091159  0.606484  0.701181  -0.561300
    C   C58  0.112227  0.727802  0.644551  -0.523260
    H   H33  0.055678  0.672690  0.451060  0.280556
    H   H34  0.110999  0.761020  0.560632  0.093662
    H   H35  0.165235  0.728107  0.681623  0.167043
    H   H36  0.076697  0.751886  0.712195  0.153548
    N   N6   0.928792  0.366353  0.517163  -0.575035
    C   C59  0.921621  0.344239  0.633151  0.746431
    O   O12  0.927084  0.388169  0.715543  -0.575911
    C   C60  0.908840  0.265824  0.661881  -0.575487
    H   H37  0.940897  0.325528  0.456888  0.302427
    H   H38  0.902176  0.233469  0.577822  0.107265
    H   H39  0.861693  0.261123  0.717624  0.191442
    H   H40  0.953027  0.243908  0.713955  0.156928
    N   N7   0.602920  0.695112  0.623347  -0.379688
    C   C61  0.618997  0.724189  0.732490  0.634797
    O   O13  0.576996  0.760327  0.788110  -0.516853
    C   C62  0.688494  0.712872  0.786178  -0.393279
    H   H41  0.645660  0.682896  0.572371  0.239192
    H   H42  0.695090  0.654775  0.811093  0.121859
    H   H43  0.693185  0.746407  0.869397  0.109131
    H   H44  0.728777  0.729666  0.720741  0.091581
    N   N8   0.411705  0.310008  0.348768  -0.426553
    C   C63  0.344425  0.298857  0.372457  0.742331
    O   O14  0.326243  0.280196  0.473545  -0.590118
    C   C64  0.291728  0.310524  0.276136  -0.564385
    H   H45  0.423838  0.306778  0.258329  0.260137
    H   H46  0.315782  0.331557  0.192035  0.110256
    H   H47  0.253189  0.350641  0.308462  0.202515
    H   H48  0.265821  0.257981  0.256328  0.137442
    N   N9   0.397080  0.695112  0.376651  -0.379689
    C   C65  0.381004  0.724188  0.267507  0.634796
    O   O15  0.423006  0.760326  0.211888  -0.516856
    C   C66  0.311508  0.712871  0.213818  -0.393278
    H   H49  0.354341  0.682896  0.427629  0.239192
    H   H50  0.304912  0.654773  0.188904  0.121859
    H   H51  0.306817  0.746404  0.130598  0.109131
    H   H52  0.271224  0.729666  0.279252  0.091583
    N   N10  0.588294  0.310008  0.651233  -0.426546
    C   C67  0.655575  0.298857  0.627546  0.742331
    O   O16  0.673757  0.280196  0.526459  -0.590114
    C   C68  0.708270  0.310524  0.723868  -0.564388
    H   H53  0.576160  0.306778  0.741672  0.260131
    H   H54  0.684216  0.331557  0.807968  0.110266
    H   H55  0.746810  0.350641  0.691542  0.202506
    H   H56  0.734178  0.257982  0.743677  0.137444
