# generated using pymatgen
data_CuH16C29NO6
_symmetry_space_group_name_H-M   'P 1'
_cell_length_a   10.86449300
_cell_length_b   14.45276500
_cell_length_c   15.10926900
_cell_angle_alpha   65.04067300
_cell_angle_beta   103.21833500
_cell_angle_gamma   103.83240700
_symmetry_Int_Tables_number   1
_chemical_formula_structural   CuH16C29NO6
_chemical_formula_sum   'Cu2 H32 C58 N2 O12'
_cell_volume   2066.41898204
_cell_formula_units_Z   2
loop_
 _symmetry_equiv_pos_site_id
 _symmetry_equiv_pos_as_xyz
  1  'x, y, z'
loop_
 _atom_site_type_symbol
 _atom_site_label
 _atom_site_symmetry_multiplicity
 _atom_site_fract_x
 _atom_site_fract_y
 _atom_site_fract_z
 _atom_site_occupancy
  Cu  Cu1  1  0.46608900  0.91705000  0.47619600  1
  Cu  Cu2  1  0.53648900  0.08232900  0.52407300  1
  H  H1  1  0.42659800  0.18771300  0.80437200  1
  H  H2  1  0.59033800  0.81716900  0.18521500  1
  H  H3  1  0.39105900  0.00211000  0.83822400  1
  H  H4  1  0.61424100  0.99971000  0.16044100  1
  H  H5  1  0.23494400  0.93354800  0.72581900  1
  H  H6  1  0.76238400  0.06499300  0.27773300  1
  H  H7  1  0.14728300  0.23625600  0.54700300  1
  H  H8  1  0.86375000  0.76450400  0.44611200  1
  H  H9  1  0.30357200  0.30440600  0.65961100  1
  H  H10  1  0.71533900  0.69975700  0.32842100  1
  H  H11  1  0.93521300  0.08258000  0.58964200  1
  H  H12  1  0.06744900  0.91607200  0.41086600  1
  H  H13  1  0.45295100  0.67935400  0.76383100  1
  H  H14  1  0.55986900  0.31562000  0.23470900  1
  H  H15  1  0.67025600  0.93049300  0.83398800  1
  H  H16  1  0.30263400  0.07329200  0.17499400  1
  H  H17  1  0.23316900  0.18900000  0.01348000  1
  H  H18  1  0.72804200  0.81664000  0.99992900  1
  H  H19  1  0.33051400  0.54493600  0.82760200  1
  H  H20  1  0.66775500  0.45694800  0.17392400  1
  H  H21  1  0.77033000  0.46183500  0.68949000  1
  H  H22  1  0.23763900  0.53918800  0.30701400  1
  H  H23  1  0.55971700  0.72517700  0.54267900  1
  H  H24  1  0.44149000  0.27426600  0.45839600  1
  H  H25  1  0.26454400  0.85508300  0.32803300  1
  H  H26  1  0.74114000  0.14578600  0.66781000  1
  H  H27  1  0.80117400  0.29569800  0.71285800  1
  H  H28  1  0.20636300  0.70480100  0.28310100  1
  H  H29  1  0.66059100  0.60479900  0.61115100  1
  H  H30  1  0.34589800  0.39719600  0.38586100  1
  H  H31  1  0.13684000  0.26984100  0.79022100  1
  H  H32  1  0.95599900  0.72009000  0.15274100  1
  C  C1  1  0.46900200  0.11990200  0.31653900  1
  C  C2  1  0.53319800  0.87951000  0.68387200  1
  C  C3  1  0.26618900  0.99427200  0.51010700  1
  C  C4  1  0.73669400  0.00467000  0.49060600  1
  C  C5  1  0.33771100  0.05348100  0.77402900  1
  C  C6  1  0.66850100  0.94791100  0.22352400  1
  C  C7  1  0.25023400  0.01518800  0.71081600  1
  C  C8  1  0.75140200  0.98437300  0.28986800  1
  C  C9  1  0.18248200  0.08102800  0.62854000  1
  C  C10  1  0.82091600  0.91837800  0.37076600  1
  C  C11  1  0.20040400  0.18465600  0.61114500  1
  C  C12  1  0.80895200  0.81641000  0.38353300  1
  C  C13  1  0.28857200  0.22295200  0.67399300  1
  C  C14  1  0.72548800  0.77994200  0.31740700  1
  C  C15  1  0.35748200  0.15748000  0.75522200  1
  C  C16  1  0.65525400  0.84564900  0.23739200  1
  C  C17  1  0.96407200  0.04772400  0.54848200  1
  C  C18  1  0.03852700  0.95063400  0.45223400  1
  C  C19  1  0.87229000  0.00470200  0.49069100  1
  C  C20  1  0.13032800  0.99381000  0.50993400  1
  C  C21  1  0.91057400  0.95693600  0.44085300  1
  C  C22  1  0.09195200  0.04141000  0.55974200  1
  C  C23  1  0.43983100  0.18882500  0.21293000  1
  C  C24  1  0.55721700  0.81059500  0.78847200  1
  C  C25  1  0.31082200  0.22039000  0.05659900  1
  C  C26  1  0.66763500  0.78260400  0.95048400  1
  C  C27  1  0.34969500  0.15297200  0.15001600  1
  C  C28  1  0.63216500  0.84905500  0.85571600  1
  C  C29  1  0.49427500  0.29201500  0.18047300  1
  C  C30  1  0.50826000  0.70610300  0.81957500  1
  C  C31  1  0.46222800  0.36102400  0.08351100  1
  C  C32  1  0.53549900  0.63843000  0.91780100  1
  C  C33  1  0.36663100  0.32411400  0.02201800  1
  C  C34  1  0.62560300  0.67671300  0.98059700  1
  C  C35  1  0.51987400  0.46618500  0.04820900  1
  C  C36  1  0.47761000  0.53359200  0.95360100  1
  C  C37  1  0.37473700  0.49575700  0.89769000  1
  C  C38  1  0.62096000  0.50529300  0.10473600  1
  C  C39  1  0.32245200  0.39270500  0.92905600  1
  C  C40  1  0.67192700  0.60876600  0.07287500  1
  C  C41  1  0.72033200  0.29356300  0.65639900  1
  C  C42  1  0.28411600  0.70644000  0.34209100  1
  C  C43  1  0.68656000  0.20882100  0.63162500  1
  C  C44  1  0.31700500  0.79102200  0.36718600  1
  C  C45  1  0.51938400  0.28381000  0.51344800  1
  C  C46  1  0.48268300  0.71559100  0.48706700  1
  C  C47  1  0.55081200  0.37241500  0.53504300  1
  C  C48  1  0.45283600  0.62761700  0.46449600  1
  C  C49  1  0.65308100  0.37540600  0.60797800  1
  C  C50  1  0.35156200  0.62493100  0.39079000  1
  C  C51  1  0.48421300  0.45755400  0.48602400  1
  C  C52  1  0.52104000  0.54341000  0.51233600  1
  C  C53  1  0.62498000  0.54262600  0.58626600  1
  C  C54  1  0.38133700  0.45887100  0.41130700  1
  C  C55  1  0.68960300  0.45992000  0.63277500  1
  C  C56  1  0.31702100  0.54140500  0.36457000  1
  C  C57  1  0.21610800  0.36186700  0.86166900  1
  C  C58  1  0.78182500  0.64097600  0.13719400  1
  N  N1  1  0.58831900  0.20582600  0.56021400  1
  N  N2  1  0.41382900  0.79350000  0.44008500  1
  O  O1  1  0.44258900  0.01944900  0.34088400  1
  O  O2  1  0.55941200  0.98001800  0.65931300  1
  O  O3  1  0.51240600  0.16154500  0.38175500  1
  O  O4  1  0.49082300  0.83794500  0.61842300  1
  O  O5  1  0.29425700  0.92279200  0.48993400  1
  O  O6  1  0.70875200  0.07637300  0.51081800  1
  O  O7  1  0.35322900  0.06915900  0.52386200  1
  O  O8  1  0.64946100  0.93028800  0.47594700  1
  O  O9  1  0.13303100  0.41583100  0.81832700  1
  O  O10  1  0.21521000  0.27763300  0.83935400  1
  O  O11  1  0.78488600  0.60042800  0.22650300  1
  O  O12  1  0.88848200  0.70920300  0.09800900  1
