data_DB0-m3_o11_o29_f0_pcu.sym.67_repeat
_audit_creation_date              2024-02-23
_audit_creation_method            'Materials Studio'
_symmetry_space_group_name_H-M    'P1'
_symmetry_Int_Tables_number       1
_symmetry_cell_setting            triclinic
loop_
_symmetry_equiv_pos_as_xyz
  x,y,z
_cell_length_a                    27.6441
_cell_length_b                    11.1351
_cell_length_c                    9.9055
_cell_angle_alpha                 89.9974
_cell_angle_beta                  89.9930
_cell_angle_gamma                 89.9936
loop_
_atom_site_label
_atom_site_type_symbol
_atom_site_fract_x
_atom_site_fract_y
_atom_site_fract_z
_atom_site_U_iso_or_equiv
_atom_site_adp_type
_atom_site_occupancy
O1     O     0.50059   0.32123   0.60360   0.00000  Uiso   1.00
O2     O     0.49844   0.32176   0.37110   0.00000  Uiso   1.00
C1     C     0.49965   0.26544   0.48754   0.00000  Uiso   1.00
O3     O     0.42744   0.49735   0.61433   0.00000  Uiso   1.00
O4     O     0.42537   0.49883   0.38189   0.00000  Uiso   1.00
C2     C     0.40373   0.49734   0.49960   0.00000  Uiso   1.00
Zn1    Zn    0.49994   0.49931   0.64448   0.00000  Uiso   1.00
Zn2    Zn    0.49688   0.50135   0.33743   0.00000  Uiso   1.00
O5     O     0.49869   0.67877   0.61112   0.00000  Uiso   1.00
O6     O     0.49687   0.67978   0.37769   0.00000  Uiso   1.00
O7     O     0.57149   0.50224   0.60040   0.00000  Uiso   1.00
O8     O     0.56941   0.50291   0.36721   0.00000  Uiso   1.00
C3     C     0.49740   0.73521   0.49475   0.00000  Uiso   1.00
C4     C     0.59308   0.50325   0.48231   0.00000  Uiso   1.00
C5     C     0.17446   0.40557   0.44222   0.00000  Uiso   1.00
O9     O     0.19915   0.31535   0.38409   0.00000  Uiso   1.00
N1     N     0.19868   0.49391   0.50606   0.00000  Uiso   1.00
C6     C     0.17439   0.58332   0.56780   0.00000  Uiso   1.00
C7     C     0.27505   0.49763   0.38424   0.00000  Uiso   1.00
C8     C     0.32488   0.49850   0.38258   0.00000  Uiso   1.00
C9     C     0.32590   0.49270   0.62356   0.00000  Uiso   1.00
C10    C     0.27597   0.49186   0.62492   0.00000  Uiso   1.00
C11    C     0.25034   0.49425   0.50524   0.00000  Uiso   1.00
C12    C     0.09892   0.49710   0.49978   0.00000  Uiso   1.00
C13    C     0.12441   0.40612   0.43843   0.00000  Uiso   1.00
C14    C     0.09982   0.31669   0.37203   0.00000  Uiso   1.00
C15    C     0.12433   0.58592   0.56538   0.00000  Uiso   1.00
C16    C     0.35065   0.49606   0.50224   0.00000  Uiso   1.00
H1     H     0.34512   0.49046   0.71851   0.00000  Uiso   1.00
H2     H     0.25705   0.48810   0.72035   0.00000  Uiso   1.00
H3     H     0.11880   0.24532   0.32051   0.00000  Uiso   1.00
C17    C     0.64615   0.50504   0.47961   0.00000  Uiso   1.00
C18    C     0.97291   0.40574   0.43611   0.00000  Uiso   1.00
C19    C     0.97331   0.60088   0.54039   0.00000  Uiso   1.00
C20    C     0.94809   0.50465   0.48653   0.00000  Uiso   1.00
C21    C     0.94621   0.30786   0.39034   0.00000  Uiso   1.00
C22    C     0.89666   0.31080   0.38861   0.00000  Uiso   1.00
C23    C     0.87223   0.41083   0.43272   0.00000  Uiso   1.00
C24    C     0.89773   0.50770   0.48216   0.00000  Uiso   1.00
C25    C     0.87232   0.60689   0.52748   0.00000  Uiso   1.00
C26    C     0.82187   0.60573   0.52339   0.00000  Uiso   1.00
N2     N     0.79803   0.50926   0.47552   0.00000  Uiso   1.00
C27    C     0.82228   0.41277   0.43003   0.00000  Uiso   1.00
C28    C     0.72085   0.50006   0.35704   0.00000  Uiso   1.00
C29    C     0.67092   0.49896   0.35842   0.00000  Uiso   1.00
C30    C     0.67190   0.51263   0.59906   0.00000  Uiso   1.00
C31    C     0.72173   0.51453   0.59727   0.00000  Uiso   1.00
C32    C     0.74641   0.50822   0.47643   0.00000  Uiso   1.00
O10    O     0.79757   0.31677   0.38530   0.00000  Uiso   1.00
C33    C     0.02360   0.40642   0.43339   0.00000  Uiso   1.00
C34    C     0.04861   0.49941   0.49530   0.00000  Uiso   1.00
C35    C     0.02372   0.59480   0.55268   0.00000  Uiso   1.00
C36    C     0.05018   0.31663   0.36918   0.00000  Uiso   1.00
H4     H     0.65172   0.49287   0.26366   0.00000  Uiso   1.00
H5     H     0.73986   0.49571   0.26177   0.00000  Uiso   1.00
H6     H     0.87758   0.23258   0.35219   0.00000  Uiso   1.00
H7     H     0.96211   0.22457   0.35827   0.00000  Uiso   1.00
H8     H     0.03411   0.24561   0.31109   0.00000  Uiso   1.00
O11    O     0.19904   0.67227   0.62840   0.00000  Uiso   1.00
C37    C     0.09959   0.67673   0.62904   0.00000  Uiso   1.00
H9     H     0.34318   0.50161   0.28625   0.00000  Uiso   1.00
H10    H     0.25543   0.50109   0.28991   0.00000  Uiso   1.00
H11    H     0.11841   0.74586   0.68470   0.00000  Uiso   1.00
C38    C     0.94755   0.70267   0.57838   0.00000  Uiso   1.00
C39    C     0.89765   0.70546   0.57563   0.00000  Uiso   1.00
O12    O     0.79600   0.70077   0.56562   0.00000  Uiso   1.00
C40    C     0.05001   0.68098   0.62361   0.00000  Uiso   1.00
H12    H     0.96554   0.78545   0.60233   0.00000  Uiso   1.00
H13    H     0.65359   0.51742   0.69528   0.00000  Uiso   1.00
H14    H     0.74141   0.51966   0.69140   0.00000  Uiso   1.00
H15    H     0.03348   0.75194   0.68103   0.00000  Uiso   1.00
C41    C     0.49755   0.93258   0.38451   0.00000  Uiso   1.00
C42    C     0.49692   0.86681   0.49796   0.00000  Uiso   1.00
H16    H     0.49790   0.88736   0.28768   0.00000  Uiso   1.00
H17    H     0.49584   0.90724   0.59687   0.00000  Uiso   1.00
C43    C     0.49727   0.06569   0.38179   0.00000  Uiso   1.00
C44    C     0.50047   0.13399   0.49251   0.00000  Uiso   1.00
H18    H     0.49461   0.10860   0.28390   0.00000  Uiso   1.00
H19    H     0.50381   0.09540   0.59193   0.00000  Uiso   1.00
C45    C     0.51867   0.58407   0.91829   0.00000  Uiso   1.00
N3     N     0.50295   0.49648   0.84622   0.00000  Uiso   1.00
H20    H     0.53136   0.66516   0.86929   0.00000  Uiso   1.00
H21    H     0.49709   0.41644   0.89505   0.00000  Uiso   1.00
C46    C     0.52255   0.57441   0.06692   0.00000  Uiso   1.00
N4     N     0.49459   0.50533   0.13565   0.00000  Uiso   1.00
H22    H     0.54841   0.63084   0.11924   0.00000  Uiso   1.00
H23    H     0.46642   0.46549   0.08502   0.00000  Uiso   1.00
O13    O     0.87399   0.80627   0.61300   0.00000  Uiso   1.00
C47    C     0.88693   0.87612   0.71859   0.00000  Uiso   1.00
O14    O     0.91428   0.83838   0.80541   0.00000  Uiso   1.00
C48    C     0.86444   0.99676   0.73490   0.00000  Uiso   1.00
H24    H     0.83962   0.01421   0.64916   0.00000  Uiso   1.00
H25    H     0.89314   0.06633   0.73680   0.00000  Uiso   1.00
H26    H     0.84381   0.99960   0.83087   0.00000  Uiso   1.00
