# generated using pymatgen
data_Zn3H36(C13O3)4
_symmetry_space_group_name_H-M   'P 1'
_cell_length_a   21.84101600
_cell_length_b   21.89780800
_cell_length_c   22.20044900
_cell_angle_alpha   119.53630400
_cell_angle_beta   119.45578400
_cell_angle_gamma   90.01196900
_symmetry_Int_Tables_number   1
_chemical_formula_structural   Zn3H36(C13O3)4
_chemical_formula_sum   'Zn6 H72 C104 O24'
_cell_volume   7620.12111895
_cell_formula_units_Z   2
loop_
 _symmetry_equiv_pos_site_id
 _symmetry_equiv_pos_as_xyz
  1  'x, y, z'
loop_
 _atom_site_type_symbol
 _atom_site_label
 _atom_site_symmetry_multiplicity
 _atom_site_fract_x
 _atom_site_fract_y
 _atom_site_fract_z
 _atom_site_occupancy
  Zn  Zn1  1  0.43502800  0.00594200  0.50337500  1
  Zn  Zn2  1  0.57323300  0.00223500  0.50221800  1
  Zn  Zn3  1  0.00357100  0.57611600  0.50712400  1
  Zn  Zn4  1  0.00111600  0.43356100  0.49829600  1
  Zn  Zn5  1  0.54308900  0.54738100  0.59827500  1
  Zn  Zn6  1  0.46296300  0.46247500  0.41021400  1
  H  H1  1  0.83754800  0.74598300  0.77121200  1
  H  H2  1  0.17443100  0.25893900  0.24530600  1
  H  H3  1  0.72243500  0.64797200  0.65768200  1
  H  H4  1  0.28792200  0.35990600  0.35747400  1
  H  H5  1  0.73379500  0.38538700  0.07718200  1
  H  H6  1  0.25849600  0.61710800  0.92682200  1
  H  H7  1  0.68671300  0.32392400  0.93833700  1
  H  H8  1  0.30560700  0.68145100  0.06599100  1
  H  H9  1  0.81945900  0.21748100  0.94460100  1
  H  H10  1  0.19237800  0.80798600  0.06172400  1
  H  H11  1  0.79292800  0.28870400  0.92788300  1
  H  H12  1  0.20590400  0.73474300  0.07823200  1
  H  H13  1  0.83648000  0.37369000  0.06383300  1
  H  H14  1  0.15906400  0.64612600  0.94210300  1
  H  H15  1  0.65704100  0.15492400  0.93524000  1
  H  H16  1  0.36120700  0.84450000  0.06997700  1
  H  H17  1  0.73307100  0.12989600  0.92788000  1
  H  H18  1  0.29023500  0.88229600  0.07872800  1
  H  H19  1  0.73619600  0.21555300  0.07537500  1
  H  H20  1  0.28264000  0.78617800  0.93003000  1
  H  H21  1  0.62007800  0.25853900  0.92193500  1
  H  H22  1  0.38015400  0.73707700  0.08197600  1
  H  H23  1  0.68204200  0.30861600  0.06140400  1
  H  H24  1  0.32036100  0.68637400  0.94266800  1
  H  H25  1  0.81458100  0.20400700  0.06909900  1
  H  H26  1  0.20722700  0.81065300  0.93764900  1
  H  H27  1  0.39343700  0.06091200  0.34758100  1
  H  H28  1  0.62105100  0.94582300  0.65589300  1
  H  H29  1  0.28673900  0.05490300  0.23311400  1
  H  H30  1  0.73010300  0.94884100  0.76587000  1
  H  H31  1  0.27127900  0.16786500  0.23813200  1
  H  H32  1  0.74259700  0.83499400  0.75982300  1
  H  H33  1  0.36354500  0.28560600  0.35578600  1
  H  H34  1  0.64485600  0.71946800  0.64584200  1
  H  H35  1  0.59798900  0.36606000  0.61060000  1
  H  H36  1  0.40416100  0.64561600  0.40535000  1
  H  H37  1  0.65085900  0.40762500  0.41184500  1
  H  H38  1  0.35320100  0.60428400  0.59297400  1
  H  H39  1  0.76090300  0.40560400  0.41004100  1
  H  H40  1  0.24215900  0.60626100  0.59306900  1
  H  H41  1  0.94810000  0.62875900  0.66333400  1
  H  H42  1  0.05877900  0.37803400  0.34400900  1
  H  H43  1  0.95119500  0.73621200  0.77536400  1
  H  H44  1  0.05905000  0.26829100  0.23720900  1
  H  H45  1  0.67487700  0.29094000  0.65119900  1
  H  H46  1  0.62856100  0.21105800  0.63333100  1
  H  H47  1  0.71335600  0.40092300  0.77730700  1
  H  H48  1  0.70386000  0.47571700  0.89652500  1
  H  H49  1  0.60331300  0.42751100  0.89804900  1
  H  H50  1  0.51200300  0.30380800  0.77967300  1
  H  H51  1  0.52092600  0.22845900  0.65994500  1
  H  H52  1  0.40261200  0.78232600  0.35567700  1
  H  H53  1  0.34757800  0.78343600  0.39542700  1
  H  H54  1  0.41855400  0.65787300  0.27401300  1
  H  H55  1  0.34188000  0.53123800  0.14919300  1
  H  H56  1  0.21616400  0.47918000  0.10508000  1
  H  H57  1  0.16704200  0.55413400  0.18572300  1
  H  H58  1  0.24303000  0.68048700  0.31028500  1
  H  H59  1  0.91396800  0.26220400  0.08793100  1
  H  H60  1  0.94491000  0.35964300  0.16658600  1
  H  H61  1  0.96574200  0.22568500  0.01143100  1
  H  H62  1  0.03531100  0.25470800  0.96468400  1
  H  H63  1  0.06495800  0.37895000  0.99483000  1
  H  H64  1  0.02505500  0.47458400  0.07263500  1
  H  H65  1  0.95616800  0.44657200  0.12067600  1
  H  H66  1  0.06035500  0.66709000  0.84006300  1
  H  H67  1  0.10098100  0.76549700  0.91683700  1
  H  H68  1  0.05158300  0.81875400  0.99442900  1
  H  H69  1  0.97788900  0.80854500  0.04570200  1
  H  H70  1  0.93323100  0.69012800  0.02095100  1
  H  H71  1  0.96180200  0.58123000  0.94350500  1
  H  H72  1  0.03492800  0.59048100  0.89114000  1
  C  C1  1  0.50469700  0.11958300  0.49524800  1
  C  C2  1  0.50385300  0.88888100  0.51098200  1
  C  C3  1  0.58788900  0.09175900  0.66666667  1
  C  C4  1  0.42034900  0.91658100  0.33895100  1
  C  C5  1  0.77014800  0.63983100  0.65611500  1
  C  C6  1  0.23919600  0.36764200  0.35689000  1
  C  C7  1  0.70069200  0.45485400  0.46245900  1
  C  C8  1  0.30402200  0.55619900  0.54344300  1
  C  C9  1  0.70110800  0.51554700  0.52634200  1
  C  C10  1  0.30499700  0.49435500  0.48192900  1
  C  C11  1  0.83029100  0.57299000  0.59127900  1
  C  C12  1  0.17629000  0.43550000  0.41697700  1
  C  C13  1  0.68001900  0.28424300  0.95357800  1
  C  C14  1  0.31928200  0.71857500  0.05087200  1
  C  C15  1  0.79286500  0.26104800  0.95837500  1
  C  C16  1  0.21242400  0.75939600  0.04763000  1
  C  C17  1  0.83414000  0.31818300  0.05238500  1
  C  C18  1  0.16902000  0.70159100  0.95359800  1
  C  C19  1  0.86690200  0.38543600  0.24933100  1
  C  C20  1  0.13826400  0.62434700  0.75605200  1
  C  C21  1  0.71374300  0.22494200  0.92376400  1
  C  C22  1  0.29364200  0.78514100  0.08169200  1
  C  C23  1  0.71928300  0.32477100  0.04767300  1
  C  C24  1  0.28037700  0.67726400  0.95674000  1
  C  C25  1  0.78896100  0.30421300  0.08218800  1
  C  C26  1  0.21739400  0.70602600  0.92323900  1
  C  C27  1  0.76572200  0.22305200  0.04951600  1
  C  C28  1  0.25092500  0.78545400  0.95636700  1
  C  C29  1  0.71399200  0.17692200  0.95481300  1
  C  C30  1  0.30309400  0.83039300  0.05102100  1
  C  C31  1  0.83097100  0.34933600  0.17382000  1
  C  C32  1  0.17470300  0.66067600  0.83157900  1
  C  C33  1  0.66977900  0.17859000  0.83207300  1
  C  C34  1  0.33808800  0.83111200  0.17341200  1
  C  C35  1  0.63282000  0.13934000  0.75652800  1
  C  C36  1  0.37531000  0.86975300  0.24898800  1
  C  C37  1  0.38983000  0.11231100  0.35300400  1
  C  C38  1  0.62344900  0.89415300  0.65011500  1
  C  C39  1  0.32875000  0.10790500  0.28664000  1
  C  C40  1  0.68587900  0.89685400  0.71393900  1
  C  C41  1  0.32035900  0.17095800  0.28921600  1
  C  C42  1  0.69266300  0.83332600  0.71081000  1
  C  C43  1  0.37444500  0.23815700  0.35652800  1
  C  C44  1  0.63571100  0.76755300  0.64575200  1
  C  C45  1  0.43838500  0.24352500  0.42275700  1
  C  C46  1  0.57070000  0.76421500  0.58242000  1
  C  C47  1  0.44411600  0.18022100  0.42275100  1
  C  C48  1  0.56634200  0.82751300  0.58238500  1
  C  C49  1  0.50366200  0.18473700  0.49182000  1
  C  C50  1  0.50524300  0.82410700  0.51527500  1
  C  C51  1  0.55849300  0.25254900  0.56010600  1
  C  C52  1  0.44734700  0.75801600  0.44935000  1
  C  C53  1  0.55385200  0.31420500  0.55801400  1
  C  C54  1  0.45011400  0.69656500  0.45279100  1
  C  C55  1  0.49523600  0.31097400  0.49038300  1
  C  C56  1  0.51098200  0.69861000  0.51784900  1
  C  C57  1  0.76313300  0.45303400  0.46175000  1
  C  C58  1  0.24100600  0.55792500  0.54302300  1
  C  C59  1  0.82734000  0.51223900  0.52444200  1
  C  C60  1  0.17768000  0.49753600  0.48149200  1
  C  C61  1  0.88995600  0.50991500  0.51627500  1
  C  C62  1  0.11473700  0.49974000  0.48912600  1
  C  C63  1  0.91207400  0.42721100  0.33918200  1
  C  C64  1  0.09265000  0.58247300  0.66621900  1
  C  C65  1  0.63017500  0.51261300  0.51909100  1
  C  C66  1  0.37595200  0.49733400  0.48943700  1
  C  C67  1  0.49703700  0.38058500  0.49497700  1
  C  C68  1  0.50886400  0.62917200  0.51342300  1
  C  C69  1  0.76676600  0.57577100  0.59171500  1
  C  C70  1  0.24049500  0.43283900  0.41806000  1
  C  C71  1  0.89664100  0.63051300  0.65858800  1
  C  C72  1  0.11092100  0.37649300  0.35044400  1
  C  C73  1  0.89931600  0.69179700  0.72335400  1
  C  C74  1  0.11016100  0.31389800  0.28856000  1
  C  C75  1  0.83586100  0.69702100  0.72125000  1
  C  C76  1  0.17455600  0.30889900  0.29280100  1
  C  C77  1  0.62333300  0.26314700  0.63821500  1
  C  C78  1  0.61721300  0.30992400  0.71028100  1
  C  C79  1  0.66875100  0.37923900  0.77710900  1
  C  C80  1  0.66354400  0.42146600  0.84432000  1
  C  C81  1  0.60716000  0.39448500  0.84516600  1
  C  C82  1  0.55595100  0.32518300  0.77878900  1
  C  C83  1  0.56092300  0.28297600  0.71142100  1
  C  C84  1  0.38251600  0.75443900  0.37585500  1
  C  C85  1  0.33614000  0.67717000  0.30073800  1
  C  C86  1  0.36336600  0.63518000  0.25489400  1
  C  C87  1  0.32035000  0.56409500  0.18478800  1
  C  C88  1  0.24988500  0.53492900  0.16002800  1
  C  C89  1  0.22233300  0.57695700  0.20522800  1
  C  C90  1  0.26521400  0.64809400  0.27530400  1
  C  C91  1  0.91389700  0.31702900  0.09817400  1
  C  C92  1  0.95500000  0.33384500  0.06788100  1
  C  C93  1  0.97825700  0.28047100  0.02495400  1
  C  C94  1  0.01746400  0.29665600  0.99854200  1
  C  C95  1  0.03408200  0.36627000  0.01540600  1
  C  C96  1  0.01167400  0.41984500  0.05895900  1
  C  C97  1  0.97252000  0.40381800  0.08548500  1
  C  C98  1  0.09353500  0.71115500  0.90821100  1
  C  C99  1  0.04949300  0.70558500  0.94072200  1
  C  C100  1  0.03234800  0.76637200  0.98315200  1
  C  C101  1  0.99085600  0.76080100  0.01212800  1
  C  C102  1  0.96581700  0.69444000  0.99826800  1
  C  C103  1  0.98192800  0.63345400  0.95497800  1
  C  C104  1  0.02341400  0.63889000  0.92595600  1
  O  O1  1  0.45152700  0.09217000  0.49565300  1
  O  O2  1  0.55671300  0.91604800  0.51000200  1
  O  O3  1  0.55834400  0.09159200  0.49778700  1
  O  O4  1  0.44975500  0.91639500  0.50744900  1
  O  O5  1  0.51556800  0.07056800  0.62800700  1
  O  O6  1  0.49268000  0.93753900  0.37758700  1
  O  O7  1  0.62115700  0.07118900  0.62746600  1
  O  O8  1  0.38711600  0.93717000  0.37811900  1
  O  O9  1  0.91817700  0.56401300  0.51781900  1
  O  O10  1  0.08656600  0.44573000  0.48772000  1
  O  O11  1  0.91432000  0.45319100  0.50647400  1
  O  O12  1  0.09036200  0.55647500  0.49892100  1
  O  O13  1  0.93278600  0.49980500  0.38182500  1
  O  O14  1  0.07187600  0.50987200  0.62360200  1
  O  O15  1  0.93399000  0.39068100  0.37414500  1
  O  O16  1  0.07075400  0.61899900  0.63126200  1
  O  O17  1  0.62947400  0.54011300  0.58627900  1
  O  O18  1  0.37653700  0.46956200  0.42213300  1
  O  O19  1  0.56912600  0.47922300  0.44344400  1
  O  O20  1  0.43695300  0.53087700  0.56513200  1
  O  O21  1  0.52814900  0.44282400  0.56928300  1
  O  O22  1  0.47767400  0.56698000  0.43910300  1
  O  O23  1  0.47107400  0.37890100  0.42662000  1
  O  O24  1  0.53519000  0.63103100  0.58197100  1
