# Generated by REPEAT Assigner based on pymatgen
data_DB0-m3_o114_o23_f0_fsc.sym.5
_audit_creation_date              2022-05-24
_audit_creation_method            REPEAT_Assigner
_cell_length_a                    12.368750
_cell_length_b                    14.251452
_cell_length_c                    6.565582
_cell_angle_alpha                 90.000000
_cell_angle_beta                  80.138664
_cell_angle_gamma                 90.000000
_cell_volume                      1140.232988
_symmetry_space_group_name_H-M    P1
_symmetry_Int_Tables_number       1
loop_
    _symmetry_equiv_pos_site_id
    _symmetry_equiv_pos_as_xyz
    1  x,y,z
loop_
    _atom_site_type_symbol
    _atom_site_label
    _atom_site_fract_x
    _atom_site_fract_y
    _atom_site_fract_z
    _atom_type_partial_charge
    C   C1   0.247844  0.981545  0.183443  0.079565
    C   C2   0.151112  0.962235  0.313822  -0.244994
    C   C3   0.052642  0.966633  0.244155  -0.059979
    C   C4   0.246553  0.002143  0.978256  -0.332800
    C   C5   0.147255  0.008644  0.908952  0.439670
    C   C6   0.049790  0.991922  0.041895  -0.166050
    C   C7   0.951372  0.998554  0.968625  0.126549
    C   C8   0.851795  0.985305  0.096772  -0.233228
    C   C9   0.754895  0.992434  0.021589  -0.110617
    N   N1   0.146322  0.029971  0.709494  -0.344019
    C   C10  0.051459  0.036196  0.635826  -0.105268
    C   C11  0.952688  0.020608  0.764145  0.162323
    C   C12  0.855652  0.026363  0.687162  -0.223803
    C   C13  0.756113  0.011804  0.815050  -0.061796
    H   H1   0.152418  0.944748  0.473430  0.173873
    H   H2   0.857770  0.040735  0.524856  0.114228
    H   H3   0.979425  0.950541  0.352295  0.066808
    H   H4   0.846346  0.972889  0.259775  0.185280
    H   H5   0.052656  0.054180  0.475618  0.156670
    O   O1   0.385480  0.909350  0.340892  -0.736591
    O   O2   0.382174  0.070794  0.315669  -0.724284
    C   C14  0.347280  0.987141  0.273924  0.825111
    O   O3   0.381298  0.081545  0.734831  -0.727839
    O   O4   0.387321  0.920044  0.759078  -0.725812
    C   C15  0.347217  0.002065  0.824674  0.891060
    O   O5   0.617198  0.085056  0.657410  -0.734770
    O   O6   0.620397  0.923876  0.682507  -0.739882
    C   C16  0.656292  0.007214  0.723158  0.873605
    O   O7   0.621112  0.912967  0.263365  -0.765637
    O   O8   0.615086  0.074724  0.239100  -0.744600
    C   C17  0.654345  0.992598  0.173063  0.934521
    Zn  Zn1  0.498438  0.102338  0.484948  1.109318
    Zn  Zn2  0.504106  0.892248  0.512671  1.141595
    C   C18  0.536328  0.449591  0.269965  -0.098648
    C   C19  0.554643  0.554022  0.290053  -0.323502
    C   C20  0.577384  0.439055  0.623936  0.221590
    C   C21  0.566315  0.543745  0.660942  -0.447850
    H   H6   0.557920  0.401500  0.773674  -0.069122
    H   H7   0.521090  0.557049  0.819239  0.215801
    H   H8   0.662530  0.422366  0.549091  -0.042072
    H   H9   0.649033  0.575931  0.643137  0.054140
    N   N2   0.506478  0.769220  0.522757  0.063700
    N   N3   0.495570  0.225179  0.467842  0.096861
    C   C22  0.498720  0.408849  0.483129  0.619215
    C   C23  0.503054  0.585593  0.505138  1.014169
    C   C24  0.385495  0.551433  0.551291  -0.274417
    C   C25  0.385105  0.445470  0.568483  0.026751
    C   C26  0.505326  0.688091  0.516638  -0.344741
    C   C27  0.496561  0.306333  0.472367  -0.363464
    H   H10  0.324719  0.415870  0.479146  0.097865
    H   H11  0.342295  0.572974  0.424108  0.111423
    Cl  Cl1  0.349000  0.412284  0.832433  -0.096906
    Cl  Cl2  0.318265  0.600745  0.788177  -0.039891
    Cl  Cl3  0.433850  0.430002  0.115011  0.027097
    Cl  Cl4  0.493386  0.615171  0.102954  -0.011052
    Cl  Cl5  0.697812  0.577920  0.249662  0.033783
    Cl  Cl6  0.660983  0.395177  0.153216  0.031062
