# Generated by REPEAT Assigner based on pymatgen
data_DB0-m3_o11_o14_f0_pcu.sym.76
_audit_creation_date              2022-05-24
_audit_creation_method            REPEAT_Assigner
_cell_length_a                    10.939138
_cell_length_b                    11.134055
_cell_length_c                    9.942705
_cell_angle_alpha                 89.997376
_cell_angle_beta                  89.982306
_cell_angle_gamma                 89.999016
_cell_volume                      1210.991136
_symmetry_space_group_name_H-M    P1
_symmetry_Int_Tables_number       1
loop_
    _symmetry_equiv_pos_site_id
    _symmetry_equiv_pos_as_xyz
    1  x,y,z
loop_
    _atom_site_type_symbol
    _atom_site_label
    _atom_site_fract_x
    _atom_site_fract_y
    _atom_site_fract_z
    _atom_type_partial_charge
    O   O1   0.501444  0.349252  0.622716  -0.701528
    O   O2   0.500099  0.350468  0.390428  -0.692502
    C   C1   0.499673  0.293911  0.506749  0.814090
    O   O3   0.320335  0.530056  0.628520  -0.734089
    O   O4   0.319519  0.531213  0.396466  -0.695174
    C   C2   0.262802  0.528686  0.512774  0.892546
    Zn  Zn1  0.502449  0.526987  0.665070  1.084982
    Zn  Zn2  0.501584  0.530464  0.358751  1.028625
    O   O5   0.504993  0.706741  0.633429  -0.636183
    O   O6   0.503614  0.708471  0.401077  -0.625343
    O   O7   0.684480  0.526707  0.627773  -0.642229
    O   O8   0.683863  0.527630  0.395321  -0.575301
    C   C3   0.504159  0.763638  0.517731  0.712598
    C   C4   0.741233  0.524653  0.511410  0.666694
    H   H1   0.112837  0.664511  0.372262  0.085402
    C   C5   0.128457  0.345211  0.658166  -0.358309
    H   H2   0.226569  0.337601  0.657017  0.192977
    C   C6   0.065892  0.258877  0.729135  -0.036681
    H   H3   0.115566  0.190249  0.783233  0.084021
    C   C7   0.940638  0.257512  0.727960  -0.089583
    H   H4   0.891642  0.187817  0.781119  0.094795
    C   C8   0.877345  0.342561  0.655916  -0.304715
    H   H5   0.779402  0.333020  0.652890  0.182302
    C   C9   0.938878  0.432855  0.586676  0.170901
    C   C10  0.066106  0.434231  0.587739  0.302416
    C   C11  0.128905  0.520553  0.512880  -0.293900
    C   C12  0.064589  0.598924  0.432360  -0.029235
    H   H6   0.890219  0.663067  0.371865  0.191690
    C   C13  0.938909  0.597823  0.431755  -0.235157
    C   C14  0.875240  0.517860  0.511035  -0.116459
    C   C15  0.487949  0.960330  0.408726  0.042211
    C   C16  0.506807  0.895325  0.520463  -0.326521
    H   H7   0.468860  0.914337  0.315274  0.077174
    H   H8   0.525710  0.936423  0.616549  0.163521
    C   C17  0.492287  0.093237  0.403125  -0.065703
    C   C18  0.496881  0.162511  0.512636  -0.298195
    H   H9   0.489015  0.135073  0.304786  0.097713
    H   H10  0.495761  0.124402  0.612391  0.152380
    C   C19  0.562093  0.602752  0.933823  -0.095944
    N   N1   0.503994  0.522841  0.866193  -0.183498
    H   H11  0.608295  0.673797  0.879564  0.158485
    H   H12  0.475610  0.447181  0.916194  0.222346
    C   C20  0.575313  0.597957  0.082385  0.257603
    N   N2   0.501816  0.536682  0.157473  -0.271386
    H   H13  0.426243  0.501023  0.111263  0.241492
    S   S1   0.696645  0.683828  0.156089  -0.067432
    C   C21  0.633255  0.826940  0.103210  -0.069136
    H   H14  0.658096  0.896663  0.177933  0.119651
    H   H15  0.532255  0.820393  0.097309  0.071675
    H   H16  0.671195  0.852527  0.003827  0.035912
