# generated using pymatgen
data_Cu3H16C38(OF)12
_symmetry_space_group_name_H-M   'P 1'
_cell_length_a   38.05856200
_cell_length_b   32.07554400
_cell_length_c   21.20421300
_cell_angle_alpha   90.00000000
_cell_angle_beta   57.28073000
_cell_angle_gamma   90.00000000
_symmetry_Int_Tables_number   1
_chemical_formula_structural   Cu3H16C38(OF)12
_chemical_formula_sum   'Cu12 H64 C152 O48 F48'
_cell_volume   21777.82193150
_cell_formula_units_Z   4
loop_
 _symmetry_equiv_pos_site_id
 _symmetry_equiv_pos_as_xyz
  1  'x, y, z'
loop_
 _atom_site_type_symbol
 _atom_site_label
 _atom_site_symmetry_multiplicity
 _atom_site_fract_x
 _atom_site_fract_y
 _atom_site_fract_z
 _atom_site_occupancy
  Cu  Cu1  1  0.00000000  0.53631200  0.50000000  1
  Cu  Cu2  1  0.50000000  0.03631200  0.50000000  1
  Cu  Cu3  1  0.00000000  0.45482200  0.50000000  1
  Cu  Cu4  1  0.50000000  0.95482200  0.50000000  1
  Cu  Cu5  1  0.95837400  0.49984600  0.04193900  1
  Cu  Cu6  1  0.04162600  0.49984600  0.95806100  1
  Cu  Cu7  1  0.45837400  0.99984600  0.04193900  1
  Cu  Cu8  1  0.54162600  0.99984600  0.95806100  1
  Cu  Cu9  1  0.49740000  0.49991900  0.93979100  1
  Cu  Cu10  1  0.50260000  0.49991900  0.06020900  1
  Cu  Cu11  1  0.99740000  0.99991800  0.93979100  1
  Cu  Cu12  1  0.00260000  0.99991800  0.06020900  1
  H  H1  1  0.94076400  0.51294000  0.36860300  1
  H  H2  1  0.05923600  0.51294000  0.63139700  1
  H  H3  1  0.44076400  0.01294000  0.36860300  1
  H  H4  1  0.55923600  0.01294000  0.63139700  1
  H  H5  1  0.95069900  0.45805100  0.34893200  1
  H  H6  1  0.04930100  0.45805200  0.65106800  1
  H  H7  1  0.45069900  0.95805200  0.34893200  1
  H  H8  1  0.54930100  0.95805200  0.65106800  1
  H  H9  1  0.94294800  0.46728800  0.25283400  1
  H  H10  1  0.05705200  0.46728800  0.74716600  1
  H  H11  1  0.44294800  0.96728800  0.25283300  1
  H  H12  1  0.55705200  0.96728800  0.74716600  1
  H  H13  1  0.94122400  0.52348000  0.26344400  1
  H  H14  1  0.05877600  0.52348000  0.73655600  1
  H  H15  1  0.44122400  0.02348000  0.26344400  1
  H  H16  1  0.55877600  0.02348000  0.73655600  1
  H  H17  1  0.99746000  0.56269600  0.30299600  1
  H  H18  1  0.00254000  0.56269600  0.69700400  1
  H  H19  1  0.49746000  0.06269600  0.30299600  1
  H  H20  1  0.50254000  0.06269600  0.69700400  1
  H  H21  1  0.00649000  0.56528700  0.18961000  1
  H  H22  1  0.99351000  0.56528700  0.81039000  1
  H  H23  1  0.50649000  0.06528700  0.18961000  1
  H  H24  1  0.49351000  0.06528700  0.81039000  1
  H  H25  1  0.01991000  0.43077100  0.28128400  1
  H  H26  1  0.98008900  0.43077100  0.71871600  1
  H  H27  1  0.51991100  0.93077100  0.28128400  1
  H  H28  1  0.48009000  0.93077100  0.71871600  1
  H  H29  1  0.01189900  0.43174000  0.18572200  1
  H  H30  1  0.98810100  0.43174000  0.81427800  1
  H  H31  1  0.51189900  0.93174000  0.18572200  1
  H  H32  1  0.48810100  0.93174000  0.81427800  1
  H  H33  1  0.05940300  0.46094700  0.13144700  1
  H  H34  1  0.94059700  0.46094700  0.86855300  1
  H  H35  1  0.55940300  0.96094700  0.13144700  1
  H  H36  1  0.44059700  0.96094700  0.86855300  1
  H  H37  1  0.05128800  0.54747200  0.25676700  1
  H  H38  1  0.94871200  0.54747200  0.74323200  1
  H  H39  1  0.55128800  0.04747200  0.25676700  1
  H  H40  1  0.44871200  0.04747200  0.74323300  1
  H  H41  1  0.05626200  0.53925000  0.14564300  1
  H  H42  1  0.94373800  0.53925000  0.85435700  1
  H  H43  1  0.55626200  0.03925000  0.14564300  1
  H  H44  1  0.44373800  0.03925000  0.85435700  1
  H  H45  1  0.71149700  0.45966000  0.85706900  1
  H  H46  1  0.28850300  0.45966000  0.14293000  1
  H  H47  1  0.21149700  0.95966000  0.85706900  1
  H  H48  1  0.78850300  0.95966000  0.14293000  1
  H  H49  1  0.78939500  0.53551900  0.61814500  1
  H  H50  1  0.21060500  0.53551900  0.38185500  1
  H  H51  1  0.28939500  0.03551900  0.61814500  1
  H  H52  1  0.71060500  0.03551900  0.38185500  1
  H  H53  1  0.04508800  0.71025300  0.88375200  1
  H  H54  1  0.95491200  0.71025300  0.11624800  1
  H  H55  1  0.54508800  0.21025300  0.88375200  1
  H  H56  1  0.45491200  0.21025300  0.11624800  1
  H  H57  1  0.04512900  0.28824000  0.03002100  1
  H  H58  1  0.95487100  0.28824000  0.96997900  1
  H  H59  1  0.54512900  0.78824000  0.03002000  1
  H  H60  1  0.45487100  0.78824000  0.96997900  1
  H  H61  1  0.54512900  0.71153600  0.03002100  1
  H  H62  1  0.45487100  0.71153600  0.96997900  1
  H  H63  1  0.04512900  0.21153600  0.03002100  1
  H  H64  1  0.95487100  0.21153600  0.96997900  1
  C  C1  1  0.92102100  0.49564500  0.56876300  1
  C  C2  1  0.07897900  0.49564500  0.43123700  1
  C  C3  1  0.42102100  0.99564500  0.56876300  1
  C  C4  1  0.57897900  0.99564500  0.43123700  1
  C  C5  1  0.00543100  0.49556700  0.37548100  1
  C  C6  1  0.99456900  0.49556700  0.62451900  1
  C  C7  1  0.50543000  0.99556700  0.37548100  1
  C  C8  1  0.49456900  0.99556700  0.62451900  1
  C  C9  1  0.00000000  0.37513100  0.00000000  1
  C  C10  1  0.50000000  0.87513100  0.00000000  1
  C  C11  1  0.50000000  0.62464400  0.00000000  1
  C  C12  1  0.00000000  0.12464400  0.00000000  1
  C  C13  1  0.00000000  0.29285900  0.00000000  1
  C  C14  1  0.50000000  0.79285900  0.00000000  1
  C  C15  1  0.97469900  0.27137900  0.98317000  1
  C  C16  1  0.02530100  0.27137900  0.01683000  1
  C  C17  1  0.47469900  0.77137900  0.98317000  1
  C  C18  1  0.52530100  0.77137900  0.01683000  1
  C  C19  1  0.96155100  0.48976900  0.32560500  1
  C  C20  1  0.03844900  0.48976900  0.67439500  1
  C  C21  1  0.46155100  0.98976900  0.32560500  1
  C  C22  1  0.53844900  0.98976900  0.67439500  1
  C  C23  1  0.95917400  0.49482200  0.25714100  1
  C  C24  1  0.04082600  0.49482200  0.74285900  1
  C  C25  1  0.45917400  0.99482200  0.25714100  1
  C  C26  1  0.54082600  0.99482200  0.74285900  1
  C  C27  1  0.02057000  0.53864500  0.26660300  1
  C  C28  1  0.97943000  0.53864500  0.73339700  1
  C  C29  1  0.52057000  0.03864500  0.26660300  1
  C  C30  1  0.47943000  0.03864500  0.73339700  1
  C  C31  1  0.03287300  0.46067700  0.25129500  1
  C  C32  1  0.96712700  0.46067700  0.74870500  1
  C  C33  1  0.53287300  0.96067700  0.25129500  1
  C  C34  1  0.46712700  0.96067700  0.74870500  1
  C  C35  1  0.00618900  0.49622700  0.30440300  1
  C  C36  1  0.99381100  0.49622700  0.69559700  1
  C  C37  1  0.50618900  0.99622700  0.30440300  1
  C  C38  1  0.49381100  0.99622700  0.69559700  1
  C  C39  1  0.00304200  0.49817800  0.18807300  1
  C  C40  1  0.99695800  0.49817800  0.81192700  1
  C  C41  1  0.50304200  0.99817800  0.18807300  1
  C  C42  1  0.49695800  0.99817800  0.81192700  1
  C  C43  1  0.02315600  0.53782200  0.19281500  1
  C  C44  1  0.97684400  0.53782200  0.80718500  1
  C  C45  1  0.52315600  0.03782200  0.19281500  1
  C  C46  1  0.47684400  0.03782200  0.80718500  1
  C  C47  1  0.02831200  0.46059400  0.18448000  1
  C  C48  1  0.97168800  0.46059400  0.81552000  1
  C  C49  1  0.52831200  0.96059400  0.18448000  1
  C  C50  1  0.47168800  0.96059400  0.81552000  1
  C  C51  1  0.72913100  0.47604400  0.80432600  1
  C  C52  1  0.27086900  0.47604400  0.19567300  1
  C  C53  1  0.22913100  0.97604400  0.80432600  1
  C  C54  1  0.77086900  0.97604400  0.19567300  1
  C  C55  1  0.70731600  0.49850900  0.78091900  1
  C  C56  1  0.29268400  0.49850900  0.21908100  1
  C  C57  1  0.20731600  0.99850900  0.78091900  1
  C  C58  1  0.79268400  0.99850900  0.21908100  1
  C  C59  1  0.72851400  0.52016900  0.71376200  1
  C  C60  1  0.27148600  0.52016800  0.28623900  1
  C  C61  1  0.22851400  0.02016800  0.71376200  1
  C  C62  1  0.77148600  0.02016800  0.28623900  1
  C  C63  1  0.77176000  0.51895700  0.67070000  1
  C  C64  1  0.22824000  0.51895600  0.32930000  1
  C  C65  1  0.27176000  0.01895700  0.67070000  1
  C  C66  1  0.72824000  0.01895600  0.32930000  1
  C  C67  1  0.79356600  0.49656300  0.69424800  1
  C  C68  1  0.20643400  0.49656300  0.30575200  1
  C  C69  1  0.29356600  0.99656300  0.69424800  1
  C  C70  1  0.70643400  0.99656300  0.30575200  1
  C  C71  1  0.77234900  0.47489300  0.76138800  1
  C  C72  1  0.22765100  0.47489300  0.23861200  1
  C  C73  1  0.27234900  0.97489300  0.76138800  1
  C  C74  1  0.72765100  0.97489300  0.23861200  1
  C  C75  1  0.66243300  0.49912500  0.82784800  1
  C  C76  1  0.33756700  0.49912500  0.17215200  1
  C  C77  1  0.16243300  0.99912500  0.82784800  1
  C  C78  1  0.83756700  0.99912500  0.17215200  1
  C  C79  1  0.83848400  0.49649700  0.64849000  1
  C  C80  1  0.16151600  0.49649700  0.35151000  1
  C  C81  1  0.33848400  0.99649700  0.64849000  1
  C  C82  1  0.66151600  0.99649700  0.35151000  1
  C  C83  1  0.87615900  0.49625900  0.61122400  1
  C  C84  1  0.12384100  0.49625900  0.38877500  1
  C  C85  1  0.37615900  0.99625900  0.61122400  1
  C  C86  1  0.62384100  0.99625900  0.38877500  1
  C  C87  1  0.62481700  0.49958100  0.86764000  1
  C  C88  1  0.37518200  0.49958100  0.13236000  1
  C  C89  1  0.12481700  0.99958100  0.86764000  1
  C  C90  1  0.87518200  0.99958100  0.13236000  1
  C  C91  1  0.50000000  0.66220000  0.00000000  1
  C  C92  1  0.00000000  0.16220000  0.00000000  1
  C  C93  1  0.00000000  0.57982400  0.00000000  1
  C  C94  1  0.50000000  0.07982400  0.00000000  1
  C  C95  1  0.00166100  0.49928200  0.11931600  1
  C  C96  1  0.99833900  0.49928200  0.88068400  1
  C  C97  1  0.50166100  0.99928200  0.11931600  1
  C  C98  1  0.49833900  0.99928200  0.88068400  1
  C  C99  1  0.00000000  0.33757500  0.00000000  1
  C  C100  1  0.50000000  0.83757500  0.00000000  1
  C  C101  1  0.00000000  0.41984400  0.00000000  1
  C  C102  1  0.50000000  0.91984400  0.00000000  1
  C  C103  1  0.50000000  0.41993300  0.00000000  1
  C  C104  1  0.00000000  0.91993300  0.00000000  1
  C  C105  1  0.58002500  0.50016700  0.91529500  1
  C  C106  1  0.41997500  0.50016700  0.08470500  1
  C  C107  1  0.08002500  0.00016700  0.91529500  1
  C  C108  1  0.91997500  0.00016700  0.08470500  1
  C  C109  1  0.50000000  0.57992600  0.00000000  1
  C  C110  1  0.00000000  0.07992600  0.00000000  1
  C  C111  1  0.52573800  0.27126300  0.93364000  1
  C  C112  1  0.47426200  0.27126300  0.06636000  1
  C  C113  1  0.02573800  0.77126300  0.93364000  1
  C  C114  1  0.97426200  0.77126300  0.06636000  1
  C  C115  1  0.50000000  0.29280600  0.00000000  1
  C  C116  1  0.00000000  0.79280600  0.00000000  1
  C  C117  1  0.97447700  0.72812100  0.06580600  1
  C  C118  1  0.02552300  0.72812100  0.93419400  1
  C  C119  1  0.47447700  0.22812100  0.06580600  1
  C  C120  1  0.52552300  0.22812100  0.93419400  1
  C  C121  1  0.00000000  0.70682100  0.00000000  1
  C  C122  1  0.50000000  0.20682100  0.00000000  1
  C  C123  1  0.50000000  0.33765100  0.00000000  1
  C  C124  1  0.00000000  0.83765100  0.00000000  1
  C  C125  1  0.00000000  0.66210200  0.00000000  1
  C  C126  1  0.50000000  0.16210200  0.00000000  1
  C  C127  1  0.00000000  0.62454300  0.00000000  1
  C  C128  1  0.50000000  0.12454300  0.00000000  1
  C  C129  1  0.50000000  0.37522400  0.00000000  1
  C  C130  1  0.00000000  0.87522400  0.00000000  1
  C  C131  1  0.52530100  0.72839700  0.01683100  1
  C  C132  1  0.47469900  0.72839700  0.98316900  1
  C  C133  1  0.02530100  0.22839700  0.01683100  1
  C  C134  1  0.97469900  0.22839700  0.98316900  1
  C  C135  1  0.50000000  0.70691700  0.00000000  1
  C  C136  1  0.00000000  0.20691700  0.00000000  1
  C  C137  1  0.79602700  0.45076200  0.78727600  1
  C  C138  1  0.20397300  0.45076300  0.21272300  1
  C  C139  1  0.29602700  0.95076200  0.78727600  1
  C  C140  1  0.70397300  0.95076300  0.21272300  1
  C  C141  1  0.70480500  0.54468800  0.68842000  1
  C  C142  1  0.29519500  0.54468800  0.31158100  1
  C  C143  1  0.20480500  0.04468800  0.68842000  1
  C  C144  1  0.79519500  0.04468800  0.31158100  1
  C  C145  1  0.55352400  0.29458100  0.86200100  1
  C  C146  1  0.44647600  0.29458100  0.13799900  1
  C  C147  1  0.05352400  0.79458100  0.86200100  1
  C  C148  1  0.94647600  0.79458100  0.13799900  1
  C  C149  1  0.07934200  0.46099000  0.22407400  1
  C  C150  1  0.92065800  0.46099000  0.77592600  1
  C  C151  1  0.57934200  0.96099000  0.22407400  1
  C  C152  1  0.42065800  0.96099000  0.77592600  1
  O  O1  1  0.94129600  0.53002700  0.53364900  1
  O  O2  1  0.05870400  0.53002700  0.46635100  1
  O  O3  1  0.44129600  0.03002700  0.53364900  1
  O  O4  1  0.55870400  0.03002700  0.46635100  1
  O  O5  1  0.93973800  0.46114900  0.56946000  1
  O  O6  1  0.06026200  0.46114900  0.43054000  1
  O  O7  1  0.43973800  0.96114900  0.56946000  1
  O  O8  1  0.56026200  0.96114900  0.43054000  1
  O  O9  1  0.01545100  0.52999400  0.39640600  1
  O  O10  1  0.98454900  0.52999400  0.60359400  1
  O  O11  1  0.51545100  0.02999400  0.39640600  1
  O  O12  1  0.48454900  0.02999400  0.60359400  1
  O  O13  1  0.99264100  0.46117600  0.41620500  1
  O  O14  1  0.00735900  0.46117600  0.58379500  1
  O  O15  1  0.49264100  0.96117600  0.41620500  1
  O  O16  1  0.50735900  0.96117600  0.58379500  1
  O  O17  1  0.96401100  0.56044800  0.03909500  1
  O  O18  1  0.03598800  0.56044800  0.96090500  1
  O  O19  1  0.46401100  0.06044800  0.03909500  1
  O  O20  1  0.53598800  0.06044800  0.96090500  1
  O  O21  1  0.96519900  0.50119500  0.12678900  1
  O  O22  1  0.03480100  0.50119500  0.87321100  1
  O  O23  1  0.46519900  0.00119500  0.12678900  1
  O  O24  1  0.53480100  0.00119500  0.87321100  1
  O  O25  1  0.03711900  0.50156700  0.05422200  1
  O  O26  1  0.96288100  0.50156700  0.94577800  1
  O  O27  1  0.53711900  0.00156700  0.05422200  1
  O  O28  1  0.46288100  0.00156700  0.94577800  1
  O  O29  1  0.96406400  0.43924200  0.03858000  1
  O  O30  1  0.03593600  0.43924200  0.96141900  1
  O  O31  1  0.46406400  0.93924200  0.03858000  1
  O  O32  1  0.53593600  0.93924200  0.96141900  1
  O  O33  1  0.49604600  0.43930800  0.94965300  1
  O  O34  1  0.50395400  0.43930800  0.05034700  1
  O  O35  1  0.99604600  0.93930800  0.94965300  1
  O  O36  1  0.00395400  0.93930800  0.05034700  1
  O  O37  1  0.55835000  0.49842100  0.88389700  1
  O  O38  1  0.44165000  0.49842100  0.11610300  1
  O  O39  1  0.05835000  0.99842100  0.88389700  1
  O  O40  1  0.94165000  0.99842100  0.11610300  1
  O  O41  1  0.56286300  0.49825500  0.98802400  1
  O  O42  1  0.43713700  0.49825500  0.01197600  1
  O  O43  1  0.06286300  0.99825500  0.98802400  1
  O  O44  1  0.93713700  0.99825500  0.01197600  1
  O  O45  1  0.49601400  0.56051600  0.94984100  1
  O  O46  1  0.50398600  0.56051600  0.05015900  1
  O  O47  1  0.99601400  0.06051600  0.94984100  1
  O  O48  1  0.00398600  0.06051600  0.05015900  1
  F  F1  1  0.82138300  0.47749300  0.79660100  1
  F  F2  1  0.82027100  0.42064800  0.73481200  1
  F  F3  1  0.76894400  0.43130900  0.85487800  1
  F  F4  1  0.17861700  0.47749400  0.20339800  1
  F  F5  1  0.17972900  0.42064800  0.26518700  1
  F  F6  1  0.23105600  0.43131000  0.14512100  1
  F  F7  1  0.32138300  0.97749400  0.79660100  1
  F  F8  1  0.32027100  0.92064800  0.73481200  1
  F  F9  1  0.26894400  0.93130900  0.85487800  1
  F  F10  1  0.67861700  0.97749400  0.20339800  1
  F  F11  1  0.67972900  0.92064800  0.26518700  1
  F  F12  1  0.73105600  0.93131000  0.14512100  1
  F  F13  1  0.67868500  0.51840100  0.68035900  1
  F  F14  1  0.73183200  0.56371700  0.62033800  1
  F  F15  1  0.68132700  0.57515900  0.74071600  1
  F  F16  1  0.32131500  0.51840000  0.31964100  1
  F  F17  1  0.26816800  0.56371600  0.37966300  1
  F  F18  1  0.31867300  0.57515900  0.25928500  1
  F  F19  1  0.17868500  0.01840000  0.68035900  1
  F  F20  1  0.23183200  0.06371700  0.62033800  1
  F  F21  1  0.18132700  0.07515900  0.74071600  1
  F  F22  1  0.82131500  0.01840000  0.31964100  1
  F  F23  1  0.76816800  0.06371600  0.37966300  1
  F  F24  1  0.81867300  0.07515900  0.25928500  1
  F  F25  1  0.57636100  0.26725700  0.80311900  1
  F  F26  1  0.58101200  0.31931100  0.86896600  1
  F  F27  1  0.52956800  0.31931200  0.84592900  1
  F  F28  1  0.42363800  0.26725700  0.19688100  1
  F  F29  1  0.41898800  0.31931100  0.13103400  1
  F  F30  1  0.47043200  0.31931200  0.15407100  1
  F  F31  1  0.07636100  0.76725700  0.80311900  1
  F  F32  1  0.08101200  0.81931100  0.86896600  1
  F  F33  1  0.02956800  0.81931200  0.84592900  1
  F  F34  1  0.92363800  0.76725700  0.19688100  1
  F  F35  1  0.91898800  0.81931100  0.13103400  1
  F  F36  1  0.97043200  0.81931200  0.15407100  1
  F  F37  1  0.09721600  0.42433900  0.18557200  1
  F  F38  1  0.08444800  0.46279400  0.28358200  1
  F  F39  1  0.10033800  0.49402300  0.17643900  1
  F  F40  1  0.90278400  0.42433900  0.81442800  1
  F  F41  1  0.91555200  0.46279400  0.71641800  1
  F  F42  1  0.89966200  0.49402300  0.82356100  1
  F  F43  1  0.59721600  0.92433900  0.18557200  1
  F  F44  1  0.58444800  0.96279400  0.28358200  1
  F  F45  1  0.60033800  0.99402300  0.17643900  1
  F  F46  1  0.40278400  0.92433900  0.81442800  1
  F  F47  1  0.41555200  0.96279400  0.71641800  1
  F  F48  1  0.39966200  0.99402300  0.82356100  1
