# generated using pymatgen
data_Cu6H50(C31O8)3
_symmetry_space_group_name_H-M   'P 1'
_cell_length_a   18.58383000
_cell_length_b   18.61655000
_cell_length_c   18.68590400
_cell_angle_alpha   109.32349300
_cell_angle_beta   109.86939400
_cell_angle_gamma   109.02415900
_symmetry_Int_Tables_number   1
_chemical_formula_structural   Cu6H50(C31O8)3
_chemical_formula_sum   'Cu6 H50 C93 O24'
_cell_volume   4988.35956659
_cell_formula_units_Z   1
loop_
 _symmetry_equiv_pos_site_id
 _symmetry_equiv_pos_as_xyz
  1  'x, y, z'
loop_
 _atom_site_type_symbol
 _atom_site_label
 _atom_site_symmetry_multiplicity
 _atom_site_fract_x
 _atom_site_fract_y
 _atom_site_fract_z
 _atom_site_occupancy
  Cu  Cu1  1  0.49957000  0.43908900  0.43783600  1
  Cu  Cu2  1  0.49823800  0.55993000  0.55813700  1
  Cu  Cu3  1  0.94245000  0.43967000  0.00301700  1
  Cu  Cu4  1  0.06405500  0.55968800  0.00262200  1
  Cu  Cu5  1  0.06218800  0.99931900  0.56113400  1
  Cu  Cu6  1  0.94011400  0.00031800  0.44001400  1
  H  H1  1  0.23807700  0.62807200  0.31267800  1
  H  H2  1  0.39119800  0.62815900  0.31598100  1
  H  H3  1  0.28665300  0.49857800  0.13679600  1
  H  H4  1  0.26226400  0.36910900  0.18678200  1
  H  H5  1  0.11005600  0.36902900  0.18460600  1
  H  H6  1  0.21426900  0.49882100  0.36335400  1
  H  H7  1  0.84733900  0.54735500  0.50895800  1
  H  H8  1  0.54785100  0.71223900  0.48504400  1
  H  H9  1  0.53837800  0.83855200  0.48852100  1
  H  H10  1  0.65863800  0.95814800  0.50218500  1
  H  H11  1  0.78678000  0.94983100  0.50972400  1
  H  H12  1  0.94144800  0.77617300  0.49181300  1
  H  H13  1  0.95552900  0.65461100  0.49794500  1
  H  H14  1  0.72406100  0.56066500  0.51124200  1
  H  H15  1  0.53745200  0.20313200  0.55495000  1
  H  H16  1  0.72745300  0.66074000  0.70561500  1
  H  H17  1  0.96125900  0.79756300  0.95018800  1
  H  H18  1  0.94458400  0.66377000  0.94704300  1
  H  H19  1  0.78634600  0.33721300  0.78171600  1
  H  H20  1  0.65718500  0.20265900  0.66319700  1
  H  H21  1  0.54848100  0.33820300  0.56429300  1
  H  H22  1  0.15195400  0.16017000  0.20100200  1
  H  H23  1  0.45077300  0.43854700  0.66132000  1
  H  H24  1  0.46127200  0.45200200  0.79702800  1
  H  H25  1  0.34306700  0.34476200  0.79807700  1
  H  H26  1  0.21590000  0.22310400  0.66342700  1
  H  H27  1  0.06096500  0.04980200  0.33760900  1
  H  H28  1  0.04571700  0.04110000  0.20195600  1
  H  H29  1  0.27440900  0.28639100  0.33569100  1
  H  H30  1  0.70363500  0.54869500  0.04126600  1
  H  H31  1  0.16665700  0.71295200  0.22631300  1
  H  H32  1  0.30192300  0.83881000  0.34849500  1
  H  H33  1  0.30114600  0.95815600  0.45495600  1
  H  H34  1  0.16507100  0.95000000  0.44022200  1
  H  H35  1  0.83805900  0.77735500  0.28645700  1
  H  H36  1  0.70281900  0.65602300  0.15973000  1
  H  H37  1  0.83971200  0.56179500  0.05110400  1
  H  H38  1  0.00136000  0.15345100  0.95564100  1
  H  H39  1  0.99426000  0.44096700  0.78109100  1
  H  H40  1  0.00079300  0.45655300  0.66090200  1
  H  H41  1  0.01163000  0.34892700  0.55258600  1
  H  H42  1  0.01344400  0.22483200  0.56358600  1
  H  H43  1  0.98665700  0.04645000  0.71079700  1
  H  H44  1  0.98861200  0.03467700  0.83529300  1
  H  H45  1  0.00976000  0.28254200  0.95003900  1
  H  H46  1  0.85369500  0.81513300  0.76644200  1
  H  H47  1  0.92111300  0.87492800  0.88438500  1
  H  H48  1  0.73650000  0.79120100  0.84196200  1
  H  H49  1  0.83152600  0.95213600  0.83092800  1
  H  H50  1  0.73116000  0.91893100  0.84257800  1
  C  C1  1  0.61645700  0.61714100  0.49811300  1
  C  C2  1  0.38020300  0.49907800  0.37954600  1
  C  C3  1  0.38178400  0.38187800  0.49830800  1
  C  C4  1  0.61777200  0.49985500  0.61658400  1
  C  C5  1  0.32645900  0.56940700  0.28519600  1
  C  C6  1  0.24457300  0.56936400  0.28514200  1
  C  C7  1  0.19036600  0.49860400  0.19016000  1
  C  C8  1  0.27111100  0.49867000  0.18909500  1
  C  C9  1  0.25633300  0.42805300  0.21500100  1
  C  C10  1  0.17447200  0.42800700  0.21495400  1
  C  C11  1  0.22983300  0.49878400  0.31108000  1
  C  C12  1  0.31055700  0.49881100  0.30998800  1
  C  C13  1  0.60280100  0.76266100  0.49128600  1
  C  C14  1  0.59618600  0.83441700  0.49255700  1
  C  C15  1  0.66326000  0.90111100  0.49987000  1
  C  C16  1  0.73605400  0.89514000  0.50341400  1
  C  C17  1  0.74283400  0.82189100  0.49981200  1
  C  C18  1  0.67698000  0.75647600  0.49695400  1
  C  C19  1  0.81505400  0.81428100  0.50014500  1
  C  C20  1  0.82211600  0.74198300  0.49982000  1
  C  C21  1  0.75833500  0.67869600  0.50121700  1
  C  C22  1  0.68504900  0.68521300  0.49865200  1
  C  C23  1  0.89204900  0.73145500  0.49692300  1
  C  C24  1  0.90059400  0.66168700  0.49970800  1
  C  C25  1  0.83996400  0.60157600  0.50556700  1
  C  C26  1  0.76924600  0.60967900  0.50618200  1
  C  C27  1  0.77265500  0.65772000  0.75737500  1
  C  C28  1  0.84451300  0.73600500  0.82689700  1
  C  C29  1  0.90516900  0.73652200  0.89453700  1
  C  C30  1  0.89529400  0.65898000  0.89166400  1
  C  C31  1  0.82446100  0.57916200  0.82052700  1
  C  C32  1  0.76078500  0.57880500  0.75434500  1
  C  C33  1  0.81645700  0.50038200  0.81570300  1
  C  C34  1  0.74345400  0.42140300  0.74509400  1
  C  C35  1  0.67774400  0.42138800  0.68118400  1
  C  C36  1  0.68660900  0.50002600  0.68525100  1
  C  C37  1  0.73581800  0.34174400  0.73669300  1
  C  C38  1  0.66242100  0.26399900  0.66859400  1
  C  C39  1  0.59562400  0.26424400  0.60792500  1
  C  C40  1  0.60305700  0.34214400  0.61379700  1
  C  C41  1  0.39671900  0.38956800  0.65758000  1
  C  C42  1  0.40390200  0.39775200  0.73588800  1
  C  C43  1  0.33796400  0.33765000  0.73647500  1
  C  C44  1  0.26571500  0.26785600  0.65875100  1
  C  C45  1  0.25836300  0.25731100  0.57883500  1
  C  C46  1  0.32306000  0.32049600  0.57824300  1
  C  C47  1  0.18663500  0.18507900  0.50010600  1
  C  C48  1  0.17898000  0.17736700  0.42078700  1
  C  C49  1  0.24163600  0.24256100  0.42021400  1
  C  C50  1  0.31432900  0.31381800  0.49893500  1
  C  C51  1  0.10948700  0.10423500  0.34140700  1
  C  C52  1  0.10030500  0.09806600  0.26311800  1
  C  C53  1  0.15985100  0.16447300  0.26257800  1
  C  C54  1  0.23011500  0.23618200  0.34032500  1
  C  C55  1  0.00329900  0.61786100  0.11975200  1
  C  C56  1  0.12110700  0.49889400  0.12077100  1
  C  C57  1  0.00278500  0.38149800  0.88543300  1
  C  C58  1  0.88511800  0.50048000  0.88464700  1
  C  C59  1  0.00146000  0.88263500  0.38292200  1
  C  C60  1  0.88343400  0.88221500  0.50029000  1
  C  C61  1  0.00089200  0.11692100  0.61833800  1
  C  C62  1  0.11874700  0.11734600  0.50065600  1
  C  C63  1  0.16207700  0.76325700  0.27073900  1
  C  C64  1  0.24016300  0.83476800  0.34083900  1
  C  C65  1  0.23972300  0.90132400  0.40050700  1
  C  C66  1  0.16119200  0.89546000  0.39161800  1
  C  C67  1  0.08148500  0.82247300  0.32231400  1
  C  C68  1  0.08194800  0.75720200  0.25955100  1
  C  C69  1  0.00191600  0.81493400  0.31496000  1
  C  C70  1  0.92281600  0.74291100  0.24349300  1
  C  C71  1  0.92328600  0.67969300  0.17868200  1
  C  C72  1  0.00285100  0.68617000  0.18710600  1
  C  C73  1  0.84267000  0.73258400  0.23653000  1
  C  C74  1  0.76459200  0.66296000  0.16452500  1
  C  C75  1  0.76504900  0.60281400  0.09845100  1
  C  C76  1  0.84358700  0.61079100  0.10526400  1
  C  C77  1  0.99936700  0.39183200  0.73595000  1
  C  C78  1  0.00237000  0.40123800  0.66694200  1
  C  C79  1  0.00813400  0.34093800  0.60624400  1
  C  C80  1  0.00851600  0.26978300  0.61305400  1
  C  C81  1  0.00339500  0.25811800  0.68134200  1
  C  C82  1  0.00195800  0.32137800  0.74516000  1
  C  C83  1  0.00074500  0.18456400  0.68663300  1
  C  C84  1  0.99839500  0.17532400  0.75688100  1
  C  C85  1  0.00097700  0.24048200  0.82277000  1
  C  C86  1  0.00193900  0.31329000  0.81664300  1
  C  C87  1  0.99247000  0.10072900  0.76160900  1
  C  C88  1  0.99292400  0.09285000  0.83231700  1
  C  C89  1  0.99974600  0.15911100  0.89944800  1
  C  C90  1  0.00378500  0.23245500  0.89501000  1
  C  C91  1  0.85640500  0.81962000  0.82808900  1
  C  C92  1  0.78550800  0.83620600  0.83607200  1
  C  C93  1  0.78257900  0.90674600  0.83654900  1
  O  O1  1  0.57089200  0.53692400  0.43028300  1
  O  O2  1  0.60346200  0.63915400  0.56560200  1
  O  O3  1  0.39342500  0.43143400  0.35788100  1
  O  O4  1  0.42547500  0.56694600  0.45961500  1
  O  O5  1  0.42808000  0.35998900  0.46403900  1
  O  O6  1  0.39321700  0.46197900  0.53207100  1
  O  O7  1  0.60552400  0.46541300  0.53638500  1
  O  O8  1  0.57120600  0.53422900  0.63806800  1
  O  O9  1  0.96913200  0.53782300  0.10816700  1
  O  O10  1  0.03774800  0.63943900  0.07369900  1
  O  O11  1  0.04060700  0.43126900  0.07492900  1
  O  O12  1  0.14351700  0.56684100  0.10835700  1
  O  O13  1  0.93463300  0.36017700  0.89780200  1
  O  O14  1  0.07145900  0.46128200  0.93157100  1
  O  O15  1  0.86316900  0.46672900  0.93106900  1
  O  O16  1  0.96571800  0.53388700  0.89692700  1
  O  O17  1  0.03605400  0.89434800  0.46314500  1
  O  O18  1  0.96655000  0.92882600  0.36088400  1
  O  O19  1  0.96417300  0.92764200  0.56833600  1
  O  O20  1  0.86110100  0.89496600  0.43234300  1
  O  O21  1  0.06941600  0.10443400  0.64038600  1
  O  O22  1  0.93261000  0.07165000  0.53793300  1
  O  O23  1  0.14125900  0.07114300  0.53512900  1
  O  O24  1  0.03804500  0.10550700  0.46643700  1
