data_DB0-m3_o12_o29_f0_pcu.sym.95_repeat
_audit_creation_date              2024-02-23
_audit_creation_method            'Materials Studio'
_symmetry_space_group_name_H-M    'P1'
_symmetry_Int_Tables_number       1
_symmetry_cell_setting            triclinic
loop_
_symmetry_equiv_pos_as_xyz
  x,y,z
_cell_length_a                    10.0308
_cell_length_b                    11.2380
_cell_length_c                    27.7148
_cell_angle_alpha                 89.9825
_cell_angle_beta                  80.7786
_cell_angle_gamma                 92.4550
loop_
_atom_site_label
_atom_site_type_symbol
_atom_site_fract_x
_atom_site_fract_y
_atom_site_fract_z
_atom_site_U_iso_or_equiv
_atom_site_adp_type
_atom_site_occupancy
O1     O     0.42691   0.69070   0.50312   0.00000  Uiso   1.00
O2     O     0.57281   0.30914   0.49701   0.00000  Uiso   1.00
O3     O     0.65551   0.65934   0.49095   0.00000  Uiso   1.00
O4     O     0.34422   0.34050   0.50920   0.00000  Uiso   1.00
C1     C     0.55346   0.72998   0.49618   0.00000  Uiso   1.00
C2     C     0.44626   0.26987   0.50396   0.00000  Uiso   1.00
O5     O     0.38621   0.51712   0.57801   0.00000  Uiso   1.00
O6     O     0.61349   0.48274   0.42213   0.00000  Uiso   1.00
O7     O     0.61433   0.48579   0.56588   0.00000  Uiso   1.00
O8     O     0.38542   0.51401   0.43425   0.00000  Uiso   1.00
C3     C     0.49955   0.50268   0.59483   0.00000  Uiso   1.00
C4     C     0.50020   0.49719   0.40529   0.00000  Uiso   1.00
Zn1    Zn    0.34932   0.52095   0.50825   0.00000  Uiso   1.00
Zn2    Zn    0.65041   0.47888   0.49188   0.00000  Uiso   1.00
C5     C     0.50631   0.60619   0.82403   0.00000  Uiso   1.00
C6     C     0.50505   0.39446   0.17533   0.00000  Uiso   1.00
O9     O     0.50417   0.70940   0.79972   0.00000  Uiso   1.00
O10    O     0.51769   0.29227   0.19907   0.00000  Uiso   1.00
N1     N     0.51235   0.50292   0.79928   0.00000  Uiso   1.00
N2     N     0.48751   0.49646   0.20067   0.00000  Uiso   1.00
C7     C     0.51742   0.39891   0.82293   0.00000  Uiso   1.00
C8     C     0.47065   0.59887   0.17751   0.00000  Uiso   1.00
C9     C     0.61514   0.46255   0.71544   0.00000  Uiso   1.00
C10    C     0.38254   0.53274   0.28473   0.00000  Uiso   1.00
C11    C     0.61077   0.46343   0.66595   0.00000  Uiso   1.00
C12    C     0.38706   0.53223   0.33422   0.00000  Uiso   1.00
C13    C     0.39205   0.54576   0.68134   0.00000  Uiso   1.00
C14    C     0.60989   0.45827   0.31859   0.00000  Uiso   1.00
C15    C     0.39794   0.54502   0.73070   0.00000  Uiso   1.00
C16    C     0.60430   0.45955   0.26923   0.00000  Uiso   1.00
C17    C     0.50872   0.50350   0.74801   0.00000  Uiso   1.00
C18    C     0.49128   0.49644   0.25199   0.00000  Uiso   1.00
C19    C     0.50805   0.50128   0.89909   0.00000  Uiso   1.00
C20    C     0.49167   0.49764   0.10081   0.00000  Uiso   1.00
C21    C     0.50409   0.60655   0.87409   0.00000  Uiso   1.00
C22    C     0.50791   0.39401   0.12524   0.00000  Uiso   1.00
C23    C     0.49890   0.71205   0.89914   0.00000  Uiso   1.00
C24    C     0.52870   0.29035   0.09947   0.00000  Uiso   1.00
C25    C     0.51539   0.39692   0.87300   0.00000  Uiso   1.00
C26    C     0.47203   0.60049   0.12748   0.00000  Uiso   1.00
C27    C     0.49937   0.50425   0.64816   0.00000  Uiso   1.00
C28    C     0.50047   0.49563   0.35192   0.00000  Uiso   1.00
H1     H     0.31377   0.57680   0.75601   0.00000  Uiso   1.00
H2     H     0.69046   0.43148   0.24388   0.00000  Uiso   1.00
H3     H     0.49861   0.79638   0.88045   0.00000  Uiso   1.00
H4     H     0.54424   0.20794   0.11745   0.00000  Uiso   1.00
C29    C     0.48271   0.60491   0.02631   0.00000  Uiso   1.00
C30    C     0.51105   0.39313   0.97387   0.00000  Uiso   1.00
C31    C     0.51251   0.39292   0.02438   0.00000  Uiso   1.00
C32    C     0.49311   0.60661   0.97525   0.00000  Uiso   1.00
C33    C     0.49553   0.49847   0.05034   0.00000  Uiso   1.00
C34    C     0.50417   0.50034   0.94956   0.00000  Uiso   1.00
C35    C     0.45847   0.70718   0.05429   0.00000  Uiso   1.00
C36    C     0.51519   0.28834   0.94680   0.00000  Uiso   1.00
C37    C     0.45399   0.70480   0.10403   0.00000  Uiso   1.00
C38    C     0.51778   0.29059   0.89716   0.00000  Uiso   1.00
O11    O     0.45667   0.70053   0.20300   0.00000  Uiso   1.00
O12    O     0.52056   0.29647   0.79785   0.00000  Uiso   1.00
C39    C     0.49408   0.71246   0.94889   0.00000  Uiso   1.00
C40    C     0.53164   0.28957   0.04983   0.00000  Uiso   1.00
H5     H     0.30023   0.56174   0.35879   0.00000  Uiso   1.00
H6     H     0.69574   0.43038   0.64145   0.00000  Uiso   1.00
H7     H     0.29257   0.56075   0.27184   0.00000  Uiso   1.00
H8     H     0.70309   0.43053   0.72852   0.00000  Uiso   1.00
H9     H     0.43557   0.78655   0.12402   0.00000  Uiso   1.00
H10    H     0.52097   0.20697   0.87788   0.00000  Uiso   1.00
H11    H     0.43903   0.79184   0.03949   0.00000  Uiso   1.00
H12    H     0.51315   0.20088   0.96255   0.00000  Uiso   1.00
H13    H     0.49432   0.79930   0.96503   0.00000  Uiso   1.00
H14    H     0.55289   0.20527   0.03274   0.00000  Uiso   1.00
H15    H     0.62106   0.09562   0.49307   0.00000  Uiso   1.00
H16    H     0.37868   0.90423   0.50706   0.00000  Uiso   1.00
C41    C     0.58289   0.85895   0.49453   0.00000  Uiso   1.00
C42    C     0.41684   0.14089   0.50560   0.00000  Uiso   1.00
C43    C     0.48369   0.93562   0.50077   0.00000  Uiso   1.00
C44    C     0.51604   0.06422   0.49935   0.00000  Uiso   1.00
H17    H     0.31235   0.10785   0.51169   0.00000  Uiso   1.00
H18    H     0.68738   0.89199   0.48844   0.00000  Uiso   1.00
H19    H     0.11418   0.42355   0.47011   0.00000  Uiso   1.00
H20    H     0.88556   0.57632   0.53000   0.00000  Uiso   1.00
N3     N     0.84827   0.44967   0.48029   0.00000  Uiso   1.00
N4     N     0.15145   0.55017   0.51984   0.00000  Uiso   1.00
C45    C     0.92703   0.51013   0.50404   0.00000  Uiso   1.00
C46    C     0.07270   0.48972   0.49608   0.00000  Uiso   1.00
H21    H     0.10585   0.61158   0.54385   0.00000  Uiso   1.00
H22    H     0.89387   0.38825   0.45628   0.00000  Uiso   1.00
C47    C     0.27408   0.59318   0.66643   0.00000  Uiso   1.00
N5     N     0.17885   0.63144   0.65464   0.00000  Uiso   1.00
C48    C     0.72995   0.41450   0.33329   0.00000  Uiso   1.00
N6     N     0.82680   0.37907   0.34491   0.00000  Uiso   1.00
