# Generated by REPEAT Assigner based on pymatgen
data_DB0-m3_o15_o27_f0_nbo.sym.88
_audit_creation_date              2022-05-24
_audit_creation_method            REPEAT_Assigner
_cell_length_a                    21.927513
_cell_length_b                    21.927479
_cell_length_c                    38.572522
_cell_angle_alpha                 90.000000
_cell_angle_beta                  90.000000
_cell_angle_gamma                 90.000000
_cell_volume                      18546.250224
_symmetry_space_group_name_H-M    P1
_symmetry_Int_Tables_number       1
loop_
    _symmetry_equiv_pos_site_id
    _symmetry_equiv_pos_as_xyz
    1  x,y,z
loop_
    _atom_site_type_symbol
    _atom_site_label
    _atom_site_fract_x
    _atom_site_fract_y
    _atom_site_fract_z
    _atom_type_partial_charge
    O   O1    0.553867  0.090792  0.498979  -0.658601
    O   O2    0.909213  0.553869  0.498448  -0.658640
    O   O3    0.446009  0.908993  0.499449  -0.655991
    O   O4    0.090995  0.446094  0.500012  -0.656116
    O   O5    0.551177  0.909246  0.499986  -0.667010
    O   O6    0.909448  0.448748  0.501012  -0.670057
    O   O7    0.448747  0.090509  0.501541  -0.669921
    O   O8    0.090729  0.551265  0.500553  -0.666400
    O   O9    0.051451  0.590662  0.999489  -0.666312
    O   O10   0.408919  0.053725  0.000009  -0.655700
    O   O11   0.948605  0.409540  0.999025  -0.670008
    O   O12   0.590922  0.946315  0.998414  -0.658365
    O   O13   0.053726  0.409142  0.001591  -0.658649
    O   O14   0.409401  0.948556  0.000520  -0.666431
    O   O15   0.946281  0.591092  0.000031  -0.655506
    O   O16   0.590471  0.051433  0.001003  -0.670514
    C   C1    0.501254  0.119238  0.500373  0.776549
    C   C2    0.880743  0.501255  0.499673  0.779777
    C   C3    0.498647  0.880487  0.499637  0.769779
    C   C4    0.119494  0.498737  0.500367  0.769704
    C   C5    0.998969  0.619508  0.999674  0.767922
    C   C6    0.380528  0.001025  0.000351  0.768647
    C   C7    0.001068  0.380754  0.000364  0.780100
    C   C8    0.619283  0.998985  0.999653  0.779864
    O   O17   0.554264  0.999990  0.448508  -0.662467
    O   O18   0.000974  0.554308  0.448528  -0.661884
    O   O19   0.449010  0.000698  0.448365  -0.676737
    O   O20   0.000222  0.449051  0.448382  -0.674963
    O   O21   0.550823  0.002186  0.551609  -0.675022
    O   O22   0.002308  0.445744  0.551484  -0.661773
    O   O23   0.445695  0.996698  0.551452  -0.661695
    O   O24   0.996849  0.550868  0.551612  -0.675703
    O   O25   0.050886  0.496790  0.948429  -0.676314
    O   O26   0.499680  0.050991  0.948374  -0.675656
    O   O27   0.945771  0.502406  0.948557  -0.661942
    O   O28   0.499175  0.945737  0.948492  -0.663094
    O   O29   0.054329  0.500904  0.051514  -0.662965
    O   O30   0.503293  0.949094  0.051578  -0.675589
    O   O31   0.949073  0.500305  0.051659  -0.675135
    O   O32   0.497597  0.054210  0.051477  -0.661596
    C   C9    0.501718  0.000506  0.432275  0.480131
    C   C10   0.000734  0.501755  0.432296  0.476455
    C   C11   0.498179  0.999379  0.567688  0.471391
    C   C12   0.999344  0.498220  0.567708  0.474494
    C   C13   0.998243  0.499365  0.932333  0.474348
    C   C14   0.499290  0.998301  0.932272  0.478735
    C   C15   0.001776  0.500739  0.067745  0.477001
    C   C16   0.500681  0.001725  0.067685  0.472551
    Zn  Zn1   0.569013  0.999798  0.500240  1.303938
    Zn  Zn2   0.000170  0.569059  0.500259  1.303269
    Zn  Zn3   0.430885  0.000014  0.499758  1.305067
    Zn  Zn4   0.999979  0.430926  0.499775  1.303888
    Zn  Zn5   0.069082  0.500071  0.999783  1.304380
    Zn  Zn6   0.499903  0.069074  0.999772  1.304428
    Zn  Zn7   0.930947  0.500104  0.000266  1.303838
    Zn  Zn8   0.499996  0.930942  0.000219  1.303812
    Zn  Zn9   0.500528  0.500033  0.539201  1.249522
    Zn  Zn10  0.499971  0.499432  0.460750  1.250790
    Zn  Zn11  0.999492  0.999982  0.039226  1.250059
    Zn  Zn12  0.000053  0.000543  0.960773  1.249900
    C   C17   0.452096  0.022986  0.376420  -0.286189
    C   C18   0.978626  0.452269  0.376380  -0.288658
    C   C19   0.551691  0.979061  0.376373  -0.291120
    C   C20   0.023542  0.551424  0.376470  -0.292971
    C   C21   0.449280  0.975007  0.623526  -0.305186
    C   C22   0.975133  0.547072  0.623560  -0.304585
    C   C23   0.546875  0.023220  0.623608  -0.299859
    C   C24   0.022375  0.449005  0.623629  -0.306040
    C   C25   0.949049  0.522443  0.876412  -0.305836
    C   C26   0.477004  0.948439  0.876428  -0.294632
    C   C27   0.047066  0.475101  0.876481  -0.304591
    C   C28   0.520852  0.048068  0.876361  -0.292029
    C   C29   0.952267  0.478673  0.123660  -0.290030
    C   C30   0.477125  0.050644  0.123612  -0.306336
    C   C31   0.051465  0.523494  0.123573  -0.293300
    C   C32   0.525414  0.953087  0.123518  -0.304456
    H   H1    0.412908  0.040702  0.390106  0.173181
    H   H2    0.960319  0.413297  0.390012  0.173152
    H   H3    0.590818  0.961130  0.390022  0.174660
    H   H4    0.041652  0.590394  0.390188  0.175215
    H   H5    0.410935  0.955578  0.609822  0.177799
    H   H6    0.956125  0.585649  0.609874  0.178018
    H   H7    0.585227  0.042808  0.609981  0.175802
    H   H8    0.041627  0.410489  0.610000  0.178018
    H   H9    0.910554  0.541736  0.890042  0.177963
    H   H10   0.459310  0.909259  0.890130  0.175839
    H   H11   0.085626  0.456054  0.890166  0.178067
    H   H12   0.538748  0.087229  0.889996  0.174182
    H   H13   0.913279  0.460402  0.110026  0.173542
    H   H14   0.457467  0.088957  0.109985  0.177882
    H   H15   0.090452  0.541571  0.109856  0.175453
    H   H16   0.544831  0.914731  0.109815  0.177556
    C   C33   0.452512  0.024106  0.340697  0.173218
    C   C34   0.977978  0.452635  0.340657  0.172479
    C   C35   0.551399  0.978484  0.340641  0.179731
    C   C36   0.024637  0.551039  0.340738  0.177567
    C   C37   0.449683  0.973981  0.659258  0.182925
    C   C38   0.974043  0.546648  0.659284  0.181021
    C   C39   0.546499  0.023850  0.659331  0.178051
    C   C40   0.022894  0.449317  0.659360  0.186862
    C   C41   0.949358  0.522958  0.840681  0.186914
    C   C42   0.475921  0.948830  0.840697  0.180577
    C   C43   0.046638  0.474006  0.840756  0.181137
    C   C44   0.521469  0.047752  0.840638  0.178865
    C   C45   0.952631  0.478021  0.159382  0.173155
    C   C46   0.476580  0.050283  0.159342  0.184223
    C   C47   0.051079  0.524587  0.159304  0.176907
    C   C48   0.526521  0.953505  0.159242  0.178636
    H   H17   0.413190  0.041932  0.327197  0.037592
    H   H18   0.959920  0.413480  0.327100  0.039030
    H   H19   0.590753  0.960839  0.327094  0.035065
    H   H20   0.042850  0.590177  0.327230  0.036885
    H   H21   0.411163  0.954484  0.672759  0.036597
    H   H22   0.954919  0.585373  0.672768  0.036881
    H   H23   0.585043  0.043202  0.672878  0.037911
    H   H24   0.041837  0.410570  0.672906  0.033836
    H   H25   0.910629  0.541938  0.827136  0.033634
    H   H26   0.458134  0.909498  0.827188  0.036056
    H   H27   0.085341  0.454840  0.827272  0.036864
    H   H28   0.539094  0.087122  0.827099  0.035820
    H   H29   0.913458  0.459998  0.172938  0.038800
    H   H30   0.457214  0.088802  0.172906  0.035156
    H   H31   0.090233  0.542761  0.172813  0.037192
    H   H32   0.546063  0.914989  0.172726  0.038496
    C   C49   0.501979  0.001419  0.322616  -0.568173
    C   C50   0.001416  0.501827  0.322649  -0.568893
    C   C51   0.498104  0.998814  0.677347  -0.571671
    C   C52   0.998344  0.497965  0.677379  -0.569029
    C   C53   0.997978  0.498354  0.822662  -0.569791
    C   C54   0.498582  0.998315  0.822615  -0.570377
    C   C55   0.001844  0.501411  0.177392  -0.568403
    C   C56   0.501672  0.001898  0.177345  -0.568352
    C   C57   0.501852  0.000869  0.394383  0.292499
    C   C58   0.000973  0.501844  0.394408  0.297810
    C   C59   0.498081  0.999208  0.605581  0.312061
    C   C60   0.998920  0.498079  0.605604  0.310569
    C   C61   0.998100  0.498940  0.894437  0.310995
    C   C62   0.499044  0.998242  0.894380  0.297032
    C   C63   0.001864  0.500974  0.105633  0.298800
    C   C64   0.501105  0.001838  0.105578  0.313451
    N   N1    0.540383  0.965128  0.267049  -0.348642
    N   N2    0.039038  0.539323  0.267155  -0.353977
    N   N3    0.463528  0.038249  0.267178  -0.352301
    N   N4    0.964212  0.464123  0.267150  -0.354295
    N   N5    0.535008  0.036806  0.732854  -0.355421
    N   N6    0.035491  0.460393  0.732950  -0.349690
    N   N7    0.461449  0.960370  0.732844  -0.355292
    N   N8    0.960729  0.535645  0.732826  -0.353309
    N   N9    0.035611  0.460691  0.767215  -0.353402
    N   N10   0.534911  0.036887  0.767116  -0.351098
    N   N11   0.960436  0.535531  0.767091  -0.349673
    N   N12   0.461792  0.960031  0.767111  -0.351952
    N   N13   0.039373  0.538992  0.232888  -0.354366
    N   N14   0.540100  0.965023  0.232784  -0.357272
    N   N15   0.964101  0.464237  0.232889  -0.354763
    N   N16   0.463666  0.038582  0.232913  -0.352993
    C   C65   0.501841  0.001856  0.215326  0.968890
    C   C66   0.001789  0.501554  0.215368  0.972415
    C   C67   0.498420  0.998397  0.784636  0.968184
    C   C68   0.997986  0.498164  0.784678  0.964880
    C   C69   0.998160  0.497978  0.715363  0.964189
    C   C70   0.498169  0.998659  0.715326  0.972498
    C   C71   0.001564  0.501774  0.284673  0.972299
    C   C72   0.501985  0.001624  0.284636  0.967058
    C   C73   0.432194  0.188029  0.451342  -0.334128
    C   C74   0.812726  0.432280  0.450254  -0.333517
    C   C75   0.567168  0.812212  0.449968  -0.334855
    C   C76   0.188537  0.567377  0.451085  -0.334469
    C   C77   0.430339  0.810934  0.548853  -0.339482
    C   C78   0.811474  0.570019  0.548634  -0.333322
    C   C79   0.569923  0.187731  0.549729  -0.336577
    C   C80   0.188278  0.430538  0.549969  -0.334050
    C   C81   0.930884  0.688304  0.950037  -0.333568
    C   C82   0.311518  0.932301  0.951082  -0.334798
    C   C83   0.069730  0.311488  0.951366  -0.336257
    C   C84   0.687281  0.068119  0.950287  -0.330955
    C   C85   0.931984  0.312735  0.049743  -0.331527
    C   C86   0.311713  0.069056  0.050002  -0.335896
    C   C87   0.067705  0.688535  0.048928  -0.335197
    C   C88   0.688568  0.930320  0.048640  -0.336476
    C   C89   0.391830  0.219055  0.430615  0.160878
    C   C90   0.782035  0.391964  0.429337  0.155684
    C   C91   0.607774  0.781558  0.429215  0.159823
    C   C92   0.219523  0.608032  0.430523  0.163529
    C   C93   0.389897  0.779651  0.569405  0.161757
    C   C94   0.780167  0.610178  0.569353  0.152856
    C   C95   0.610027  0.218705  0.570643  0.155744
    C   C96   0.219230  0.390145  0.570712  0.158099
    C   C97   0.890496  0.719264  0.929295  0.157696
    C   C98   0.280547  0.891669  0.930497  0.163141
    C   C99   0.109893  0.280182  0.930649  0.156871
    C   C100  0.717966  0.108437  0.929368  0.155805
    C   C101  0.891670  0.282042  0.070660  0.155743
    C   C102  0.280748  0.109443  0.070743  0.159279
    C   C103  0.108356  0.719513  0.069497  0.163696
    C   C104  0.719883  0.890143  0.069344  0.156959
    C   C105  0.382668  0.280247  0.435543  -0.135035
    C   C106  0.720765  0.382792  0.433939  -0.132646
    C   C107  0.617583  0.720480  0.434184  -0.134076
    C   C108  0.280524  0.617809  0.435807  -0.134384
    C   C109  0.380547  0.718587  0.564107  -0.131995
    C   C110  0.718910  0.618905  0.564426  -0.129113
    C   C111  0.618763  0.280040  0.566045  -0.133913
    C   C112  0.280373  0.380768  0.565731  -0.133898
    C   C113  0.881136  0.780409  0.934275  -0.134373
    C   C114  0.219544  0.881876  0.935767  -0.133815
    C   C115  0.118612  0.218924  0.935574  -0.132963
    C   C116  0.779239  0.117606  0.933961  -0.133210
    C   C117  0.882491  0.220773  0.066056  -0.132526
    C   C118  0.219609  0.118820  0.065749  -0.135001
    C   C119  0.118151  0.780512  0.064215  -0.134186
    C   C120  0.781138  0.881427  0.064409  -0.132886
    C   C121  0.417018  0.311347  0.459533  -0.211568
    C   C122  0.689281  0.417049  0.457810  -0.207634
    C   C123  0.583478  0.689056  0.458149  -0.206440
    C   C124  0.311566  0.583596  0.459880  -0.214662
    C   C125  0.414980  0.687801  0.540029  -0.213068
    C   C126  0.688051  0.584328  0.540442  -0.214448
    C   C127  0.584284  0.311283  0.542175  -0.205048
    C   C128  0.311540  0.415098  0.541762  -0.210814
    C   C129  0.915488  0.811571  0.958236  -0.207400
    C   C130  0.188487  0.916043  0.959856  -0.216101
    C   C131  0.084013  0.188063  0.959547  -0.211980
    C   C132  0.810730  0.083355  0.957833  -0.208323
    C   C133  0.916731  0.189292  0.042175  -0.209043
    C   C134  0.188457  0.084485  0.041777  -0.205947
    C   C135  0.083970  0.811561  0.040130  -0.215833
    C   C136  0.811989  0.916041  0.040439  -0.211125
    C   C137  0.461036  0.281262  0.479160  0.084129
    C   C138  0.719049  0.460996  0.477642  0.076340
    C   C139  0.539098  0.718709  0.477725  0.075375
    C   C140  0.281596  0.539155  0.479256  0.086410
    C   C141  0.459215  0.718094  0.520664  0.082526
    C   C142  0.718444  0.540512  0.520821  0.084685
    C   C143  0.540546  0.281208  0.522344  0.075895
    C   C144  0.281562  0.459270  0.522195  0.080960
    C   C145  0.959668  0.781586  0.977796  0.078347
    C   C146  0.218444  0.960450  0.979261  0.086006
    C   C147  0.040183  0.218454  0.979159  0.085472
    C   C148  0.780966  0.039422  0.977674  0.077696
    C   C149  0.960664  0.219063  0.022336  0.078333
    C   C150  0.218445  0.040304  0.022220  0.075405
    C   C151  0.039544  0.781598  0.020740  0.086032
    C   C152  0.781591  0.959884  0.020840  0.083918
    C   C153  0.464772  0.218256  0.477120  0.219404
    C   C154  0.782088  0.464799  0.475897  0.227454
    C   C155  0.534997  0.781717  0.475811  0.224602
    C   C156  0.218621  0.535129  0.477054  0.219625
    C   C157  0.462804  0.781095  0.522881  0.223151
    C   C158  0.781475  0.537205  0.522868  0.223252
    C   C159  0.537174  0.218144  0.524095  0.225707
    C   C160  0.218529  0.462932  0.524124  0.223808
    C   C161  0.963293  0.718551  0.975877  0.223901
    C   C162  0.281419  0.964507  0.977062  0.220780
    C   C163  0.036902  0.281486  0.977124  0.223129
    C   C164  0.717927  0.035598  0.975926  0.224261
    C   C165  0.964492  0.282100  0.024094  0.224647
    C   C166  0.281477  0.036666  0.024150  0.226568
    C   C167  0.035482  0.718625  0.022951  0.221140
    C   C168  0.718560  0.963164  0.022884  0.223781
    C   C169  0.500749  0.313215  0.500790  -0.109994
    C   C170  0.686767  0.500574  0.499193  -0.113287
    C   C171  0.499342  0.686381  0.499159  -0.107999
    C   C172  0.313600  0.499260  0.500761  -0.112191
    C   C173  0.999685  0.813613  0.999219  -0.111768
    C   C174  0.186423  0.000301  0.000785  -0.109939
    C   C175  0.000219  0.186779  0.000773  -0.113055
    C   C176  0.813257  0.999859  0.999228  -0.111433
    C   C177  0.501079  0.186313  0.500529  -0.259895
    C   C178  0.813668  0.501087  0.499477  -0.266097
    C   C179  0.498812  0.813353  0.499439  -0.262996
    C   C180  0.186627  0.498917  0.500512  -0.263263
    C   C181  0.999247  0.686641  0.999500  -0.262700
    C   C182  0.313395  0.000723  0.000526  -0.263539
    C   C183  0.000805  0.313680  0.000525  -0.265213
    C   C184  0.686357  0.999273  0.999493  -0.264938
    H   H33   0.437698  0.140064  0.446093  0.215308
    H   H34   0.860774  0.437802  0.445259  0.214676
    H   H35   0.561100  0.860089  0.444670  0.217852
    H   H36   0.140743  0.561343  0.445540  0.217513
    H   H37   0.436032  0.858764  0.554406  0.220307
    H   H38   0.859479  0.564869  0.553874  0.215782
    H   H39   0.564756  0.139643  0.554714  0.216964
    H   H40   0.140363  0.436261  0.555274  0.217814
    H   H41   0.936591  0.640386  0.944735  0.217860
    H   H42   0.359312  0.938350  0.945544  0.217709
    H   H43   0.064589  0.359496  0.946129  0.216497
    H   H44   0.639232  0.062596  0.945296  0.214060
    H   H45   0.937514  0.360781  0.054741  0.214084
    H   H46   0.359627  0.063335  0.055314  0.218298
    H   H47   0.061656  0.640744  0.054474  0.217750
    H   H48   0.640563  0.935458  0.053884  0.216561
    H   H49   0.349343  0.304308  0.420078  0.130225
    H   H50   0.696951  0.349524  0.418311  0.129756
    H   H51   0.651161  0.696738  0.418737  0.129616
    H   H52   0.304513  0.651440  0.420521  0.129902
    H   H53   0.347081  0.694352  0.579385  0.128688
    H   H54   0.694617  0.652068  0.579886  0.128625
    H   H55   0.651865  0.304087  0.581672  0.129811
    H   H56   0.304361  0.347356  0.581171  0.129888
    H   H57   0.847720  0.804404  0.918841  0.129807
    H   H58   0.195566  0.848271  0.920457  0.129790
    H   H59   0.151785  0.194631  0.920121  0.129374
    H   H60   0.803048  0.150866  0.918325  0.129898
    H   H61   0.849232  0.196959  0.081689  0.129790
    H   H62   0.195612  0.152237  0.081181  0.129874
    H   H63   0.151771  0.804495  0.079512  0.129913
    H   H64   0.805439  0.848244  0.079851  0.129286
    H   H65   0.407294  0.359238  0.462517  0.173022
    H   H66   0.641342  0.407336  0.460518  0.171893
    H   H67   0.593684  0.641277  0.461157  0.172060
    H   H68   0.359299  0.593789  0.463155  0.174127
    H   H69   0.405124  0.639999  0.536743  0.172989
    H   H70   0.640093  0.593714  0.537457  0.172696
    H   H71   0.593658  0.359290  0.539468  0.170992
    H   H72   0.359389  0.405232  0.538743  0.173224
    H   H73   0.905625  0.859419  0.961257  0.172094
    H   H74   0.140749  0.905851  0.963115  0.174177
    H   H75   0.093402  0.140106  0.962533  0.172647
    H   H76   0.858676  0.093053  0.960529  0.172477
    H   H77   0.907023  0.141350  0.039469  0.172557
    H   H78   0.140615  0.094365  0.038744  0.171796
    H   H79   0.094166  0.859295  0.036860  0.174152
    H   H80   0.859944  0.906651  0.037444  0.172376
    O   O33   0.591029  0.497105  0.529051  -0.637284
    O   O34   0.501337  0.590579  0.529060  -0.635353
    O   O35   0.409505  0.500907  0.530602  -0.624782
    O   O36   0.497574  0.409054  0.530596  -0.626888
    O   O37   0.590920  0.503068  0.469375  -0.628350
    O   O38   0.503557  0.408962  0.470921  -0.636795
    O   O39   0.409426  0.497963  0.470872  -0.636003
    O   O40   0.498412  0.590452  0.469330  -0.626033
    O   O41   0.090509  0.998729  0.030618  -0.625727
    O   O42   0.002801  0.090941  0.030593  -0.626992
    O   O43   0.909001  0.003237  0.029081  -0.637257
    O   O44   0.998317  0.909431  0.029112  -0.635127
    O   O45   0.090604  0.001687  0.970889  -0.634910
    O   O46   0.001270  0.909525  0.969382  -0.625865
    O   O47   0.909092  0.997269  0.969405  -0.626670
    O   O48   0.996828  0.091036  0.970917  -0.637566
    C   C185  0.619615  0.500146  0.499192  0.626366
    C   C186  0.499789  0.619189  0.499171  0.616563
    C   C187  0.380793  0.499310  0.500757  0.617233
    C   C188  0.500715  0.380367  0.500783  0.620231
    C   C189  0.119230  0.000257  0.000775  0.616997
    C   C190  0.999803  0.119628  0.000776  0.622831
    C   C191  0.880407  0.000274  0.999222  0.621317
    C   C192  0.999734  0.880805  0.999226  0.618194
    C   C193  0.643826  0.186449  0.596680  0.253612
    N   N17   0.671028  0.160390  0.617681  -0.397264
    C   C194  0.812009  0.644058  0.595520  0.254626
    N   N18   0.837736  0.671326  0.616625  -0.397873
    C   C195  0.356296  0.811355  0.595742  0.249068
    N   N19   0.329250  0.836964  0.616986  -0.395838
    C   C196  0.187110  0.356639  0.596925  0.251206
    N   N20   0.161163  0.329669  0.618068  -0.396284
    C   C197  0.641049  0.813930  0.403006  0.249305
    N   N21   0.667834  0.840076  0.381867  -0.395873
    C   C198  0.814526  0.358403  0.403295  0.252476
    N   N22   0.840773  0.331391  0.382290  -0.397147
    C   C199  0.358194  0.186977  0.404439  0.249711
    N   N23   0.331122  0.161061  0.383327  -0.396431
    C   C200  0.187569  0.641408  0.404190  0.246771
    N   N24   0.161761  0.668275  0.382951  -0.395261
    C   C201  0.141700  0.687552  0.095840  0.246943
    N   N25   0.168542  0.661739  0.117088  -0.395430
    C   C202  0.312850  0.142955  0.096961  0.250276
    N   N26   0.338779  0.169931  0.118108  -0.395661
    C   C203  0.858125  0.314531  0.096710  0.251676
    N   N27   0.831127  0.340776  0.117721  -0.396798
    C   C204  0.688051  0.856224  0.095499  0.252989
    N   N28   0.662335  0.828924  0.116595  -0.397248
    C   C205  0.143793  0.312027  0.904491  0.253461
    N   N29   0.171077  0.337755  0.883393  -0.397589
    C   C206  0.312521  0.858346  0.904151  0.247657
    N   N30   0.338347  0.831523  0.882901  -0.395917
    C   C207  0.856968  0.687149  0.903088  0.251125
    N   N31   0.829981  0.661207  0.881951  -0.396099
    C   C208  0.685463  0.141991  0.903327  0.251837
    N   N32   0.659205  0.168995  0.882324  -0.396843
