# Generated by REPEAT Assigner based on pymatgen
data_DB0-m2_o9_o20_f0_nbo.sym.84_sqe
_audit_creation_date              2022-05-24
_audit_creation_method            REPEAT_Assigner
_cell_length_a                    21.521941
_cell_length_b                    21.597204
_cell_length_c                    20.966777
_cell_angle_alpha                 120.987024
_cell_angle_beta                  120.874037
_cell_angle_gamma                 90.001882
_cell_volume                      6692.591889
_symmetry_space_group_name_H-M    P1
_symmetry_Int_Tables_number       1
loop_
    _symmetry_equiv_pos_site_id
    _symmetry_equiv_pos_as_xyz
    1  x,y,z
loop_
    _atom_site_type_symbol
    _atom_site_label
    _atom_site_fract_x
    _atom_site_fract_y
    _atom_site_fract_z
    _atom_type_partial_charge
    O   O1   0.052588  0.507368  0.635555  -0.541470
    O   O2   0.086827  0.609413  0.635203  -0.601595
    C   C1   0.091908  0.579989  0.678753  0.805899
    O   O3   0.101798  0.453112  0.525396  -0.647793
    O   O4   0.074858  0.529708  0.474099  -0.652192
    C   C2   0.116167  0.490085  0.497430  0.874576
    Cu  Cu1  0.001392  0.432024  0.502469  0.936821
    Cu  Cu2  0.001436  0.553470  0.503559  0.999200
    O   O5   0.950174  0.375639  0.369565  -0.517906
    O   O6   0.916003  0.478668  0.371790  -0.560706
    O   O7   0.900940  0.429770  0.479498  -0.509149
    O   O8   0.927832  0.558148  0.532605  -0.619850
    C   C3   0.910649  0.405719  0.327426  0.693034
    C   C4   0.885718  0.494211  0.506754  0.682662
    H   H1   0.918131  0.210750  0.097357  0.096692
    C   C5   0.003821  0.260274  0.240365  -0.088768
    H   H2   0.978155  0.213719  0.235675  0.096416
    C   C6   0.070402  0.321121  0.323797  -0.150408
    H   H3   0.097436  0.321244  0.383831  0.091347
    C   C7   0.103443  0.380623  0.329995  0.187831
    C   C8   0.070060  0.378352  0.252026  -0.219680
    H   H4   0.095998  0.424366  0.256256  0.139493
    C   C9   0.003286  0.317674  0.168705  -0.064914
    H   H5   0.977011  0.316296  0.107869  0.093154
    C   C10  0.970303  0.258492  0.162786  -0.094710
    C   C11  0.241493  0.449199  0.417788  -0.045537
    H   H6   0.235804  0.408974  0.354764  0.069901
    C   C12  0.313382  0.503291  0.499377  -0.021622
    C   C13  0.319828  0.553461  0.580382  0.046185
    C   C14  0.255001  0.546411  0.578429  -0.208844
    H   H7   0.259029  0.586418  0.640334  0.115241
    C   C15  0.183992  0.491163  0.497404  -0.040515
    C   C16  0.177095  0.442288  0.416547  -0.068682
    C   C17  0.421683  0.626258  0.748735  -0.101100
    H   H8   0.393144  0.584486  0.748036  0.073049
    C   C18  0.488513  0.687591  0.831116  -0.124330
    H   H9   0.511863  0.693805  0.894516  0.108593
    C   C19  0.525551  0.741004  0.832730  -0.123877
    H   H10  0.577910  0.789098  0.897358  0.106389
    C   C20  0.495473  0.733345  0.751999  -0.084600
    H   H11  0.524104  0.775550  0.753298  0.087702
    C   C21  0.428663  0.672066  0.669602  -0.148361
    H   H12  0.404876  0.667092  0.606889  0.113505
    C   C22  0.392101  0.617600  0.667368  0.135106
    C   C23  0.142322  0.630081  0.778474  -0.221770
    C   C24  0.184419  0.672847  0.862200  0.081487
    C   C25  0.233489  0.723526  0.960315  0.001369
    C   C26  0.275203  0.767056  0.044021  -0.046336
    C   C27  0.323896  0.818203  0.142126  0.137622
    C   C28  0.365198  0.861719  0.225831  -0.300664
    H   H13  0.075653  0.597854  0.896988  0.093534
    C   C29  0.991517  0.507144  0.752385  -0.041904
    H   H14  0.018364  0.465317  0.754654  0.096885
    C   C30  0.925158  0.486145  0.669681  -0.329440
    H   H15  0.899605  0.427476  0.607736  0.169397
    C   C31  0.890842  0.539512  0.666454  0.308088
    C   C32  0.922272  0.613390  0.746854  -0.216968
    H   H16  0.895183  0.655191  0.745106  0.112910
    C   C33  0.988835  0.634441  0.829442  -0.060361
    H   H17  0.013744  0.692562  0.892112  0.092103
    C   C34  0.023517  0.581355  0.832205  -0.105218
    C   C35  0.752872  0.520138  0.575140  -0.050638
    H   H18  0.755319  0.536900  0.634873  0.100102
    C   C36  0.683473  0.498811  0.494383  -0.092511
    C   C37  0.681223  0.477213  0.418009  0.129706
    C   C38  0.747611  0.474018  0.423024  -0.255139
    H   H19  0.747265  0.459286  0.365120  0.098776
    C   C39  0.816064  0.493415  0.502991  0.120900
    C   C40  0.818910  0.517076  0.579750  -0.180666
    C   C41  0.584989  0.399088  0.247743  -0.043087
    H   H20  0.611960  0.356126  0.240604  0.070217
    C   C42  0.522215  0.387950  0.169286  -0.225488
    H   H21  0.500249  0.336394  0.101332  0.170275
    C   C43  0.487566  0.442530  0.177378  -0.087703
    H   H22  0.438421  0.433806  0.115829  0.130776
    C   C44  0.516342  0.508755  0.263983  -0.161305
    H   H23  0.490055  0.552239  0.270424  0.106936
    C   C45  0.579113  0.519969  0.342476  -0.098303
    H   H24  0.602341  0.572997  0.409933  0.077703
    C   C46  0.612731  0.464350  0.334819  0.092560
    C   C47  0.859662  0.356908  0.227939  -0.154054
    C   C48  0.817139  0.316564  0.144358  0.038312
    C   C49  0.767932  0.269644  0.046457  0.019710
    C   C50  0.726300  0.229638  0.962882  -0.072266
    C   C51  0.677875  0.182587  0.864981  0.125567
    C   C52  0.636800  0.141988  0.781389  -0.257001
    O   O9   0.475855  0.550705  0.419937  -0.478946
    O   O10  0.521634  0.626480  0.574339  -0.543807
    C   C53  0.498326  0.617659  0.497410  0.618922
    O   O11  0.370962  0.479143  0.420557  -0.451545
    O   O12  0.448602  0.521417  0.573406  -0.493702
    C   C54  0.381202  0.502508  0.498360  0.504268
    Cu  Cu3  0.451548  0.454670  0.404462  0.813123
    Cu  Cu4  0.543912  0.543797  0.586220  0.933077
    O   O13  0.441389  0.372319  0.416902  -0.536333
    O   O14  0.551976  0.447366  0.570089  -0.594538
    O   O15  0.546525  0.444298  0.416535  -0.432498
    O   O16  0.624901  0.552658  0.570953  -0.554177
    C   C55  0.496740  0.380380  0.492524  0.712448
    C   C56  0.614552  0.499050  0.492975  0.581650
    O   O17  0.551681  0.091603  0.499240  -0.575305
    O   O18  0.445128  0.090751  0.499970  -0.561520
    C   C57  0.500814  0.122830  0.504987  0.599474
    O   O19  0.489423  0.937897  0.370097  -0.598481
    O   O20  0.380854  0.932402  0.367442  -0.593962
    C   C58  0.414008  0.913154  0.325538  0.882896
    Cu  Cu5  0.563811  0.004798  0.505377  0.993971
    Cu  Cu6  0.438454  0.001796  0.502259  0.984981
    O   O21  0.555646  0.914279  0.504550  -0.568797
    O   O22  0.445707  0.909956  0.498419  -0.572183
    O   O23  0.621110  0.076226  0.640038  -0.629714
    O   O24  0.512948  0.066416  0.637416  -0.635914
    C   C59  0.503800  0.886183  0.507380  0.598924
    C   C60  0.588116  0.092987  0.681889  0.921889
    H   H25  0.161127  0.464142  0.208535  0.102211
    C   C61  0.262373  0.511195  0.229180  -0.089668
    H   H26  0.243055  0.465244  0.159744  0.110812
    C   C62  0.332854  0.570488  0.290229  -0.227978
    H   H27  0.368784  0.571069  0.268645  0.127267
    C   C63  0.357732  0.628922  0.378999  0.230205
    C   C64  0.311431  0.628734  0.406139  -0.199653
    H   H28  0.330425  0.675060  0.475255  0.095662
    C   C65  0.240898  0.569416  0.345054  -0.045523
    H   H29  0.204772  0.569058  0.366484  0.086801
    C   C66  0.216449  0.510591  0.256621  -0.141619
    C   C67  0.434410  0.758532  0.449150  -0.241205
    H   H30  0.381089  0.762418  0.405162  0.146355
    C   C68  0.504182  0.818364  0.507481  0.080954
    C   C69  0.572385  0.811691  0.562224  -0.094758
    C   C70  0.569186  0.745987  0.558522  -0.095704
    H   H31  0.621768  0.741199  0.602479  0.085385
    C   C71  0.499616  0.686079  0.499124  -0.006675
    C   C72  0.432122  0.691898  0.443188  0.027781
    C   C73  0.707440  0.857232  0.619932  -0.175970
    H   H32  0.696945  0.800255  0.564815  0.108382
    C   C74  0.779935  0.913895  0.682397  -0.098024
    H   H33  0.825947  0.901206  0.676183  0.108249
    C   C75  0.793895  0.986553  0.753098  -0.107739
    H   H34  0.850867  0.030872  0.802429  0.096290
    C   C76  0.735382  0.002451  0.761437  -0.125618
    H   H35  0.746813  0.059097  0.817783  0.121228
    C   C77  0.662618  0.946027  0.698531  -0.117384
    H   H36  0.617323  0.958566  0.706327  0.060259
    C   C78  0.648235  0.873359  0.626977  0.225450
    H   H37  0.571639  0.236758  0.219005  0.054276
    C   C79  0.485924  0.232786  0.241283  -0.150326
    C   C80  0.470628  0.237810  0.299732  0.066796
    H   H38  0.412069  0.228226  0.279200  0.043831
    C   C81  0.529554  0.253221  0.383225  -0.109269
    C   C82  0.603447  0.261841  0.407015  -0.020521
    H   H39  0.649423  0.272284  0.471418  0.073058
    C   C83  0.618699  0.256673  0.348462  -0.054073
    C   C84  0.559923  0.242024  0.265546  0.064338
    C   C85  0.516795  0.193548  0.450159  -0.249924
    H   H40  0.530443  0.147395  0.410524  0.160387
    C   C86  0.500128  0.190283  0.504022  0.027112
    C   C87  0.481768  0.249664  0.553702  0.013865
    C   C88  0.480206  0.310669  0.548048  -0.128458
    H   H41  0.468371  0.358216  0.588757  0.106909
    C   C89  0.494935  0.312620  0.492326  -0.104774
    C   C90  0.512615  0.253267  0.442374  0.205218
    C   C91  0.400818  0.259968  0.606827  -0.082757
    H   H42  0.356659  0.260792  0.550482  0.067038
    C   C92  0.388813  0.265297  0.667783  -0.020849
    C   C93  0.444868  0.264483  0.739936  0.019037
    C   C94  0.513048  0.258612  0.751309  -0.037441
    H   H43  0.557397  0.259056  0.808656  0.075460
    C   C95  0.524954  0.252779  0.690073  -0.146438
    H   H44  0.579109  0.249434  0.700351  0.086714
    C   C96  0.468442  0.252571  0.616924  0.129272
    I   I1   0.395767  0.208747  0.113834  -0.007079
    I   I2   0.731202  0.268892  0.384413  -0.064136
    I   I3   0.285083  0.275218  0.651028  -0.012715
    I   I4   0.426935  0.273351  0.833534  -0.064822
