data_DB0-m3_o11_o23_f0_pcu.sym.35_repeat
_audit_creation_date              2024-02-23
_audit_creation_method            'Materials Studio'
_symmetry_space_group_name_H-M    'P1'
_symmetry_Int_Tables_number       1
_symmetry_cell_setting            triclinic
loop_
_symmetry_equiv_pos_as_xyz
  x,y,z
_cell_length_a                    15.9505
_cell_length_b                    11.1683
_cell_length_c                    9.9000
_cell_angle_alpha                 89.9974
_cell_angle_beta                  89.9750
_cell_angle_gamma                 89.9982
loop_
_atom_site_label
_atom_site_type_symbol
_atom_site_fract_x
_atom_site_fract_y
_atom_site_fract_z
_atom_site_U_iso_or_equiv
_atom_site_adp_type
_atom_site_occupancy
O1     O     0.49594   0.32308   0.62107   0.00000  Uiso   1.00
O2     O     0.49994   0.31684   0.38836   0.00000  Uiso   1.00
C1     C     0.49560   0.26413   0.50654   0.00000  Uiso   1.00
O3     O     0.37815   0.51119   0.60799   0.00000  Uiso   1.00
O4     O     0.38096   0.50359   0.37522   0.00000  Uiso   1.00
C2     C     0.34062   0.50965   0.49040   0.00000  Uiso   1.00
Zn1    Zn    0.50205   0.50223   0.65150   0.00000  Uiso   1.00
Zn2    Zn    0.50634   0.49374   0.34417   0.00000  Uiso   1.00
O5     O     0.51003   0.67899   0.60766   0.00000  Uiso   1.00
O6     O     0.51196   0.67310   0.37429   0.00000  Uiso   1.00
O7     O     0.62747   0.49197   0.62085   0.00000  Uiso   1.00
O8     O     0.63040   0.48690   0.38718   0.00000  Uiso   1.00
C3     C     0.51277   0.73195   0.48939   0.00000  Uiso   1.00
C4     C     0.66776   0.48666   0.50524   0.00000  Uiso   1.00
C5     C     0.05615   0.42761   0.61616   0.00000  Uiso   1.00
C6     C     0.05045   0.44920   0.36384   0.00000  Uiso   1.00
C7     C     0.95687   0.42908   0.37687   0.00000  Uiso   1.00
H1     H     0.06237   0.51299   0.28013   0.00000  Uiso   1.00
H2     H     0.08258   0.36394   0.33921   0.00000  Uiso   1.00
H3     H     0.94317   0.33203   0.38126   0.00000  Uiso   1.00
H4     H     0.92529   0.46615   0.28627   0.00000  Uiso   1.00
C8     C     0.75772   0.48650   0.50708   0.00000  Uiso   1.00
C9     C     0.08352   0.50209   0.49471   0.00000  Uiso   1.00
C10    C     0.96085   0.43869   0.63083   0.00000  Uiso   1.00
C11    C     0.92491   0.49317   0.50234   0.00000  Uiso   1.00
C12    C     0.95337   0.62277   0.49504   0.00000  Uiso   1.00
C13    C     0.04812   0.62767   0.50927   0.00000  Uiso   1.00
C14    C     0.83325   0.48864   0.50596   0.00000  Uiso   1.00
C15    C     0.17514   0.50731   0.49027   0.00000  Uiso   1.00
C16    C     0.25066   0.50975   0.48874   0.00000  Uiso   1.00
H5     H     0.06488   0.66458   0.60971   0.00000  Uiso   1.00
H6     H     0.07447   0.68679   0.42987   0.00000  Uiso   1.00
H7     H     0.92384   0.67570   0.57706   0.00000  Uiso   1.00
H8     H     0.08482   0.46745   0.70777   0.00000  Uiso   1.00
H9     H     0.94926   0.50357   0.71356   0.00000  Uiso   1.00
H10    H     0.93473   0.66175   0.39647   0.00000  Uiso   1.00
C17    C     0.49257   0.93516   0.39352   0.00000  Uiso   1.00
C18    C     0.52258   0.86276   0.48988   0.00000  Uiso   1.00
H11    H     0.55484   0.90057   0.57564   0.00000  Uiso   1.00
C19    C     0.50261   0.06661   0.40234   0.00000  Uiso   1.00
C20    C     0.48695   0.13347   0.51276   0.00000  Uiso   1.00
H12    H     0.52002   0.11166   0.30956   0.00000  Uiso   1.00
C21    C     0.55828   0.55560   0.92377   0.00000  Uiso   1.00
N1     N     0.49879   0.50966   0.85330   0.00000  Uiso   1.00
H13    H     0.61239   0.59341   0.87314   0.00000  Uiso   1.00
H14    H     0.44446   0.48839   0.90358   0.00000  Uiso   1.00
C22    C     0.55268   0.56422   0.07259   0.00000  Uiso   1.00
N2     N     0.51070   0.48792   0.14236   0.00000  Uiso   1.00
H15    H     0.58771   0.63378   0.12393   0.00000  Uiso   1.00
H16    H     0.48710   0.41510   0.09168   0.00000  Uiso   1.00
N3     N     0.91795   0.32797   0.66795   0.00000  Uiso   1.00
H17    H     0.94368   0.29482   0.75737   0.00000  Uiso   1.00
H18    H     0.92112   0.26358   0.59203   0.00000  Uiso   1.00
N4     N     0.45437   0.88638   0.27530   0.00000  Uiso   1.00
H19    H     0.42527   0.95664   0.22394   0.00000  Uiso   1.00
H20    H     0.50232   0.85457   0.21306   0.00000  Uiso   1.00
N5     N     0.45377   0.08351   0.63467   0.00000  Uiso   1.00
H21    H     0.50206   0.04724   0.69261   0.00000  Uiso   1.00
H22    H     0.40808   0.01972   0.61195   0.00000  Uiso   1.00
N6     N     0.08692   0.30490   0.60447   0.00000  Uiso   1.00
H23    H     0.08293   0.26325   0.69864   0.00000  Uiso   1.00
H24    H     0.05338   0.25573   0.53329   0.00000  Uiso   1.00
