# Generated by REPEAT Assigner based on pymatgen
data_DB0-m2_o8_o20_f0_pcu.sym.124_sqe
_audit_creation_date              2022-05-24
_audit_creation_method            REPEAT_Assigner
_cell_length_a                    14.440845
_cell_length_b                    15.572354
_cell_length_c                    17.013013
_cell_angle_alpha                 96.366621
_cell_angle_beta                  89.995934
_cell_angle_gamma                 92.606186
_cell_volume                      3798.275791
_symmetry_space_group_name_H-M    P1
_symmetry_Int_Tables_number       1
loop_
    _symmetry_equiv_pos_site_id
    _symmetry_equiv_pos_as_xyz
    1  x,y,z
loop_
    _atom_site_type_symbol
    _atom_site_label
    _atom_site_fract_x
    _atom_site_fract_y
    _atom_site_fract_z
    _atom_type_partial_charge
    O   O1   0.500029  0.421401  0.383125  -0.601531
    O   O2   0.499370  0.581550  0.620328  -0.520305
    O   O3   0.500054  0.569804  0.390959  -0.586012
    O   O4   0.499348  0.433159  0.612513  -0.518723
    C   C1   0.500055  0.493433  0.349902  0.674414
    C   C2   0.498581  0.509351  0.653362  0.549511
    O   O5   0.361993  0.427456  0.500183  -0.461949
    O   O6   0.637645  0.575374  0.503298  -0.616897
    O   O7   0.368535  0.575855  0.502562  -0.619362
    O   O8   0.631064  0.427312  0.500992  -0.627601
    C   C3   0.322223  0.501565  0.501447  0.779053
    C   C4   0.677573  0.501512  0.502257  0.922609
    Cu  Cu1  0.495383  0.415077  0.497176  0.803473
    Cu  Cu2  0.503945  0.587981  0.506370  0.881849
    C   C5   0.222726  0.500988  0.500620  -0.239292
    C   C6   0.776816  0.501905  0.501775  -0.349528
    C   C7   0.139253  0.501376  0.500844  0.081156
    C   C8   0.860279  0.501672  0.501968  0.154570
    C   C9   0.041545  0.501445  0.502050  -0.003688
    C   C10  0.958129  0.501903  0.502492  -0.074600
    C   C11  0.500517  0.487289  0.263296  -0.121681
    C   C12  0.496210  0.514830  0.739939  -0.076047
    C   C13  0.495059  0.560517  0.224708  -0.152559
    C   C14  0.511636  0.442968  0.778123  -0.175320
    C   C15  0.495804  0.554677  0.143311  -0.105943
    C   C16  0.510883  0.448414  0.859760  -0.102096
    C   C17  0.502833  0.474783  0.099149  0.456914
    C   C18  0.494440  0.526615  0.903931  0.436092
    C   C19  0.508689  0.401834  0.137933  -0.359463
    C   C20  0.479542  0.598247  0.865373  -0.350335
    C   C21  0.507375  0.407768  0.219201  0.033795
    C   C22  0.479954  0.592449  0.783985  0.062788
    N   N1   0.504021  0.465951  0.015539  -0.234776
    N   N2   0.493887  0.535557  0.987697  -0.227645
    H   H1   0.526232  0.382088  0.744592  0.181713
    H   H2   0.490221  0.623889  0.257068  0.181148
    H   H3   0.525074  0.391017  0.887183  0.056774
    H   H4   0.491440  0.614405  0.116945  0.060068
    H   H5   0.514457  0.338814  0.105050  0.135060
    H   H6   0.467753  0.659684  0.899197  0.131851
    H   H7   0.512700  0.349184  0.247186  0.104244
    H   H8   0.467120  0.648941  0.755048  0.117162
    N   N3   0.509860  0.717255  0.513918  -0.135452
    N   N4   0.490194  0.285702  0.489880  -0.142506
    C   C23  0.451377  0.753742  0.467098  -0.090170
    C   C24  0.548917  0.248355  0.535555  -0.041373
    C   C25  0.447197  0.842754  0.470077  0.205746
    C   C26  0.554085  0.159540  0.531047  0.107269
    C   C27  0.504925  0.894725  0.522973  0.289132
    C   C28  0.499583  0.107700  0.475374  0.396431
    C   C29  0.564010  0.856135  0.570132  -0.436552
    C   C30  0.443623  0.147245  0.426477  -0.503012
    C   C31  0.564914  0.766966  0.566367  0.400824
    C   C32  0.437857  0.236077  0.434660  0.483524
    N   N5   0.505912  0.986066  0.531277  -0.106912
    N   N6   0.498709  0.016290  0.466961  -0.233762
    H   H9   0.597614  0.288017  0.573681  0.196485
    H   H10  0.405149  0.712592  0.427674  0.217639
    H   H11  0.610047  0.896980  0.609797  0.190792
    H   H12  0.401834  0.108025  0.382168  0.192452
    N   N7   0.623818  0.125773  0.575515  -0.627252
    C   C33  0.608532  0.129062  0.654128  0.662223
    O   O9   0.547132  0.172285  0.684701  -0.522751
    C   C34  0.665129  0.078473  0.704226  -0.427147
    H   H13  0.662806  0.076907  0.549173  0.382792
    H   H14  0.718532  0.043892  0.668101  0.073049
    H   H15  0.619016  0.030905  0.730875  0.136301
    H   H16  0.699355  0.123243  0.751735  0.153071
    N   N8   0.376221  0.878191  0.427756  -0.672027
    C   C35  0.386161  0.871558  0.348330  0.671940
    O   O10  0.444063  0.825112  0.316219  -0.546676
    C   C36  0.329319  0.924019  0.299527  -0.388725
    H   H17  0.344981  0.932392  0.453354  0.415467
    H   H18  0.279871  0.963000  0.336705  0.069211
    H   H19  0.289190  0.881048  0.254029  0.143665
    H   H20  0.375696  0.968663  0.269432  0.113283
    N   N9   0.627683  0.728270  0.613459  -0.478968
    C   C37  0.624513  0.755489  0.691441  0.718629
    O   O11  0.555625  0.788714  0.720038  -0.540652
    C   C38  0.703873  0.742395  0.744187  -0.573699
    H   H21  0.692789  0.718347  0.590457  0.284870
    H   H22  0.759927  0.709806  0.709795  0.126639
    H   H23  0.679292  0.701720  0.790231  0.177606
    H   H24  0.730383  0.806305  0.772589  0.159472
    N   N10  0.378390  0.273920  0.383855  -0.559150
    C   C39  0.287968  0.264502  0.402811  0.785003
    O   O12  0.266303  0.249267  0.469365  -0.571293
    C   C40  0.213693  0.273877  0.343519  -0.599689
    H   H25  0.390892  0.260063  0.324221  0.295673
    H   H26  0.244254  0.291761  0.287486  0.118856
    H   H27  0.167146  0.325356  0.367197  0.193971
    H   H28  0.172423  0.211891  0.331294  0.156865
