# Generated by REPEAT Assigner based on pymatgen
data_DB0-m3_o17_o45_f0_fsc.sym.39
_audit_creation_date              2022-05-24
_audit_creation_method            REPEAT_Assigner
_cell_length_a                    12.785985
_cell_length_b                    13.374631
_cell_length_c                    8.553757
_cell_angle_alpha                 90.000000
_cell_angle_beta                  93.300677
_cell_angle_gamma                 90.000000
_cell_volume                      1460.332907
_symmetry_space_group_name_H-M    P1
_symmetry_Int_Tables_number       1
loop_
    _symmetry_equiv_pos_site_id
    _symmetry_equiv_pos_as_xyz
    1  x,y,z
loop_
    _atom_site_type_symbol
    _atom_site_label
    _atom_site_fract_x
    _atom_site_fract_y
    _atom_site_fract_z
    _atom_type_partial_charge
    C   C1   0.699787  0.991882  0.157997  -0.095466
    C   C2   0.294615  0.008768  0.851737  -0.105805
    C   C3   0.805595  0.014078  0.172996  -0.007529
    C   C4   0.188713  0.987630  0.836186  -0.164468
    C   C5   0.864087  0.010389  0.041836  0.368398
    C   C6   0.129674  0.993055  0.966895  0.364102
    C   C7   0.813749  0.002318  0.893267  -0.349943
    C   C8   0.179940  0.001223  0.115617  -0.278121
    H   H1   0.855940  0.008853  0.787788  0.131490
    H   H2   0.137446  0.996230  0.220945  0.107083
    C   C9   0.706605  0.987243  0.879528  -0.009863
    C   C10  0.287458  0.013884  0.129803  -0.066025
    C   C11  0.652777  0.974148  0.012228  -0.180643
    C   C12  0.341716  0.026039  0.997435  -0.139087
    N   N1   0.974492  0.015273  0.063306  -0.209643
    N   N2   0.019261  0.987759  0.945610  -0.067232
    H   H3   0.570360  0.957636  0.000945  0.132576
    H   H4   0.424350  0.041482  0.008954  0.111462
    O   O1   0.594072  0.909222  0.338087  -0.712264
    O   O2   0.399966  0.091421  0.671321  -0.715263
    O   O3   0.386871  0.918054  0.664903  -0.680847
    O   O4   0.607097  0.082566  0.344405  -0.610739
    C   C13  0.632704  0.994389  0.290074  0.809356
    C   C14  0.361351  0.006208  0.719324  0.865768
    O   O5   0.391128  0.091259  0.335514  -0.770988
    O   O6   0.602815  0.909419  0.673937  -0.739701
    O   O7   0.615076  0.080263  0.677425  -0.704294
    O   O8   0.378928  0.920440  0.331858  -0.726953
    C   C15  0.349157  0.008681  0.279620  0.921833
    C   C16  0.644716  0.992087  0.729852  0.856725
    Zn  Zn1  0.504194  0.113225  0.507102  1.017181
    Zn  Zn2  0.489793  0.887438  0.502239  1.020486
    C   C17  0.502509  0.707458  0.637906  -0.175811
    C   C18  0.491452  0.293200  0.371402  -0.194150
    C   C19  0.467798  0.705274  0.365969  -0.231606
    C   C20  0.526172  0.295389  0.643338  -0.253699
    N   N3   0.483357  0.756232  0.501251  0.141318
    N   N4   0.510630  0.244430  0.508057  0.165814
    C   C21  0.471965  0.602066  0.365741  0.168261
    C   C22  0.521983  0.398594  0.643564  0.197714
    C   C23  0.508721  0.604547  0.641035  0.141634
    C   C24  0.485222  0.396111  0.368271  0.174499
    C   C25  0.493554  0.551680  0.504024  0.027486
    C   C26  0.500389  0.448979  0.505280  -0.021503
    C   C27  0.455975  0.549146  0.227947  -0.169826
    C   C28  0.537964  0.451513  0.781359  -0.193647
    C   C29  0.531466  0.554535  0.780040  -0.171949
    C   C30  0.462469  0.446123  0.229267  -0.191476
    H   H5   0.514964  0.749168  0.745500  0.165191
    H   H6   0.478996  0.251486  0.263812  0.167420
    H   H7   0.453903  0.745400  0.257088  0.181789
    H   H8   0.540070  0.255265  0.752219  0.182572
    H   H9   0.438047  0.588022  0.118966  0.131054
    H   H10  0.555895  0.412637  0.890339  0.140423
    H   H11  0.544735  0.595775  0.887971  0.134012
    H   H12  0.449200  0.404881  0.121336  0.137365
    C   C31  0.859361  0.038059  0.328731  -0.380645
    C   C32  0.893670  0.147180  0.333387  0.592639
    C   C33  0.798998  0.215322  0.336881  -0.276515
    C   C34  0.965381  0.165638  0.477881  -0.440472
    H   H13  0.928990  0.989306  0.347375  0.087216
    H   H14  0.808041  0.024031  0.426266  0.118639
    H   H15  0.936813  0.165460  0.228518  -0.112592
    H   H16  0.757074  0.201542  0.444729  0.044087
    H   H17  0.745782  0.201761  0.232117  0.020390
    H   H18  0.825006  0.294406  0.335783  0.029247
    H   H19  0.925808  0.142729  0.584185  0.096690
    H   H20  0.985442  0.246207  0.486009  0.082903
    H   H21  0.038563  0.122055  0.469263  0.067187
    C   C35  0.137916  0.960754  0.679593  -0.084908
    C   C36  0.139157  0.847656  0.657858  0.522851
    C   C37  0.065620  0.797259  0.766655  -0.362647
    C   C38  0.105993  0.821568  0.489736  -0.426019
    H   H22  0.180374  0.996495  0.585124  0.046469
    H   H23  0.056262  0.988545  0.667625  0.020247
    H   H24  0.219473  0.818996  0.684423  -0.085971
    H   H25  0.986182  0.830355  0.751109  0.045881
    H   H26  0.096016  0.805666  0.889845  0.053224
    H   H27  0.060804  0.716289  0.739306  0.063830
    H   H28  0.025093  0.848356  0.461677  0.094927
    H   H29  0.108706  0.739348  0.473695  0.074510
    H   H30  0.160242  0.856818  0.409568  0.084362
