# Generated by REPEAT Assigner based on pymatgen
data_DB0-m29_o84_o54_f0_pts.sym.51
_audit_creation_date              2022-05-24
_audit_creation_method            REPEAT_Assigner
_cell_length_a                    13.112486
_cell_length_b                    9.476646
_cell_length_c                    27.936625
_cell_angle_alpha                 83.769093
_cell_angle_beta                  97.156932
_cell_angle_gamma                 112.064079
_cell_volume                      3184.967011
_symmetry_space_group_name_H-M    P1
_symmetry_Int_Tables_number       1
loop_
    _symmetry_equiv_pos_site_id
    _symmetry_equiv_pos_as_xyz
    1  x,y,z
loop_
    _atom_site_type_symbol
    _atom_site_label
    _atom_site_fract_x
    _atom_site_fract_y
    _atom_site_fract_z
    _atom_type_partial_charge
    C   C1   0.222146  0.975367  0.948841  -0.017753
    C   C2   0.124354  0.963714  0.921546  -0.141305
    C   C3   0.036983  0.970773  0.942476  0.152608
    C   C4   0.941214  0.961356  0.914192  -0.170522
    C   C5   0.853870  0.972077  0.934115  0.021257
    C   C6   0.230324  0.988989  0.998454  0.012600
    C   C7   0.141601  0.996308  0.019506  0.055243
    C   C8   0.045417  0.988889  0.991171  0.003624
    C   C9   0.957994  0.001341  0.011313  0.047400
    C   C10  0.861996  0.994684  0.982926  -0.032773
    C   C11  0.774005  0.004698  0.003878  0.027293
    C   C12  0.149281  0.017053  0.068435  -0.076856
    C   C13  0.061796  0.027224  0.088401  -0.147784
    C   C14  0.966369  0.019126  0.060038  0.144469
    C   C15  0.879305  0.027424  0.080887  -0.160043
    C   C16  0.782457  0.019190  0.053384  0.050637
    H   H1   0.115834  0.951232  0.883117  0.156204
    H   H2   0.933853  0.945436  0.876004  0.142474
    H   H3   0.780460  0.961040  0.910251  0.096732
    H   H4   0.222367  0.026497  0.092373  0.109809
    H   H5   0.068890  0.042155  0.126648  0.142016
    H   H6   0.887612  0.040016  0.119309  0.152056
    O   O1   0.605159  0.045927  0.055431  -0.427731
    C   C17  0.690126  0.018777  0.078548  0.485941
    O   O2   0.499680  0.723598  0.094036  -0.428101
    O   O3   0.691012  0.985811  0.125404  -0.511436
    O   O4   0.474887  0.842468  0.155315  -0.471567
    C   C18  0.485843  0.722975  0.139789  0.485114
    Fe  Fe1  0.490373  0.998739  0.100731  1.384568
    O   O5   0.343582  0.910495  0.062371  -0.573239
    O   O6   0.418081  0.142866  0.022762  -0.471680
    C   C19  0.335090  0.012419  0.027861  0.583046
    O   O7   0.532858  0.200971  0.129107  -0.555743
    O   O8   0.408632  0.060058  0.182234  -0.501785
    C   C20  0.475066  0.193018  0.165247  0.563413
    O   O9   0.464979  0.812769  0.869759  -0.602961
    O   O10  0.606696  0.945626  0.823776  -0.553619
    C   C21  0.529517  0.816525  0.836923  0.648458
    O   O11  0.666911  0.086429  0.938248  -0.561425
    O   O12  0.581695  0.865293  0.982043  -0.450317
    C   C22  0.670121  0.986866  0.974408  0.546622
    O   O13  0.309854  0.999769  0.876060  -0.537682
    O   O14  0.539449  0.174655  0.847342  -0.452886
    C   C23  0.520920  0.287509  0.863031  0.444290
    O   O15  0.406371  0.971622  0.946816  -0.434266
    C   C24  0.315322  0.979564  0.923400  0.535634
    O   O16  0.488531  0.271565  0.906532  -0.362731
    Fe  Fe2  0.518250  0.012863  0.900428  1.369461
    C   C25  0.425637  0.552323  0.670185  0.416602
    O   O17  0.347558  0.581859  0.689556  -0.484054
    N   N1   0.507675  0.526679  0.699322  -0.115933
    C   C26  0.585177  0.493533  0.680611  0.406728
    C   C27  0.517380  0.413773  0.781410  -0.212178
    C   C28  0.525113  0.422505  0.830883  0.139014
    C   C29  0.521354  0.674808  0.817962  0.118736
    C   C30  0.514482  0.665461  0.768701  -0.255524
    C   C31  0.513200  0.535444  0.750294  0.242007
    C   C32  0.498425  0.511130  0.600771  0.119853
    C   C33  0.420023  0.544700  0.620664  -0.114942
    C   C34  0.335406  0.568564  0.591064  -0.029184
    C   C35  0.581505  0.485503  0.631250  -0.109354
    C   C36  0.530777  0.555783  0.849326  -0.207916
    H   H7   0.512535  0.761927  0.744622  0.172114
    H   H8   0.271416  0.592120  0.605706  0.122868
    C   C37  0.487260  0.461289  0.154638  -0.260269
    C   C38  0.409215  0.532010  0.470611  0.034849
    C   C39  0.565614  0.452489  0.482116  0.045834
    C   C40  0.485424  0.488798  0.451724  0.018953
    C   C41  0.333799  0.574440  0.438464  -0.181410
    C   C42  0.331620  0.568403  0.389447  -0.041351
    C   C43  0.404872  0.521247  0.370953  -0.088065
    C   C44  0.481549  0.481990  0.401958  0.112993
    C   C45  0.554594  0.436243  0.382566  -0.128216
    C   C46  0.550848  0.431442  0.333073  0.423853
    N   N2   0.474835  0.469691  0.303295  -0.119878
    C   C47  0.402084  0.514154  0.321514  0.398573
    C   C48  0.477478  0.591407  0.221664  -0.234428
    C   C49  0.483028  0.589574  0.172649  0.133919
    C   C50  0.479484  0.332838  0.184899  0.167808
    C   C51  0.470355  0.334071  0.233462  -0.278288
    C   C52  0.473012  0.464597  0.252268  0.249166
    O   O18  0.324880  0.548234  0.291549  -0.476559
    C   C53  0.410687  0.533165  0.520831  0.081810
    C   C54  0.493923  0.503468  0.551017  -0.005077
    C   C55  0.572829  0.466359  0.531933  0.068617
    C   C56  0.330299  0.562406  0.541917  -0.211310
    H   H9   0.480039  0.693657  0.236373  0.191382
    H   H10  0.271695  0.602469  0.365995  0.132141
    H   H11  0.275856  0.617272  0.449400  0.132826
    H   H12  0.259540  0.578054  0.521894  0.147768
    O   O19  0.668048  0.472170  0.710081  -0.469795
    C   C57  0.661848  0.454460  0.612269  -0.024704
    H   H13  0.511782  0.309963  0.766706  0.176103
    H   H14  0.729430  0.437137  0.635186  0.124973
    C   C58  0.636380  0.401742  0.461737  -0.180837
    C   C59  0.631161  0.394811  0.412680  -0.025250
    O   O20  0.625712  0.392982  0.314406  -0.472705
    C   C60  0.658153  0.445679  0.563366  -0.206567
    H   H15  0.696178  0.362056  0.482427  0.132070
    H   H16  0.688032  0.355238  0.398582  0.116186
    H   H17  0.463143  0.233081  0.257013  0.174396
    H   H18  0.726459  0.426119  0.551763  0.146706
    H   H19  0.492032  0.458187  0.116457  0.167717
    C   C61  0.561612  0.579713  0.901113  0.397389
    H   H20  0.521238  0.632133  0.921016  0.064363
    O   O21  0.636903  0.544671  0.922064  -0.361285
