# generated using pymatgen
data_ZnH19C23NO5
_symmetry_space_group_name_H-M   'P 1'
_cell_length_a   8.93012500
_cell_length_b   19.42411000
_cell_length_c   18.25846900
_cell_angle_alpha   89.98916600
_cell_angle_beta   97.74717700
_cell_angle_gamma   90.01053800
_symmetry_Int_Tables_number   1
_chemical_formula_structural   ZnH19C23NO5
_chemical_formula_sum   'Zn2 H38 C46 N2 O10'
_cell_volume   3138.20135195
_cell_formula_units_Z   2
loop_
 _symmetry_equiv_pos_site_id
 _symmetry_equiv_pos_as_xyz
  1  'x, y, z'
loop_
 _atom_site_type_symbol
 _atom_site_label
 _atom_site_symmetry_multiplicity
 _atom_site_fract_x
 _atom_site_fract_y
 _atom_site_fract_z
 _atom_site_occupancy
  Zn  Zn1  1  0.51543800  0.49888500  0.58431600  1
  Zn  Zn2  1  0.51181400  0.50115300  0.41733300  1
  H  H1  1  0.99408200  0.50124700  0.41604300  1
  H  H2  1  0.03317500  0.49893800  0.58560900  1
  H  H3  1  0.65845400  0.71898900  0.41992400  1
  H  H4  1  0.66116500  0.28110900  0.59962400  1
  H  H5  1  0.66517200  0.84384200  0.42413100  1
  H  H6  1  0.66803400  0.15627600  0.59621800  1
  H  H7  1  0.36938400  0.71564000  0.58637000  1
  H  H8  1  0.36474300  0.28431900  0.39731200  1
  H  H9  1  0.53229300  0.94332300  0.62137600  1
  H  H10  1  0.52731400  0.05672500  0.38220000  1
  H  H11  1  0.51567600  0.06698900  0.61484200  1
  H  H12  1  0.51145800  0.93303600  0.38674600  1
  H  H13  1  0.68968400  0.57217100  0.71158800  1
  H  H14  1  0.33747700  0.42790200  0.29006500  1
  H  H15  1  0.69397800  0.57315400  0.84552100  1
  H  H16  1  0.33314300  0.42692600  0.15612700  1
  H  H17  1  0.33976400  0.42331700  0.82245900  1
  H  H18  1  0.68745500  0.57671400  0.17917900  1
  H  H19  1  0.34485700  0.42347400  0.68914000  1
  H  H20  1  0.68242400  0.57654000  0.31250600  1
  H  H21  1  0.47213300  0.39097200  0.93298100  1
  H  H22  1  0.55502200  0.60908300  0.06866700  1
  H  H23  1  0.46924300  0.39247300  0.06535800  1
  H  H24  1  0.55789600  0.60758500  0.93628800  1
  H  H25  1  0.41634400  0.88346700  0.70151100  1
  H  H26  1  0.49442900  0.80293600  0.67740200  1
  H  H27  1  0.16594300  0.83401100  0.70136700  1
  H  H28  1  0.22981300  0.75120000  0.67370500  1
  H  H29  1  0.41572700  0.74590700  0.78799100  1
  H  H30  1  0.22455100  0.75602800  0.80863900  1
  H  H31  1  0.35114000  0.82910400  0.81588600  1
  H  H32  1  0.40791900  0.11654800  0.28764500  1
  H  H33  1  0.48690200  0.19712200  0.32143800  1
  H  H34  1  0.15682900  0.16584000  0.25696500  1
  H  H35  1  0.22167200  0.24868300  0.29258100  1
  H  H36  1  0.40368800  0.25415000  0.20092600  1
  H  H37  1  0.21132100  0.24389900  0.15668200  1
  H  H38  1  0.33813800  0.17091700  0.16499200  1
  C  C1  1  0.51315000  0.36543700  0.49901200  1
  C  C2  1  0.51414000  0.63460000  0.50264200  1
  C  C3  1  0.21806600  0.50022500  0.48277800  1
  C  C4  1  0.80919000  0.49982100  0.51887100  1
  C  C5  1  0.05246100  0.50039000  0.47204600  1
  C  C6  1  0.97479400  0.49963700  0.52960300  1
  C  C7  1  0.59526700  0.74595600  0.45751400  1
  C  C8  1  0.59634900  0.25411600  0.55419700  1
  C  C9  1  0.59813100  0.81678600  0.45990400  1
  C  C10  1  0.59930900  0.18329200  0.55214400  1
  C  C11  1  0.51843100  0.85253700  0.50773300  1
  C  C12  1  0.51761600  0.14749800  0.49441700  1
  C  C13  1  0.43765900  0.81598400  0.55510000  1
  C  C14  1  0.43467400  0.18401100  0.43702800  1
  C  C15  1  0.43638500  0.74465000  0.55230200  1
  C  C16  1  0.43329900  0.25534500  0.43969100  1
  C  C17  1  0.51547600  0.70977200  0.50416800  1
  C  C18  1  0.51440300  0.29026300  0.49765300  1
  C  C19  1  0.52006100  0.96736000  0.56793400  1
  C  C20  1  0.51727500  0.03267600  0.43427700  1
  C  C21  1  0.51673700  0.03826400  0.56427600  1
  C  C22  1  0.51439800  0.96176700  0.43755600  1
  C  C23  1  0.51499700  0.07169100  0.49728100  1
  C  C24  1  0.51544500  0.92834100  0.50450900  1
  C  C25  1  0.61319100  0.53928500  0.73667500  1
  C  C26  1  0.41399100  0.46077400  0.26497400  1
  C  C27  1  0.61420200  0.54031400  0.81225300  1
  C  C28  1  0.41295200  0.45975100  0.18939500  1
  C  C29  1  0.51678700  0.49829600  0.84451300  1
  C  C30  1  0.51038400  0.50175800  0.15713300  1
  C  C31  1  0.42019900  0.45574100  0.79963700  1
  C  C32  1  0.60701500  0.54429700  0.20200600  1
  C  C33  1  0.42185000  0.45621100  0.72421700  1
  C  C34  1  0.60539700  0.54381700  0.27742900  1
  C  C35  1  0.48805700  0.43941600  0.96202300  1
  C  C36  1  0.53909100  0.56064000  0.03962300  1
  C  C37  1  0.48634500  0.44028300  0.03742600  1
  C  C38  1  0.54079800  0.55977400  0.96421900  1
  C  C39  1  0.51182200  0.50090400  0.07677400  1
  C  C40  1  0.51532900  0.49915300  0.92487100  1
  C  C41  1  0.39054700  0.83479900  0.67075900  1
  C  C42  1  0.26467700  0.79901400  0.70429700  1
  C  C43  1  0.31778100  0.78141400  0.78446900  1
  C  C44  1  0.38310900  0.16519000  0.31530200  1
  C  C45  1  0.25558900  0.20090400  0.26619800  1
  C  C46  1  0.30574900  0.21857100  0.19238400  1
  N  N1  1  0.51753300  0.49768900  0.69398100  1
  N  N2  1  0.50970900  0.50234400  0.30766800  1
  O  O1  1  0.51629500  0.39653200  0.56300000  1
  O  O2  1  0.51411700  0.60350500  0.43884000  1
  O  O3  1  0.51029400  0.39837600  0.43610900  1
  O  O4  1  0.51401500  0.60166300  0.56536300  1
  O  O5  1  0.28988900  0.49864800  0.55037500  1
  O  O6  1  0.73736200  0.50021100  0.45125200  1
  O  O7  1  0.28707300  0.50168500  0.42373200  1
  O  O8  1  0.74018800  0.49952800  0.57793900  1
  O  O9  1  0.34217900  0.84971900  0.59611600  1
  O  O10  1  0.33749800  0.15021900  0.38416400  1
