# generated using pymatgen
data_Cu3H23C38NO13
_symmetry_space_group_name_H-M   'P 1'
_cell_length_a   30.65780400
_cell_length_b   30.71073400
_cell_length_c   23.39127200
_cell_angle_alpha   90.00000000
_cell_angle_beta   130.94082500
_cell_angle_gamma   90.00000000
_symmetry_Int_Tables_number   1
_chemical_formula_structural   Cu3H23C38NO13
_chemical_formula_sum   'Cu12 H92 C152 N4 O52'
_cell_volume   16636.21192540
_cell_formula_units_Z   4
loop_
 _symmetry_equiv_pos_site_id
 _symmetry_equiv_pos_as_xyz
  1  'x, y, z'
loop_
 _atom_site_type_symbol
 _atom_site_label
 _atom_site_symmetry_multiplicity
 _atom_site_fract_x
 _atom_site_fract_y
 _atom_site_fract_z
 _atom_site_occupancy
  Cu  Cu1  1  0.77812000  0.71497300  0.49731100  1
  Cu  Cu2  1  0.22188000  0.71497300  0.50268900  1
  Cu  Cu3  1  0.27812000  0.21497300  0.49731100  1
  Cu  Cu4  1  0.72188000  0.21497300  0.50268900  1
  Cu  Cu5  1  0.71910700  0.77617900  0.50238200  1
  Cu  Cu6  1  0.28089300  0.77617900  0.49761800  1
  Cu  Cu7  1  0.21910700  0.27617900  0.50238200  1
  Cu  Cu8  1  0.78089300  0.27617900  0.49761800  1
  Cu  Cu9  1  0.46371200  0.49427900  0.42464000  1
  Cu  Cu10  1  0.53628800  0.49427900  0.57536000  1
  Cu  Cu11  1  0.96371200  0.99427900  0.42464000  1
  Cu  Cu12  1  0.03628800  0.99427900  0.57536000  1
  H  H1  1  0.48487000  0.80438200  0.87450900  1
  H  H2  1  0.51513000  0.80438200  0.12549100  1
  H  H3  1  0.98487000  0.30438200  0.87450900  1
  H  H4  1  0.01513000  0.30438200  0.12549100  1
  H  H5  1  0.41729000  0.80183000  0.73632100  1
  H  H6  1  0.58271000  0.80183000  0.26368000  1
  H  H7  1  0.91729000  0.30183000  0.73632100  1
  H  H8  1  0.08271000  0.30183000  0.26368000  1
  H  H9  1  0.32614100  0.69805400  0.74085200  1
  H  H10  1  0.67385900  0.69805400  0.25914800  1
  H  H11  1  0.82614100  0.19805400  0.74085200  1
  H  H12  1  0.17385900  0.19805400  0.25914800  1
  H  H13  1  0.39407700  0.70133700  0.87847600  1
  H  H14  1  0.60592300  0.70133700  0.12152400  1
  H  H15  1  0.89407700  0.20133700  0.87847600  1
  H  H16  1  0.10592300  0.20133700  0.12152400  1
  H  H17  1  0.84304700  0.88265800  0.57298800  1
  H  H18  1  0.15695300  0.88265800  0.42701200  1
  H  H19  1  0.34304700  0.38265800  0.57298800  1
  H  H20  1  0.65695300  0.38265800  0.42701200  1
  H  H21  1  0.90067000  0.93812200  0.57269600  1
  H  H22  1  0.09933000  0.93812200  0.42730500  1
  H  H23  1  0.40067000  0.43812200  0.57269600  1
  H  H24  1  0.59933000  0.43812200  0.42730500  1
  H  H25  1  0.86643800  0.85543100  0.34932400  1
  H  H26  1  0.13356200  0.85543100  0.65067600  1
  H  H27  1  0.36643800  0.35543100  0.34932400  1
  H  H28  1  0.63356200  0.35543100  0.65067600  1
  H  H29  1  0.93661500  0.83072900  0.43468600  1
  H  H30  1  0.06338500  0.83072900  0.56531500  1
  H  H31  1  0.43661500  0.33072900  0.43468600  1
  H  H32  1  0.56338500  0.33072900  0.56531500  1
  H  H33  1  0.81299000  0.79912800  0.35418100  1
  H  H34  1  0.18701000  0.79912800  0.64581900  1
  H  H35  1  0.31299000  0.29912800  0.35418100  1
  H  H36  1  0.68701000  0.29912800  0.64581900  1
  H  H37  1  0.88322800  0.77414600  0.43889000  1
  H  H38  1  0.11677200  0.77414600  0.56111000  1
  H  H39  1  0.38322800  0.27414600  0.43889000  1
  H  H40  1  0.61677200  0.27414600  0.56111000  1
  H  H41  1  0.99601000  0.72126000  0.12592300  1
  H  H42  1  0.00399000  0.72126000  0.87407700  1
  H  H43  1  0.49601000  0.22126000  0.12592300  1
  H  H44  1  0.50399000  0.22126000  0.87407700  1
  H  H45  1  0.06608500  0.72318200  0.26440100  1
  H  H46  1  0.93391500  0.72318200  0.73559900  1
  H  H47  1  0.56608500  0.22318200  0.26440100  1
  H  H48  1  0.43391500  0.22318200  0.73559900  1
  H  H49  1  0.12869600  0.75187600  0.12100400  1
  H  H50  1  0.87130400  0.75187600  0.87899600  1
  H  H51  1  0.62869600  0.25187600  0.12100400  1
  H  H52  1  0.37130400  0.25187600  0.87899600  1
  H  H53  1  0.65739500  0.68518700  0.58301300  1
  H  H54  1  0.34260500  0.68518700  0.41698700  1
  H  H55  1  0.15739500  0.18518700  0.58301300  1
  H  H56  1  0.84260500  0.18518700  0.41698700  1
  H  H57  1  0.60395700  0.62722400  0.58694200  1
  H  H58  1  0.39604300  0.62722400  0.41305800  1
  H  H59  1  0.10395700  0.12722400  0.58694200  1
  H  H60  1  0.89604300  0.12722400  0.41305800  1
  H  H61  1  0.62466900  0.52613900  0.42586400  1
  H  H62  1  0.37533100  0.52613900  0.57413700  1
  H  H63  1  0.12466900  0.02613900  0.42586400  1
  H  H64  1  0.87533100  0.02613900  0.57413700  1
  H  H65  1  0.55606900  0.55586000  0.34769300  1
  H  H66  1  0.44393100  0.55586000  0.65230700  1
  H  H67  1  0.05606900  0.05586000  0.34769300  1
  H  H68  1  0.94393100  0.05586000  0.65230700  1
  H  H69  1  0.68094100  0.58191000  0.42553900  1
  H  H70  1  0.31905900  0.58191000  0.57446200  1
  H  H71  1  0.18094100  0.08191000  0.42553900  1
  H  H72  1  0.81905900  0.08191000  0.57446200  1
  H  H73  1  0.61233300  0.61181900  0.34786400  1
  H  H74  1  0.38766700  0.61181900  0.65213600  1
  H  H75  1  0.11233300  0.11181900  0.34786400  1
  H  H76  1  0.88766700  0.11181900  0.65213600  1
  H  H77  1  0.24436500  0.73451700  0.31535100  1
  H  H78  1  0.32009000  0.77706000  0.35198100  1
  H  H79  1  0.30090800  0.83209200  0.35538300  1
  H  H80  1  0.30357200  0.81666600  0.28310200  1
  H  H81  1  0.75563600  0.73451700  0.68464900  1
  H  H82  1  0.67991000  0.77706000  0.64801900  1
  H  H83  1  0.69909200  0.83209200  0.64461700  1
  H  H84  1  0.69642800  0.81666600  0.71689800  1
  H  H85  1  0.74436500  0.23451700  0.31535100  1
  H  H86  1  0.82009000  0.27706000  0.35198100  1
  H  H87  1  0.80090800  0.33209200  0.35538300  1
  H  H88  1  0.80357200  0.31666600  0.28310200  1
  H  H89  1  0.25563600  0.23451700  0.68464900  1
  H  H90  1  0.17991000  0.27706000  0.64801900  1
  H  H91  1  0.19909200  0.33209200  0.64461700  1
  H  H92  1  0.19642800  0.31666600  0.71689800  1
  C  C1  1  0.80755700  0.80499800  0.50014000  1
  C  C2  1  0.19244300  0.80499800  0.49986000  1
  C  C3  1  0.30755700  0.30499800  0.50014000  1
  C  C4  1  0.69244300  0.30499800  0.49986000  1
  C  C5  1  0.67451600  0.74799900  0.35443000  1
  C  C6  1  0.32548400  0.74799900  0.64557000  1
  C  C7  1  0.17451600  0.24799900  0.35443000  1
  C  C8  1  0.82548400  0.24799900  0.64557000  1
  C  C9  1  0.68919700  0.68622700  0.49879500  1
  C  C10  1  0.31080300  0.68622700  0.50120500  1
  C  C11  1  0.18919700  0.18622700  0.49879500  1
  C  C12  1  0.81080300  0.18622700  0.50120500  1
  C  C13  1  0.82183700  0.74231900  0.64519800  1
  C  C14  1  0.17816300  0.74231900  0.35480300  1
  C  C15  1  0.32183700  0.24231900  0.64519800  1
  C  C16  1  0.67816300  0.24231900  0.35480300  1
  C  C17  1  0.44982900  0.78113500  0.84475200  1
  C  C18  1  0.55017100  0.78113500  0.15524800  1
  C  C19  1  0.94982900  0.28113500  0.84475200  1
  C  C20  1  0.05017100  0.28113500  0.15524800  1
  C  C21  1  0.41161400  0.77952300  0.76671800  1
  C  C22  1  0.58838600  0.77952300  0.23328200  1
  C  C23  1  0.91161400  0.27952300  0.76671800  1
  C  C24  1  0.08838600  0.27952300  0.23328200  1
  C  C25  1  0.36679700  0.74972300  0.72847800  1
  C  C26  1  0.63320300  0.74972300  0.27152200  1
  C  C27  1  0.86679700  0.24972300  0.72847800  1
  C  C28  1  0.13320300  0.24972300  0.27152200  1
  C  C29  1  0.36070800  0.72165000  0.76912000  1
  C  C30  1  0.63929200  0.72165000  0.23088000  1
  C  C31  1  0.86070900  0.22165000  0.76912000  1
  C  C32  1  0.13929200  0.22165000  0.23088000  1
  C  C33  1  0.39895200  0.72339400  0.84698000  1
  C  C34  1  0.60104800  0.72339400  0.15302000  1
  C  C35  1  0.89895200  0.22339400  0.84698000  1
  C  C36  1  0.10104800  0.22339400  0.15302000  1
  C  C37  1  0.44342100  0.75310600  0.88481000  1
  C  C38  1  0.55657900  0.75310600  0.11519000  1
  C  C39  1  0.94342200  0.25310600  0.88481100  1
  C  C40  1  0.05657900  0.25310600  0.11519000  1
  C  C41  1  0.48331600  0.75420000  0.96592800  1
  C  C42  1  0.51668400  0.75420000  0.03407300  1
  C  C43  1  0.98331600  0.25420000  0.96592800  1
  C  C44  1  0.01668400  0.25420000  0.03407300  1
  C  C45  1  0.85870400  0.83418100  0.45955400  1
  C  C46  1  0.14129600  0.83418100  0.54044600  1
  C  C47  1  0.35870400  0.33418100  0.45955400  1
  C  C48  1  0.64129600  0.33418100  0.54044600  1
  C  C49  1  0.84094500  0.83873600  0.49989800  1
  C  C50  1  0.15905500  0.83873600  0.50010300  1
  C  C51  1  0.34094500  0.33873600  0.49989800  1
  C  C52  1  0.65905500  0.33873600  0.50010300  1
  C  C53  1  0.85556500  0.87729900  0.53978500  1
  C  C54  1  0.14443500  0.87729900  0.46021500  1
  C  C55  1  0.35556500  0.37729900  0.53978500  1
  C  C56  1  0.64443500  0.37729900  0.46021500  1
  C  C57  1  0.88840200  0.90873400  0.53980800  1
  C  C58  1  0.11159800  0.90873400  0.46019200  1
  C  C59  1  0.38840200  0.40873400  0.53980800  1
  C  C60  1  0.61159800  0.40873400  0.46019200  1
  C  C61  1  0.90420500  0.90304500  0.49664800  1
  C  C62  1  0.09579500  0.90304500  0.50335200  1
  C  C63  1  0.40420500  0.40304500  0.49664800  1
  C  C64  1  0.59579500  0.40304500  0.50335200  1
  C  C65  1  0.88726200  0.86510600  0.45637600  1
  C  C66  1  0.11273800  0.86510600  0.54362400  1
  C  C67  1  0.38726200  0.36510600  0.45637600  1
  C  C68  1  0.61273800  0.36510600  0.54362400  1
  C  C69  1  0.89151200  0.84019500  0.40594200  1
  C  C70  1  0.10848800  0.84019500  0.59405800  1
  C  C71  1  0.39151200  0.34019500  0.40594200  1
  C  C72  1  0.60848800  0.34019500  0.59405800  1
  C  C73  1  0.85734000  0.80395400  0.40898800  1
  C  C74  1  0.14266000  0.80395400  0.59101200  1
  C  C75  1  0.35734000  0.30395400  0.40898800  1
  C  C76  1  0.64266000  0.30395400  0.59101200  1
  C  C77  1  0.04077400  0.72860100  0.15552100  1
  C  C78  1  0.95922600  0.72860100  0.84448000  1
  C  C79  1  0.54077400  0.22860100  0.15552100  1
  C  C80  1  0.45922700  0.22860100  0.84448000  1
  C  C81  1  0.08044300  0.72945600  0.23354900  1
  C  C82  1  0.91955700  0.72945600  0.76645100  1
  C  C83  1  0.58044300  0.22945600  0.23354900  1
  C  C84  1  0.41955700  0.22945500  0.76645100  1
  C  C85  1  0.13759500  0.73956300  0.27188400  1
  C  C86  1  0.86240500  0.73956300  0.72811700  1
  C  C87  1  0.63759500  0.23956300  0.27188400  1
  C  C88  1  0.36240500  0.23956300  0.72811700  1
  C  C89  1  0.15516700  0.74775900  0.23109900  1
  C  C90  1  0.84483300  0.74775900  0.76890100  1
  C  C91  1  0.65516700  0.24775900  0.23109900  1
  C  C92  1  0.34483300  0.24775900  0.76890200  1
  C  C93  1  0.11511700  0.74646400  0.15298400  1
  C  C94  1  0.88488300  0.74646400  0.84701600  1
  C  C95  1  0.61511700  0.24646400  0.15298400  1
  C  C96  1  0.38488300  0.24646400  0.84701600  1
  C  C97  1  0.05810300  0.73735500  0.11528600  1
  C  C98  1  0.94189700  0.73735500  0.88471400  1
  C  C99  1  0.55810300  0.23735500  0.11528600  1
  C  C100  1  0.44189700  0.23735500  0.88471400  1
  C  C101  1  0.01710100  0.73678800  0.03409400  1
  C  C102  1  0.98289900  0.73678800  0.96590600  1
  C  C103  1  0.51710100  0.23678800  0.03409400  1
  C  C104  1  0.48289900  0.23678800  0.96590600  1
  C  C105  1  0.63881900  0.61548600  0.45906800  1
  C  C106  1  0.36118100  0.61548600  0.54093200  1
  C  C107  1  0.13881900  0.11548600  0.45906800  1
  C  C108  1  0.86118100  0.11548600  0.54093200  1
  C  C109  1  0.65708000  0.65261000  0.50162000  1
  C  C110  1  0.34292000  0.65261000  0.49838000  1
  C  C111  1  0.15708000  0.15261000  0.50162000  1
  C  C112  1  0.84292000  0.15261000  0.49838000  1
  C  C113  1  0.64362800  0.65671800  0.54767600  1
  C  C114  1  0.35637200  0.65671800  0.45232400  1
  C  C115  1  0.14362800  0.15671800  0.54767600  1
  C  C116  1  0.85637200  0.15671800  0.45232400  1
  C  C117  1  0.61371300  0.62370300  0.55036900  1
  C  C118  1  0.38628700  0.62370300  0.44963100  1
  C  C119  1  0.11371300  0.12370300  0.55036900  1
  C  C120  1  0.88628700  0.12370300  0.44963100  1
  C  C121  1  0.59447800  0.58735400  0.50419200  1
  C  C122  1  0.40552200  0.58735400  0.49580800  1
  C  C123  1  0.09447800  0.08735400  0.50419200  1
  C  C124  1  0.90552200  0.08735400  0.49580800  1
  C  C125  1  0.60782400  0.58523800  0.45869600  1
  C  C126  1  0.39217600  0.58523800  0.54130400  1
  C  C127  1  0.10782400  0.08523800  0.45869600  1
  C  C128  1  0.89217600  0.08523800  0.54130400  1
  C  C129  1  0.60142000  0.55754400  0.40168700  1
  C  C130  1  0.39858000  0.55754400  0.59831300  1
  C  C131  1  0.10142000  0.05754400  0.40168700  1
  C  C132  1  0.89858000  0.05754400  0.59831300  1
  C  C133  1  0.63759500  0.59335400  0.40172200  1
  C  C134  1  0.36240500  0.59335400  0.59827900  1
  C  C135  1  0.13759500  0.09335400  0.40172200  1
  C  C136  1  0.86240500  0.09335400  0.59827900  1
  C  C137  1  0.43951500  0.55345500  0.49728200  1
  C  C138  1  0.56048500  0.55345500  0.50271800  1
  C  C139  1  0.93951500  0.05345500  0.49728200  1
  C  C140  1  0.06048500  0.05345500  0.50271800  1
  C  C141  1  0.93939600  0.93539000  0.49748600  1
  C  C142  1  0.06060400  0.93539000  0.50251400  1
  C  C143  1  0.43939600  0.43539000  0.49748600  1
  C  C144  1  0.56060400  0.43539000  0.50251400  1
  C  C145  1  0.23022800  0.79335600  0.26592100  1
  C  C146  1  0.29259200  0.80540800  0.31738300  1
  C  C147  1  0.76977200  0.79335600  0.73407900  1
  C  C148  1  0.70740800  0.80540800  0.68261700  1
  C  C149  1  0.73022800  0.29335600  0.26592100  1
  C  C150  1  0.79259200  0.30540800  0.31738300  1
  C  C151  1  0.26977200  0.29335600  0.73407900  1
  C  C152  1  0.20740800  0.30540800  0.68261700  1
  N  N1  1  0.21418800  0.75280500  0.26785800  1
  N  N2  1  0.78581200  0.75280500  0.73214200  1
  N  N3  1  0.71418800  0.25280500  0.26785800  1
  N  N4  1  0.28581200  0.25280500  0.73214300  1
  O  O1  1  0.82036900  0.76412600  0.50106300  1
  O  O2  1  0.17963100  0.76412600  0.49893700  1
  O  O3  1  0.32036900  0.26412600  0.50106300  1
  O  O4  1  0.67963100  0.26412600  0.49893800  1
  O  O5  1  0.76966600  0.81703400  0.50608200  1
  O  O6  1  0.23033400  0.81703400  0.49391800  1
  O  O7  1  0.26966600  0.31703400  0.50608200  1
  O  O8  1  0.73033400  0.31703400  0.49391800  1
  O  O9  1  0.71666200  0.71963400  0.38773400  1
  O  O10  1  0.28333800  0.71963400  0.61226600  1
  O  O11  1  0.21666200  0.21963400  0.38773500  1
  O  O12  1  0.78333800  0.21963400  0.61226600  1
  O  O13  1  0.66841800  0.77514300  0.39210200  1
  O  O14  1  0.33158200  0.77514300  0.60789800  1
  O  O15  1  0.16841800  0.27514300  0.39210200  1
  O  O16  1  0.83158200  0.27514300  0.60789800  1
  O  O17  1  0.73062000  0.67402700  0.49966500  1
  O  O18  1  0.26938000  0.67402700  0.50033500  1
  O  O19  1  0.23062000  0.17402700  0.49966500  1
  O  O20  1  0.76938000  0.17402700  0.50033500  1
  O  O21  1  0.67951800  0.72700700  0.50394900  1
  O  O22  1  0.32048200  0.72700700  0.49605100  1
  O  O23  1  0.17951800  0.22700700  0.50394900  1
  O  O24  1  0.82048200  0.22700700  0.49605100  1
  O  O25  1  0.82902000  0.71597900  0.60763300  1
  O  O26  1  0.17098000  0.71597900  0.39236700  1
  O  O27  1  0.32902000  0.21597900  0.60763300  1
  O  O28  1  0.67098000  0.21597900  0.39236700  1
  O  O29  1  0.78029400  0.77130300  0.61197300  1
  O  O30  1  0.21970600  0.77130300  0.38802700  1
  O  O31  1  0.28029400  0.27130300  0.61197300  1
  O  O32  1  0.71970700  0.27130300  0.38802700  1
  O  O33  1  0.42419800  0.54035800  0.43293600  1
  O  O34  1  0.57580200  0.54035800  0.56706500  1
  O  O35  1  0.92419800  0.04035800  0.43293600  1
  O  O36  1  0.07580200  0.04035800  0.56706500  1
  O  O37  1  0.48413700  0.53775800  0.56318800  1
  O  O38  1  0.51586300  0.53775800  0.43681200  1
  O  O39  1  0.98413700  0.03775800  0.56318800  1
  O  O40  1  0.01586300  0.03775800  0.43681200  1
  O  O41  1  0.92418600  0.94827900  0.43304700  1
  O  O42  1  0.07581400  0.94827900  0.56695300  1
  O  O43  1  0.42418600  0.44827900  0.43304700  1
  O  O44  1  0.57581400  0.44827900  0.56695300  1
  O  O45  1  0.98426000  0.95085400  0.56330400  1
  O  O46  1  0.01574000  0.95085400  0.43669600  1
  O  O47  1  0.48426000  0.45085400  0.56330400  1
  O  O48  1  0.51574000  0.45085400  0.43669600  1
  O  O49  1  0.19384100  0.82064300  0.22302500  1
  O  O50  1  0.80615900  0.82064300  0.77697500  1
  O  O51  1  0.69384100  0.32064300  0.22302500  1
  O  O52  1  0.30615900  0.32064300  0.77697500  1
