# generated using pymatgen
data_CuH20C25(NO3)3
_symmetry_space_group_name_H-M   'P 1'
_cell_length_a   19.21337200
_cell_length_b   15.93124500
_cell_length_c   14.48947600
_cell_angle_alpha   90.00706100
_cell_angle_beta   89.99617200
_cell_angle_gamma   90.00099500
_symmetry_Int_Tables_number   1
_chemical_formula_structural   CuH20C25(NO3)3
_chemical_formula_sum   'Cu2 H40 C50 N6 O18'
_cell_volume   4435.12621451
_cell_formula_units_Z   2
loop_
 _symmetry_equiv_pos_site_id
 _symmetry_equiv_pos_as_xyz
  1  'x, y, z'
loop_
 _atom_site_type_symbol
 _atom_site_label
 _atom_site_symmetry_multiplicity
 _atom_site_fract_x
 _atom_site_fract_y
 _atom_site_fract_z
 _atom_site_occupancy
  Cu  Cu1  1  0.49720600  0.52093200  0.59308600  1
  Cu  Cu2  1  0.50209600  0.52076500  0.40846600  1
  H  H1  1  0.27946600  0.61374500  0.58700300  1
  H  H2  1  0.71996900  0.61320400  0.41287200  1
  H  H3  1  0.15310000  0.61268800  0.58496300  1
  H  H4  1  0.84633000  0.61186500  0.41476500  1
  H  H5  1  0.60599900  0.07052200  0.42534200  1
  H  H6  1  0.39347600  0.97127200  0.57585900  1
  H  H7  1  0.38436000  0.55095400  0.06281400  1
  H  H8  1  0.61490600  0.49113100  0.93873800  1
  H  H9  1  0.46351300  0.65912900  0.94623400  1
  H  H10  1  0.53575900  0.38296200  0.05532800  1
  H  H11  1  0.36465600  0.43018800  0.89517900  1
  H  H12  1  0.37947000  0.36835600  0.99798800  1
  H  H13  1  0.41857900  0.34317500  0.82401300  1
  H  H14  1  0.61914600  0.67427900  0.00362300  1
  H  H15  1  0.63524300  0.61190400  0.10556800  1
  H  H16  1  0.55349200  0.75076800  0.07522000  1
  H  H17  1  0.17541900  0.39238900  0.29909500  1
  H  H18  1  0.09703400  0.43786300  0.33598900  1
  H  H19  1  0.13924000  0.33007700  0.46508500  1
  H  H20  1  0.82377100  0.39595800  0.70454600  1
  H  H21  1  0.90219200  0.44088700  0.66692900  1
  H  H22  1  0.86005000  0.33106000  0.53981100  1
  H  H23  1  0.35101000  0.38483600  0.40383600  1
  H  H24  1  0.29123900  0.39482100  0.31096100  1
  H  H25  1  0.27197100  0.27391500  0.35334000  1
  H  H26  1  0.64838000  0.38656600  0.59942100  1
  H  H27  1  0.70777800  0.39849300  0.69256900  1
  H  H28  1  0.72364500  0.27545200  0.65128600  1
  H  H29  1  0.64894200  0.01201200  0.62163300  1
  H  H30  1  0.64822500  0.91956600  0.54938400  1
  H  H31  1  0.61749000  0.93710900  0.72552400  1
  H  H32  1  0.35193200  0.12309900  0.45125700  1
  H  H33  1  0.34996200  0.03003000  0.38012500  1
  H  H34  1  0.39013200  0.18799900  0.34318000  1
  H  H35  1  0.55087500  0.92007200  0.30943500  1
  H  H36  1  0.50669200  0.01295900  0.26843000  1
  H  H37  1  0.46269400  0.85592300  0.28438600  1
  H  H38  1  0.49323400  0.02880800  0.73246400  1
  H  H39  1  0.44837300  0.12149800  0.69217400  1
  H  H40  1  0.57600600  0.10349800  0.75553600  1
  C  C1  1  0.50008500  0.35979000  0.50095000  1
  C  C2  1  0.49924300  0.68191900  0.50059800  1
  C  C3  1  0.36612100  0.51812900  0.49507800  1
  C  C4  1  0.63319000  0.51900900  0.50649200  1
  C  C5  1  0.25257800  0.56882600  0.54393400  1
  C  C6  1  0.74680400  0.56884700  0.45668300  1
  C  C7  1  0.18117200  0.56905400  0.54163900  1
  C  C8  1  0.81821800  0.56893500  0.45887700  1
  C  C9  1  0.14551900  0.51329000  0.48646800  1
  C  C10  1  0.85382800  0.51391000  0.51497600  1
  C  C11  1  0.18227900  0.45668600  0.43112800  1
  C  C12  1  0.81702000  0.45822500  0.57135200  1
  C  C13  1  0.25519800  0.45422800  0.43611000  1
  C  C14  1  0.74410300  0.45579100  0.56643100  1
  C  C15  1  0.28997100  0.51277400  0.49133200  1
  C  C16  1  0.70935500  0.51363200  0.51027700  1
  C  C17  1  0.93028700  0.51394600  0.50944600  1
  C  C18  1  0.06905800  0.51361400  0.49191600  1
  C  C19  1  0.55400000  0.99307800  0.54528800  1
  C  C20  1  0.44548500  0.04871200  0.45590200  1
  C  C21  1  0.55788700  0.04779400  0.45940900  1
  C  C22  1  0.44158800  0.99398900  0.54178700  1
  C  C23  1  0.50040900  0.26976500  0.50094900  1
  C  C24  1  0.49901900  0.77196900  0.50058000  1
  C  C25  1  0.49779000  0.04829300  0.58543400  1
  C  C26  1  0.50169300  0.99347800  0.41576900  1
  C  C27  1  0.50074800  0.10235000  0.50022400  1
  C  C28  1  0.49874000  0.93941800  0.50098800  1
  C  C29  1  0.50064300  0.19416000  0.50070200  1
  C  C30  1  0.49885300  0.84758700  0.50072800  1
  C  C31  1  0.47924400  0.59630300  0.97170300  1
  C  C32  1  0.52002100  0.44578200  0.02984900  1
  C  C33  1  0.43675900  0.53826300  0.03394200  1
  C  C34  1  0.56250800  0.50382300  0.96761400  1
  C  C35  1  0.54337400  0.57736100  0.02879900  1
  C  C36  1  0.45589400  0.46472400  0.97276200  1
  C  C37  1  0.50163400  0.52030800  0.08977500  1
  C  C38  1  0.49763500  0.52177600  0.91177700  1
  C  C39  1  0.50418600  0.52057700  0.19067700  1
  C  C40  1  0.49510700  0.52148500  0.81087400  1
  C  C41  1  0.40488600  0.39938700  0.93835300  1
  C  C42  1  0.59439600  0.64261900  0.06335100  1
  C  C43  1  0.14365500  0.40409300  0.36137800  1
  C  C44  1  0.85559500  0.40671100  0.64210600  1
  C  C45  1  0.29514900  0.38592800  0.38663800  1
  C  C46  1  0.70414300  0.38822200  0.61707100  1
  C  C47  1  0.61667000  0.95901900  0.59655800  1
  C  C48  1  0.38291800  0.08274000  0.40434300  1
  C  C49  1  0.50402600  0.95998600  0.31792000  1
  C  C50  1  0.49540100  0.08198200  0.68319700  1
  N  N1  1  0.03382000  0.44089700  0.49740600  1
  N  N2  1  0.96541600  0.58691000  0.50385500  1
  N  N3  1  0.96538400  0.44105700  0.50525800  1
  N  N4  1  0.03407100  0.58675200  0.49618800  1
  N  N5  1  0.50533100  0.52076700  0.27050300  1
  N  N6  1  0.49397100  0.52122300  0.73104900  1
  O  O1  1  0.49534300  0.39893000  0.58015300  1
  O  O2  1  0.50385600  0.64277200  0.42137400  1
  O  O3  1  0.50457400  0.39881500  0.42168300  1
  O  O4  1  0.49484000  0.64289000  0.57989000  1
  O  O5  1  0.39638400  0.52306300  0.57590900  1
  O  O6  1  0.60290800  0.52365000  0.42564500  1
  O  O7  1  0.40071500  0.52277000  0.41738900  1
  O  O8  1  0.59857200  0.52366900  0.58415800  1
  O  O9  1  0.44009600  0.33951300  0.88596000  1
  O  O10  1  0.55936000  0.70192500  0.11672300  1
  O  O11  1  0.12362700  0.32749500  0.40004200  1
  O  O12  1  0.87566400  0.32952800  0.60489200  1
  O  O13  1  0.26889200  0.30737200  0.41077400  1
  O  O14  1  0.73066900  0.30935000  0.59478900  1
  O  O15  1  0.59471000  0.91089300  0.67144900  1
  O  O16  1  0.40502000  0.12996600  0.32882600  1
  O  O17  1  0.44464900  0.91228100  0.30038300  1
  O  O18  1  0.55467300  0.12992900  0.70056400  1
