# generated using pymatgen
data_V2H21C31O10
_symmetry_space_group_name_H-M   'P 1'
_cell_length_a   6.84113400
_cell_length_b   20.57259000
_cell_length_c   24.00152100
_cell_angle_alpha   90.24150500
_cell_angle_beta   89.98419100
_cell_angle_gamma   90.01226800
_symmetry_Int_Tables_number   1
_chemical_formula_structural   V2H21C31O10
_chemical_formula_sum   'V4 H42 C62 O20'
_cell_volume   3377.94013047
_cell_formula_units_Z   2
loop_
 _symmetry_equiv_pos_site_id
 _symmetry_equiv_pos_as_xyz
  1  'x, y, z'
loop_
 _atom_site_type_symbol
 _atom_site_label
 _atom_site_symmetry_multiplicity
 _atom_site_fract_x
 _atom_site_fract_y
 _atom_site_fract_z
 _atom_site_occupancy
  V  V1  1  0.81103100  0.24372600  0.25122200  1
  V  V2  1  0.18873800  0.75647700  0.74931400  1
  V  V3  1  0.31105200  0.25912000  0.25128700  1
  V  V4  1  0.68871700  0.74108400  0.74924800  1
  H  H1  1  0.19215500  0.40558800  0.52591500  1
  H  H2  1  0.80761300  0.59463300  0.47460800  1
  H  H3  1  0.85142000  0.44930600  0.58109600  1
  H  H4  1  0.14834800  0.55091500  0.41942700  1
  H  H5  1  0.32819700  0.53529100  0.52453200  1
  H  H6  1  0.67157200  0.46493000  0.47599100  1
  H  H7  1  0.29803700  0.54185500  0.95751500  1
  H  H8  1  0.70173100  0.45832400  0.04300100  1
  H  H9  1  0.19644300  0.04961500  0.46549100  1
  H  H10  1  0.80332400  0.95060500  0.53505600  1
  H  H11  1  0.18426400  0.97153200  0.54276000  1
  H  H12  1  0.81550300  0.02868700  0.45778700  1
  H  H13  1  0.19117900  0.96196200  0.96203900  1
  H  H14  1  0.80859000  0.03822500  0.03850900  1
  H  H15  1  0.63849200  0.36974900  0.07484000  1
  H  H16  1  0.63822200  0.43762300  0.12345100  1
  H  H17  1  0.54390900  0.35940800  0.14459200  1
  H  H18  1  0.27757000  0.43675700  0.12450200  1
  H  H19  1  0.27802600  0.36853000  0.07550500  1
  H  H20  1  0.45220500  0.43595900  0.00644100  1
  H  H21  1  0.45225400  0.50422900  0.05548800  1
  H  H22  1  0.36155500  0.56255000  0.87706300  1
  H  H23  1  0.36127300  0.63042700  0.92567000  1
  H  H24  1  0.45586400  0.64076400  0.85591900  1
  H  H25  1  0.72173400  0.63165000  0.92501100  1
  H  H26  1  0.72221000  0.56342200  0.87601500  1
  H  H27  1  0.54751500  0.49594900  0.94502700  1
  H  H28  1  0.54756300  0.56422000  0.99407500  1
  H  H29  1  0.89181500  0.13920200  0.08218200  1
  H  H30  1  0.89212400  0.07233200  0.13101100  1
  H  H31  1  0.99672600  0.14990500  0.15087800  1
  H  H32  1  0.25289800  0.06911100  0.12803200  1
  H  H33  1  0.25259500  0.13655300  0.07879700  1
  H  H34  1  0.06058700  0.07090600  0.01240500  1
  H  H35  1  0.06041500  0.00292600  0.06206000  1
  H  H36  1  0.10766000  0.92784400  0.86954600  1
  H  H37  1  0.10794100  0.86097300  0.91837500  1
  H  H38  1  0.00304500  0.85027300  0.84967700  1
  H  H39  1  0.74716500  0.86363200  0.92175600  1
  H  H40  1  0.74688100  0.93107000  0.87251600  1
  H  H41  1  0.93935300  0.99725900  0.93848700  1
  H  H42  1  0.93918300  0.92928200  0.98814400  1
  C  C1  1  0.53027600  0.17361900  0.32935400  1
  C  C2  1  0.46949200  0.82659300  0.67118800  1
  C  C3  1  0.53028200  0.17335800  0.17277500  1
  C  C4  1  0.46948700  0.82683700  0.82776700  1
  C  C5  1  0.03052300  0.32918000  0.17312700  1
  C  C6  1  0.96924600  0.67101500  0.82740100  1
  C  C7  1  0.03033600  0.32947200  0.32974900  1
  C  C8  1  0.96943300  0.67074000  0.67078000  1
  C  C9  1  0.91882800  0.47173000  0.54380200  1
  C  C10  1  0.08094100  0.52849000  0.45672100  1
  C  C11  1  0.10484900  0.44909100  0.51490800  1
  C  C12  1  0.89491900  0.55113000  0.48561500  1
  C  C13  1  0.02091900  0.37520900  0.37498900  1
  C  C14  1  0.97884900  0.62500800  0.62553700  1
  C  C15  1  0.82038700  0.48150100  0.48762800  1
  C  C16  1  0.17938200  0.51872000  0.51289500  1
  C  C17  1  0.00626900  0.45968200  0.45955600  1
  C  C18  1  0.99349900  0.54053900  0.54096700  1
  C  C19  1  0.01393800  0.41343200  0.41312400  1
  C  C20  1  0.98583000  0.58678700  0.58740000  1
  C  C21  1  0.17872600  0.48033400  0.02050900  1
  C  C22  1  0.82104300  0.51984400  0.98000700  1
  C  C23  1  0.00946400  0.45717800  0.04426500  1
  C  C24  1  0.99030500  0.54300200  0.95625200  1
  C  C25  1  0.83189400  0.47698100  0.02393700  1
  C  C26  1  0.16787500  0.52319700  0.97657900  1
  C  C27  1  0.01519400  0.41238100  0.08981900  1
  C  C28  1  0.98457600  0.58780300  0.91070100  1
  C  C29  1  0.97835900  0.62564300  0.87256400  1
  C  C30  1  0.02141100  0.37454500  0.12796100  1
  C  C31  1  0.32296100  0.98410200  0.52409100  1
  C  C32  1  0.67680600  0.01611800  0.47645600  1
  C  C33  1  0.49306500  0.95636700  0.54359600  1
  C  C34  1  0.50670200  0.04385300  0.45695200  1
  C  C35  1  0.66999600  0.97236500  0.51977700  1
  C  C36  1  0.32977100  0.02785500  0.48077000  1
  C  C37  1  0.48576700  0.91075400  0.58860500  1
  C  C38  1  0.51400000  0.08946400  0.41194100  1
  C  C39  1  0.52086100  0.12782900  0.37420000  1
  C  C40  1  0.47890700  0.87238700  0.62634500  1
  C  C41  1  0.32585900  0.97908100  0.97918300  1
  C  C42  1  0.67391100  0.02110600  0.02136400  1
  C  C43  1  0.49624700  0.95640500  0.95638000  1
  C  C44  1  0.50352200  0.04378300  0.04416800  1
  C  C45  1  0.67162300  0.97750200  0.97757300  1
  C  C46  1  0.32814600  0.02268500  0.02297500  1
  C  C47  1  0.48758800  0.91096300  0.91097900  1
  C  C48  1  0.51218100  0.08922600  0.08956700  1
  C  C49  1  0.52032500  0.12753200  0.12761800  1
  C  C50  1  0.47944400  0.87265900  0.87292600  1
  C  C51  1  0.37363600  0.46004400  0.04126500  1
  C  C52  1  0.35589700  0.41298200  0.08946800  1
  C  C53  1  0.55778000  0.39375000  0.10931900  1
  C  C54  1  0.62613300  0.54013500  0.95925000  1
  C  C55  1  0.64387300  0.58719600  0.91104700  1
  C  C56  1  0.44199100  0.60642500  0.89119400  1
  C  C57  1  0.14052000  0.04595300  0.04632100  1
  C  C58  1  0.17180300  0.09335900  0.09394500  1
  C  C59  1  0.97495200  0.11515700  0.11597800  1
  C  C60  1  0.85924900  0.95423300  0.95422800  1
  C  C61  1  0.82796600  0.90682400  0.90660600  1
  C  C62  1  0.02481800  0.88502100  0.88457800  1
  O  O1  1  0.36237800  0.19629700  0.19088400  1
  O  O2  1  0.63739100  0.80389900  0.80965700  1
  O  O3  1  0.70491800  0.18441800  0.30827400  1
  O  O4  1  0.29485000  0.81579100  0.69226600  1
  O  O5  1  0.86234300  0.30655400  0.31162900  1
  O  O6  1  0.13742500  0.69365600  0.68890200  1
  O  O7  1  0.70501100  0.18423800  0.19387100  1
  O  O8  1  0.29475900  0.81595900  0.80667000  1
  O  O9  1  0.86246100  0.30634100  0.19110800  1
  O  O10  1  0.13730900  0.69385600  0.80942300  1
  O  O11  1  0.36228500  0.19649500  0.31139300  1
  O  O12  1  0.63748300  0.80371600  0.68914700  1
  O  O13  1  0.53654500  0.29047500  0.25134500  1
  O  O14  1  0.46322400  0.70972800  0.74918700  1
  O  O15  1  0.20512100  0.31841500  0.19422400  1
  O  O16  1  0.79464800  0.68178200  0.80630600  1
  O  O17  1  0.20501000  0.31861200  0.30863000  1
  O  O18  1  0.79475800  0.68159800  0.69190000  1
  O  O19  1  0.03633300  0.21237800  0.25115400  1
  O  O20  1  0.96343600  0.78782500  0.74938500  1
