# generated using pymatgen
data_ZnH8(C9O2)2
_symmetry_space_group_name_H-M   'P 1'
_cell_length_a   19.46695200
_cell_length_b   30.20250700
_cell_length_c   30.19131600
_cell_angle_alpha   89.98835600
_cell_angle_beta   89.90119200
_cell_angle_gamma   90.07532700
_symmetry_Int_Tables_number   1
_chemical_formula_structural   ZnH8(C9O2)2
_chemical_formula_sum   'Zn8 H64 C144 O32'
_cell_volume   17750.96489670
_cell_formula_units_Z   8
loop_
 _symmetry_equiv_pos_site_id
 _symmetry_equiv_pos_as_xyz
  1  'x, y, z'
loop_
 _atom_site_type_symbol
 _atom_site_label
 _atom_site_symmetry_multiplicity
 _atom_site_fract_x
 _atom_site_fract_y
 _atom_site_fract_z
 _atom_site_occupancy
  Zn  Zn1  1  0.93920100  0.51041100  0.52936000  1
  Zn  Zn2  1  0.05552100  0.51048400  0.46721500  1
  Zn  Zn3  1  0.55470600  0.84648800  0.54137400  1
  Zn  Zn4  1  0.45690900  0.85544500  0.46793300  1
  Zn  Zn5  1  0.29630000  0.21604400  0.83184200  1
  Zn  Zn6  1  0.19260800  0.14547200  0.83079500  1
  Zn  Zn7  1  0.69260800  0.20622600  0.17382400  1
  Zn  Zn8  1  0.80714600  0.14342400  0.16624700  1
  H  H1  1  0.95526900  0.65855300  0.43932700  1
  H  H2  1  0.80518300  0.55806400  0.42037700  1
  H  H3  1  0.68760800  0.57732800  0.40712700  1
  H  H4  1  0.59608900  0.63257700  0.41023500  1
  H  H5  1  0.55945700  0.70682800  0.42814000  1
  H  H6  1  0.70987500  0.80698700  0.44858400  1
  H  H7  1  0.82951900  0.79026500  0.44160700  1
  H  H8  1  0.92108400  0.73512300  0.43765600  1
  H  H9  1  0.18667600  0.55997400  0.58042600  1
  H  H10  1  0.03993300  0.65958700  0.55067500  1
  H  H11  1  0.07499500  0.73590700  0.54862000  1
  H  H12  1  0.16740100  0.79061100  0.54488300  1
  H  H13  1  0.28727400  0.80721800  0.54303900  1
  H  H14  1  0.43465400  0.70870600  0.57658300  1
  H  H15  1  0.39546900  0.63499100  0.59529500  1
  H  H16  1  0.30330800  0.57992500  0.59725600  1
  H  H17  1  0.26190900  0.25757400  0.70441800  1
  H  H18  1  0.05096600  0.24197400  0.73921400  1
  H  H19  1  0.96517100  0.28257200  0.69845300  1
  H  H20  1  0.93575000  0.33985400  0.64456600  1
  H  H21  1  0.97024300  0.39429600  0.59284500  1
  H  H22  1  0.18113500  0.40895300  0.55624300  1
  H  H23  1  0.26530400  0.36099900  0.58990300  1
  H  H24  1  0.29498500  0.30470200  0.64482500  1
  H  H25  1  0.94213400  0.23888100  0.26013900  1
  H  H26  1  0.73232800  0.25161500  0.29898000  1
  H  H27  1  0.70032000  0.29951300  0.35794900  1
  H  H28  1  0.73051300  0.35720600  0.41130100  1
  H  H29  1  0.81462700  0.40666600  0.44295600  1
  H  H30  1  0.02436300  0.39442800  0.40291900  1
  H  H31  1  0.05825400  0.33978800  0.35129000  1
  H  H32  1  0.02833300  0.28131100  0.29878900  1
  H  H33  1  0.52834500  0.97003000  0.59432100  1
  H  H34  1  0.31904300  0.95421200  0.55573400  1
  H  H35  1  0.23301200  0.00158700  0.58835600  1
  H  H36  1  0.20057300  0.05728500  0.64327300  1
  H  H37  1  0.23096700  0.10434900  0.70337000  1
  H  H38  1  0.44067700  0.12220700  0.73973700  1
  H  H39  1  0.52850800  0.08279400  0.69938500  1
  H  H40  1  0.56063700  0.02579400  0.64576400  1
  H  H41  1  0.53411500  0.99662700  0.46318700  1
  H  H42  1  0.69415900  0.91229400  0.41838500  1
  H  H43  1  0.76280200  0.93362600  0.35602800  1
  H  H44  1  0.78240600  0.98275500  0.29303900  1
  H  H45  1  0.75373900  0.04619800  0.25253900  1
  H  H46  1  0.59767600  0.13509300  0.29777700  1
  H  H47  1  0.53563300  0.11687100  0.36503700  1
  H  H48  1  0.51445500  0.06681600  0.42738200  1
  H  H49  1  0.93835400  0.25744800  0.12468600  1
  H  H50  1  0.78962100  0.23915200  0.02352700  1
  H  H51  1  0.82435400  0.24253100  0.94710200  1
  H  H52  1  0.91642600  0.23981300  0.89207900  1
  H  H53  1  0.03605200  0.23379200  0.87543300  1
  H  H54  1  0.18574100  0.25349300  0.97610900  1
  H  H55  1  0.14819600  0.26986600  0.05071600  1
  H  H56  1  0.05611300  0.27175100  0.10584500  1
  H  H57  1  0.30185000  0.10953100  0.97624700  1
  H  H58  1  0.45052400  0.12334800  0.87374200  1
  H  H59  1  0.57033500  0.11590200  0.88966700  1
  H  H60  1  0.66309300  0.11357500  0.94406800  1
  H  H61  1  0.69950500  0.11787500  0.02023900  1
  H  H62  1  0.55083600  0.10621000  0.12297000  1
  H  H63  1  0.43235100  0.09413800  0.10549100  1
  H  H64  1  0.33966300  0.09530000  0.05099500  1
  C  C1  1  0.05297600  0.44539600  0.54567700  1
  C  C2  1  0.06475100  0.57218200  0.54450000  1
  C  C3  1  0.94219800  0.44468600  0.45144600  1
  C  C4  1  0.92946700  0.57142000  0.45152300  1
  C  C5  1  0.57927100  0.78993800  0.46120700  1
  C  C6  1  0.58031800  0.91476000  0.46755100  1
  C  C7  1  0.42022600  0.79165200  0.54103700  1
  C  C8  1  0.44723900  0.91766100  0.54818700  1
  C  C9  1  0.18214900  0.22333100  0.76559700  1
  C  C10  1  0.16701200  0.22212900  0.89192800  1
  C  C11  1  0.30837900  0.13924200  0.76534500  1
  C  C12  1  0.32064500  0.13825300  0.89147500  1
  C  C13  1  0.67744800  0.13246900  0.10791700  1
  C  C14  1  0.69644700  0.12345200  0.23314600  1
  C  C15  1  0.81529900  0.22466200  0.11009000  1
  C  C16  1  0.81031400  0.21766900  0.23648200  1
  C  C17  1  0.90374800  0.64888000  0.43014300  1
  C  C18  1  0.88685500  0.60441300  0.42851200  1
  C  C19  1  0.81940100  0.59267000  0.41984000  1
  C  C20  1  0.76864600  0.62443400  0.41579000  1
  C  C21  1  0.78483600  0.66851200  0.42053600  1
  C  C22  1  0.85264500  0.68080900  0.42656000  1
  C  C23  1  0.70080500  0.61190700  0.41074100  1
  C  C24  1  0.64903600  0.64312100  0.41253300  1
  C  C25  1  0.66464000  0.68715000  0.41963100  1
  C  C26  1  0.73280600  0.69981700  0.42265300  1
  C  C27  1  0.74871000  0.74339400  0.43101000  1
  C  C28  1  0.81663400  0.75609200  0.43494700  1
  C  C29  1  0.86840600  0.72495000  0.43269100  1
  C  C30  1  0.61233800  0.71771100  0.42691200  1
  C  C31  1  0.62842600  0.76093600  0.43800700  1
  C  C32  1  0.69679300  0.77362300  0.43871300  1
  C  C33  1  0.17297600  0.59459500  0.57853600  1
  C  C34  1  0.10642600  0.60602300  0.56706600  1
  C  C35  1  0.09048600  0.65034900  0.56215600  1
  C  C36  1  0.14166500  0.68228500  0.56548100  1
  C  C37  1  0.20863700  0.67023600  0.57468600  1
  C  C38  1  0.22376900  0.62647700  0.58261800  1
  C  C39  1  0.12701800  0.72597900  0.55610200  1
  C  C40  1  0.17926000  0.75685800  0.55394500  1
  C  C41  1  0.24650200  0.74435300  0.56132400  1
  C  C42  1  0.26111400  0.70133100  0.57282700  1
  C  C43  1  0.32865500  0.68893800  0.57974200  1
  C  C44  1  0.34301600  0.64535300  0.58994300  1
  C  C45  1  0.29087200  0.61424300  0.59110400  1
  C  C46  1  0.29928300  0.77422100  0.55449400  1
  C  C47  1  0.36729600  0.76183200  0.55956300  1
  C  C48  1  0.38182500  0.71929900  0.57380300  1
  C  C49  1  0.20832000  0.26484700  0.69866100  1
  C  C50  1  0.15844300  0.24630000  0.72565500  1
  C  C51  1  0.09017200  0.25554900  0.71774100  1
  C  C52  1  0.07290400  0.28560700  0.68480300  1
  C  C53  1  0.12348300  0.30535600  0.65922000  1
  C  C54  1  0.19105800  0.29407200  0.66550200  1
  C  C55  1  0.00527200  0.29759300  0.67870200  1
  C  C56  1  0.98875300  0.32994700  0.64831200  1
  C  C57  1  0.03968300  0.35036800  0.62376500  1
  C  C58  1  0.10689200  0.33760200  0.62854100  1
  C  C59  1  0.15758800  0.35810000  0.60366600  1
  C  C60  1  0.22506100  0.34535400  0.60903600  1
  C  C61  1  0.24174400  0.31354900  0.63999900  1
  C  C62  1  0.02342500  0.38451600  0.59548800  1
  C  C63  1  0.07393400  0.40633600  0.57143900  1
  C  C64  1  0.14116700  0.39216700  0.57463300  1
  C  C65  1  0.90341600  0.25216200  0.28210800  1
  C  C66  1  0.83514600  0.24162300  0.27566300  1
  C  C67  1  0.78592500  0.25983800  0.30338200  1
  C  C68  1  0.80365300  0.29002100  0.33559700  1
  C  C69  1  0.87106900  0.30245900  0.34041900  1
  C  C70  1  0.92113000  0.28301700  0.31425400  1
  C  C71  1  0.75345500  0.30923200  0.36163900  1
  C  C72  1  0.77042000  0.34183600  0.39171600  1
  C  C73  1  0.83769000  0.35562000  0.39570700  1
  C  C74  1  0.88793800  0.33545400  0.37026900  1
  C  C75  1  0.95492700  0.34922200  0.37370900  1
  C  C76  1  0.00541200  0.32911800  0.34859500  1
  C  C77  1  0.98861000  0.29607800  0.31898300  1
  C  C78  1  0.85430500  0.39027400  0.42402100  1
  C  C79  1  0.92125200  0.40535900  0.42597700  1
  C  C80  1  0.97136400  0.38395000  0.40128100  1
  C  C81  1  0.47514000  0.97999200  0.59628600  1
  C  C82  1  0.42566500  0.95774800  0.57197400  1
  C  C83  1  0.35819900  0.97161300  0.57418700  1
  C  C84  1  0.34031400  0.00562600  0.60291400  1
  C  C85  1  0.38991900  0.02655900  0.62821000  1
  C  C86  1  0.45753600  0.01433100  0.62406400  1
  C  C87  1  0.27240200  0.01763700  0.60779600  1
  C  C88  1  0.25415900  0.04909000  0.63877100  1
  C  C89  1  0.30372800  0.06898100  0.66474000  1
  C  C90  1  0.37175500  0.05851100  0.65886500  1
  C  C91  1  0.42118900  0.07866800  0.68492600  1
  C  C92  1  0.48927600  0.06743300  0.67927200  1
  C  C93  1  0.50734300  0.03525100  0.64901800  1
  C  C94  1  0.28488800  0.09775300  0.69797700  1
  C  C95  1  0.33361300  0.11669000  0.72546200  1
  C  C96  1  0.40232600  0.10831400  0.71792400  1
  C  C97  1  0.57836900  0.99123300  0.44220100  1
  C  C98  1  0.61470200  0.95206200  0.44601200  1
  C  C99  1  0.66836000  0.94394700  0.41731900  1
  C  C100  1  0.68294200  0.97361200  0.38366400  1
  C  C101  1  0.64471800  0.01186300  0.37898300  1
  C  C102  1  0.59360400  0.02125500  0.40901200  1
  C  C103  1  0.73289200  0.96358300  0.35289600  1
  C  C104  1  0.74365900  0.99120800  0.31727400  1
  C  C105  1  0.70453500  0.02895100  0.31224800  1
  C  C106  1  0.65551100  0.03962200  0.34317800  1
  C  C107  1  0.61644900  0.07744500  0.33768200  1
  C  C108  1  0.56662300  0.08743800  0.36869900  1
  C  C109  1  0.55489700  0.05926000  0.40401700  1
  C  C110  1  0.71473600  0.05583800  0.27607800  1
  C  C111  1  0.67685100  0.09428600  0.27030200  1
  C  C112  1  0.62723600  0.10504700  0.30138200  1
  C  C113  1  0.92443100  0.25869100  0.09006200  1
  C  C114  1  0.85715900  0.24972200  0.07804600  1
  C  C115  1  0.84085100  0.24868600  0.03348600  1
  C  C116  1  0.89221500  0.25311800  0.00172600  1
  C  C117  1  0.95985200  0.25928000  0.01425600  1
  C  C118  1  0.97553200  0.26347200  0.05845300  1
  C  C119  1  0.87690100  0.24758000  0.95745700  1
  C  C120  1  0.92896400  0.24601100  0.92638300  1
  C  C121  1  0.99674200  0.24999400  0.93928600  1
  C  C122  1  0.01221200  0.25779300  0.98301600  1
  C  C123  1  0.08026300  0.26094400  0.99583100  1
  C  C124  1  0.09536600  0.26747900  0.04002100  1
  C  C125  1  0.04325900  0.26859200  0.07117700  1
  C  C126  1  0.04893000  0.24296900  0.90901600  1
  C  C127  1  0.11722300  0.24381500  0.92177100  1
  C  C128  1  0.13291400  0.25443700  0.96519500  1
  C  C129  1  0.35443300  0.10722500  0.96494300  1
  C  C130  1  0.36982800  0.11595300  0.92105700  1
  C  C131  1  0.43791600  0.11535700  0.90770200  1
  C  C132  1  0.49031400  0.10871200  0.93780700  1
  C  C133  1  0.47517900  0.10284700  0.98191900  1
  C  C134  1  0.40723100  0.10113200  0.99536500  1
  C  C135  1  0.55805300  0.11120900  0.92427700  1
  C  C136  1  0.61049900  0.10989200  0.95500300  1
  C  C137  1  0.59560400  0.10626500  0.99956800  1
  C  C138  1  0.52786000  0.10182200  0.01280300  1
  C  C139  1  0.51250700  0.09952800  0.05721400  1
  C  C140  1  0.44483800  0.09586500  0.07063900  1
  C  C141  1  0.39242200  0.09653700  0.03985700  1
  C  C142  1  0.64767400  0.11046100  0.03080600  1
  C  C143  1  0.63168300  0.11115700  0.07545300  1
  C  C144  1  0.56413400  0.10432900  0.08824500  1
  O  O1  1  0.99514700  0.46370100  0.55733800  1
  O  O2  1  0.09266100  0.55430300  0.50962000  1
  O  O3  1  0.00218000  0.55996300  0.55672200  1
  O  O4  1  0.08615500  0.46029000  0.51044200  1
  O  O5  1  0.99989000  0.46319200  0.43960600  1
  O  O6  1  0.90181800  0.55359800  0.48654300  1
  O  O7  1  0.99214600  0.55949400  0.43933800  1
  O  O8  1  0.90898800  0.45970600  0.48658700  1
  O  O9  1  0.59766300  0.80312600  0.50055100  1
  O  O10  1  0.52340600  0.90139500  0.44920900  1
  O  O11  1  0.60223000  0.89597500  0.50441800  1
  O  O12  1  0.52288800  0.80631100  0.44307300  1
  O  O13  1  0.40488100  0.81148400  0.50397200  1
  O  O14  1  0.49932600  0.89627400  0.56484900  1
  O  O15  1  0.42123400  0.90517600  0.50976900  1
  O  O16  1  0.47953700  0.80045800  0.56043800  1
  O  O17  1  0.23784100  0.23904200  0.78365200  1
  O  O18  1  0.14732800  0.18463300  0.87474100  1
  O  O19  1  0.22663500  0.23943900  0.87975700  1
  O  O20  1  0.15455200  0.18638100  0.78095700  1
  O  O21  1  0.25218800  0.12324600  0.78263700  1
  O  O22  1  0.34067600  0.17610300  0.87524100  1
  O  O23  1  0.26130500  0.12116200  0.87860300  1
  O  O24  1  0.33555400  0.17591400  0.78160300  1
  O  O25  1  0.65179200  0.16635100  0.12885800  1
  O  O26  1  0.75248800  0.11275500  0.21209200  1
  O  O27  1  0.66427200  0.16047700  0.22253400  1
  O  O28  1  0.74064400  0.11926300  0.11710300  1
  O  O29  1  0.84274500  0.18815000  0.12446200  1
  O  O30  1  0.75132000  0.23066000  0.22096300  1
  O  O31  1  0.84181200  0.18341400  0.21825200  1
  O  O32  1  0.75405000  0.23676800  0.12494500  1
