# generated using pymatgen
data_ZnH5C12N3O8
_symmetry_space_group_name_H-M   'P 1'
_cell_length_a   10.97451600
_cell_length_b   9.83933100
_cell_length_c   11.01468700
_cell_angle_alpha   90.00000000
_cell_angle_beta   90.00168100
_cell_angle_gamma   90.00000000
_symmetry_Int_Tables_number   1
_chemical_formula_structural   ZnH5C12N3O8
_chemical_formula_sum   'Zn2 H10 C24 N6 O16'
_cell_volume   1189.38677996
_cell_formula_units_Z   2
loop_
 _symmetry_equiv_pos_site_id
 _symmetry_equiv_pos_as_xyz
  1  'x, y, z'
loop_
 _atom_site_type_symbol
 _atom_site_label
 _atom_site_symmetry_multiplicity
 _atom_site_fract_x
 _atom_site_fract_y
 _atom_site_fract_z
 _atom_site_occupancy
  Zn  Zn1  1  0.50000000  0.65359100  0.50000000  1
  Zn  Zn2  1  0.50000000  0.34423200  0.50000000  1
  H  H1  1  0.50827300  0.28659100  0.10898300  1
  H  H2  1  0.49172700  0.28659100  0.89101700  1
  H  H3  1  0.61478200  0.75115500  0.18972000  1
  H  H4  1  0.38521700  0.75115500  0.81028000  1
  H  H5  1  0.56347600  0.96264500  0.09199900  1
  H  H6  1  0.43652300  0.96264500  0.90800100  1
  H  H7  1  0.10927100  0.28145000  0.50272100  1
  H  H8  1  0.89072900  0.28145000  0.49727900  1
  H  H9  1  0.89031000  0.71525300  0.49945800  1
  H  H10  1  0.10968900  0.71525200  0.50054300  1
  C  C1  1  0.26113000  0.49885700  0.49391500  1
  C  C2  1  0.73887000  0.49885700  0.50608500  1
  C  C3  1  0.51171900  0.49974100  0.26135000  1
  C  C4  1  0.48828100  0.49974100  0.73865000  1
  C  C5  1  0.55994900  0.74676800  0.10866300  1
  C  C6  1  0.44005000  0.74676800  0.89133700  1
  C  C7  1  0.53445100  0.86781500  0.05183900  1
  C  C8  1  0.46554900  0.86781500  0.94816100  1
  C  C9  1  0.48088400  0.62447200  0.93998300  1
  C  C10  1  0.51911600  0.62447200  0.06001700  1
  C  C11  1  0.51740400  0.50293100  0.12620000  1
  C  C12  1  0.48259500  0.50293100  0.87380000  1
  C  C13  1  0.50535000  0.38275100  0.06244200  1
  C  C14  1  0.49465000  0.38275100  0.93755800  1
  C  C15  1  0.06282000  0.37774600  0.49976800  1
  C  C16  1  0.93717900  0.37774600  0.50023200  1
  C  C17  1  0.87305700  0.49857000  0.50300700  1
  C  C18  1  0.12694200  0.49857000  0.49699300  1
  C  C19  1  0.93717400  0.61927400  0.50093400  1
  C  C20  1  0.06282500  0.61927400  0.49906600  1
  C  C21  1  0.57308300  0.06933100  0.57584900  1
  C  C22  1  0.42691700  0.06933100  0.42415100  1
  C  C23  1  0.57864800  0.92877200  0.57026500  1
  C  C24  1  0.42135100  0.92877200  0.42973500  1
  N  N1  1  0.50000000  0.85760100  0.50000000  1
  N  N2  1  0.50000000  0.14026800  0.50000000  1
  N  N3  1  0.64086400  0.13657200  0.66830400  1
  N  N4  1  0.35913600  0.13657200  0.33169600  1
  N  N5  1  0.67324500  0.86196300  0.63581600  1
  N  N6  1  0.32675500  0.86196300  0.36418400  1
  O  O1  1  0.31847800  0.61601900  0.49443900  1
  O  O2  1  0.68152200  0.61601900  0.50556100  1
  O  O3  1  0.31856200  0.38186200  0.49422000  1
  O  O4  1  0.68143700  0.38186200  0.50578000  1
  O  O5  1  0.50624300  0.61552900  0.31962700  1
  O  O6  1  0.49375600  0.61552900  0.68037300  1
  O  O7  1  0.50682200  0.38198000  0.31884500  1
  O  O8  1  0.49317700  0.38198000  0.68115500  1
  O  O9  1  0.75078200  0.17711900  0.64434700  1
  O  O10  1  0.61372600  0.10950300  0.78053900  1
  O  O11  1  0.24921700  0.17711900  0.35565300  1
  O  O12  1  0.38627300  0.10950300  0.21946100  1
  O  O13  1  0.78520800  0.89715000  0.61379200  1
  O  O14  1  0.64877300  0.80676600  0.73997100  1
  O  O15  1  0.21479200  0.89715000  0.38620800  1
  O  O16  1  0.35122600  0.80676600  0.26002900  1
