# Generated by REPEAT Assigner based on pymatgen
data_DB0-m3_o17_o450_f0_fsc.sym.25
_audit_creation_date              2022-05-24
_audit_creation_method            REPEAT_Assigner
_cell_length_a                    8.563915
_cell_length_b                    12.732790
_cell_length_c                    13.374214
_cell_angle_alpha                 90.890464
_cell_angle_beta                  90.062217
_cell_angle_gamma                 95.473475
_cell_volume                      1451.528605
_symmetry_space_group_name_H-M    P1
_symmetry_Int_Tables_number       1
loop_
    _symmetry_equiv_pos_site_id
    _symmetry_equiv_pos_as_xyz
    1  x,y,z
loop_
    _atom_site_type_symbol
    _atom_site_label
    _atom_site_fract_x
    _atom_site_fract_y
    _atom_site_fract_z
    _atom_type_partial_charge
    C   C1   0.160747  0.704473  0.006913  0.003355
    C   C2   0.839253  0.295527  0.993087  0.003370
    C   C3   0.174257  0.812098  0.991446  -0.430736
    C   C4   0.825743  0.187902  0.008554  -0.430754
    H   H1   0.287504  0.852971  0.974848  0.154204
    H   H2   0.712495  0.147028  0.025152  0.154207
    C   C5   0.043379  0.868325  0.000464  0.557972
    C   C6   0.956620  0.131675  0.999536  0.557989
    C   C7   0.896724  0.815013  0.017207  -0.229832
    C   C8   0.103276  0.184986  0.982792  -0.229846
    H   H3   0.789680  0.853572  0.015144  0.077339
    H   H4   0.210319  0.146428  0.984856  0.077350
    C   C9   0.883994  0.708357  0.034264  -0.135856
    C   C10  0.116006  0.291643  0.965736  -0.135861
    C   C11  0.016562  0.655009  0.033160  -0.052214
    C   C12  0.983438  0.344991  0.966840  -0.052211
    N   N1   0.061252  0.979231  0.990115  -0.257701
    N   N2   0.938748  0.020769  0.009885  -0.257704
    H   H5   0.004355  0.571583  0.045646  0.094183
    H   H6   0.995645  0.428417  0.954354  0.094182
    O   O1   0.670872  0.599576  0.107773  -0.767185
    O   O2   0.329127  0.400424  0.892227  -0.767175
    O   O3   0.679530  0.623897  0.937029  -0.690263
    O   O4   0.320469  0.376103  0.062971  -0.690260
    C   C13  0.731571  0.646316  0.027698  0.942668
    C   C14  0.268428  0.353684  0.972302  0.942654
    O   O5   0.664858  0.404684  0.917141  -0.721675
    O   O6   0.335142  0.595316  0.082858  -0.721680
    O   O7   0.643934  0.381175  0.087148  -0.729824
    O   O8   0.356066  0.618824  0.912852  -0.729836
    C   C15  0.704442  0.359375  0.999408  0.872070
    C   C16  0.295557  0.640625  0.000591  0.872092
    Zn  Zn1  0.512708  0.512115  0.889366  1.036339
    Zn  Zn2  0.487291  0.487885  0.110634  1.036324
    C   C17  0.331615  0.486069  0.299493  -0.135140
    C   C18  0.668384  0.513931  0.700507  -0.135142
    N   N3   0.462137  0.476413  0.241179  0.055332
    N   N4   0.537862  0.523586  0.758821  0.055329
    C   C19  0.602212  0.474374  0.286954  -0.127899
    C   C20  0.397788  0.525626  0.713046  -0.127895
    C   C21  0.617098  0.481779  0.389318  0.175772
    C   C22  0.382902  0.518221  0.610682  0.175764
    C   C23  0.490828  0.494605  0.448487  0.020019
    C   C24  0.509171  0.505394  0.551512  0.020029
    C   C25  0.346718  0.497108  0.403962  0.108417
    C   C26  0.653281  0.502892  0.596038  0.108411
    C   C27  0.761141  0.478415  0.432293  -0.238501
    C   C28  0.238858  0.521584  0.567707  -0.238500
    C   C29  0.780243  0.488027  0.534115  -0.111095
    C   C30  0.219757  0.511973  0.465885  -0.111086
    H   H7   0.707131  0.470079  0.243262  0.177065
    H   H8   0.292869  0.529921  0.756738  0.177063
    H   H9   0.860117  0.467416  0.385592  0.190319
    H   H10  0.139882  0.532584  0.614408  0.190317
    H   H11  0.896929  0.481859  0.560177  0.121872
    H   H12  0.103070  0.518141  0.439823  0.121861
    C   C31  0.166457  0.483506  0.259263  0.735942
    F   F1   0.150525  0.466365  0.159031  -0.178766
    F   F2   0.107107  0.578574  0.280800  -0.249842
    F   F3   0.076863  0.401554  0.304312  -0.266336
    C   C32  0.833543  0.516494  0.740737  0.735951
    F   F4   0.849475  0.533635  0.840969  -0.178772
    F   F5   0.923137  0.598446  0.695688  -0.266338
    F   F6   0.892893  0.421425  0.719200  -0.249843
