# generated using pymatgen
data_V4H15C44O20F9
_symmetry_space_group_name_H-M   'P 1'
_cell_length_a   6.32418600
_cell_length_b   15.64349500
_cell_length_c   16.30103700
_cell_angle_alpha   101.65672500
_cell_angle_beta   90.73237700
_cell_angle_gamma   90.74311700
_symmetry_Int_Tables_number   1
_chemical_formula_structural   V4H15C44O20F9
_chemical_formula_sum   'V4 H15 C44 O20 F9'
_cell_volume   1579.11124019
_cell_formula_units_Z   1
loop_
 _symmetry_equiv_pos_site_id
 _symmetry_equiv_pos_as_xyz
  1  'x, y, z'
loop_
 _atom_site_type_symbol
 _atom_site_label
 _atom_site_symmetry_multiplicity
 _atom_site_fract_x
 _atom_site_fract_y
 _atom_site_fract_z
 _atom_site_occupancy
  V  V1  1  0.07241400  0.48738400  0.49757700  1
  V  V2  1  0.57306300  0.50849000  0.49875900  1
  V  V3  1  0.68189400  0.00930700  0.99898100  1
  V  V4  1  0.18106900  0.98801400  0.99788900  1
  H  H1  1  0.18537700  0.64984500  0.16107500  1
  H  H2  1  0.56862200  0.84694800  0.33570300  1
  H  H3  1  0.13579700  0.55170300  0.25961600  1
  H  H4  1  0.65887800  0.71731800  0.38392100  1
  H  H5  1  0.89899300  0.79531300  0.61475500  1
  H  H6  1  0.54107300  0.67158600  0.75418300  1
  H  H7  1  0.16705800  0.64898500  0.75897700  1
  H  H8  1  0.44559800  0.11681700  0.30117400  1
  H  H9  1  0.70762900  0.26739900  0.32763600  1
  H  H10  1  0.66239700  0.27049500  0.15541900  1
  H  H11  1  0.30915700  0.37998100  0.19529100  1
  H  H12  1  0.04716400  0.22939000  0.16883400  1
  H  H13  1  0.09240100  0.22630900  0.34104700  1
  H  H14  1  0.67939900  0.06177400  0.75832900  1
  H  H15  1  0.70088400  0.16136600  0.65991500  1
  C  C1  1  0.36332300  0.39090700  0.37872900  1
  C  C2  1  0.32835600  0.42610300  0.60942200  1
  C  C3  1  0.84178900  0.60447700  0.61794400  1
  C  C4  1  0.87542400  0.57011900  0.38738200  1
  C  C5  1  0.86078400  0.86891900  0.16929000  1
  C  C6  1  0.89307000  0.62785800  0.32744400  1
  C  C7  1  0.06917500  0.66465200  0.20975900  1
  C  C8  1  0.04067200  0.60942700  0.26492600  1
  C  C9  1  0.77336200  0.70204900  0.33463400  1
  C  C10  1  0.80289900  0.75767300  0.27956700  1
  C  C11  1  0.95096400  0.73910200  0.21717400  1
  C  C12  1  0.98046900  0.79472900  0.16211700  1
  C  C13  1  0.71324000  0.88740000  0.23183500  1
  C  C14  1  0.68475700  0.83214400  0.28699300  1
  C  C15  1  0.72240700  0.80056800  0.74185900  1
  C  C16  1  0.88862000  0.77439800  0.67567100  1
  C  C17  1  0.86401900  0.68119700  0.68744000  1
  C  C18  1  0.69347400  0.70685700  0.75197900  1
  C  C19  1  0.86597600  0.72205000  0.81907000  1
  C  C20  1  0.03565900  0.69419100  0.75460900  1
  C  C21  1  0.05642500  0.78816900  0.74446000  1
  C  C22  1  0.89031300  0.81513200  0.80933400  1
  C  C23  1  0.55812800  0.25769300  0.29039700  1
  C  C24  1  0.41377700  0.17756600  0.27824700  1
  C  C25  1  0.38869500  0.18281300  0.18742100  1
  C  C26  1  0.53299000  0.26158000  0.19834100  1
  C  C27  1  0.34101200  0.31923800  0.21822200  1
  C  C28  1  0.19666700  0.23911000  0.20607300  1
  C  C29  1  0.22180500  0.23522300  0.29812500  1
  C  C30  1  0.36610100  0.31399100  0.30905000  1
  C  C31  1  0.42485300  0.12864300  0.82698800  1
  C  C32  1  0.32974100  0.36799000  0.66945600  1
  C  C33  1  0.16989100  0.32477600  0.78755400  1
  C  C34  1  0.18256500  0.38087000  0.73243900  1
  C  C35  1  0.46503600  0.29841500  0.66179600  1
  C  C36  1  0.45119900  0.24181100  0.71680000  1
  C  C37  1  0.30345400  0.25482700  0.77963200  1
  C  C38  1  0.28965500  0.19824600  0.83466200  1
  C  C39  1  0.57194700  0.11576200  0.76398400  1
  C  C40  1  0.58477500  0.17186700  0.70888800  1
  C  C41  1  0.42620800  0.07057100  0.88705900  1
  C  C42  1  0.39133200  0.10588500  0.11776000  1
  C  C43  1  0.87853400  0.92660400  0.10929300  1
  C  C44  1  0.91278000  0.89189300  0.87877000  1
  O  O1  1  0.45055200  0.41089400  0.54360600  1
  O  O2  1  0.24526300  0.38700500  0.44494000  1
  O  O3  1  0.03132000  0.51473600  0.38595900  1
  O  O4  1  0.16241400  0.47424000  0.61065300  1
  O  O5  1  0.95588400  0.60105900  0.55113200  1
  O  O6  1  0.52881200  0.44364600  0.38315600  1
  O  O7  1  0.34901200  0.56416800  0.49971300  1
  O  O8  1  0.66624500  0.55994700  0.61438800  1
  O  O9  1  0.75077600  0.59291000  0.45350900  1
  O  O10  1  0.84483600  0.43125100  0.49364900  1
  O  O11  1  0.22555800  0.05331100  0.11332000  1
  O  O12  1  0.59204800  0.02238800  0.88586800  1
  O  O13  1  0.79821600  0.89556200  0.94549900  1
  O  O14  1  0.50922100  0.10977200  0.05152600  1
  O  O15  1  0.72280000  0.98204400  0.11064700  1
  O  O16  1  0.30405900  0.08586500  0.95287800  1
  O  O17  1  0.40517400  0.93260600  0.99688300  1
  O  O18  1  0.00307700  0.90370100  0.04316600  1
  O  O19  1  0.08803700  0.93659600  0.88223500  1
  O  O20  1  0.90955100  0.06537400  0.00288500  1
  F  F1  1  0.12401600  0.77560800  0.10035200  1
  F  F2  1  0.85355900  0.69658000  0.89528000  1
  F  F3  1  0.24500400  0.83297000  0.74224900  1
  F  F4  1  0.14679000  0.21223700  0.89701300  1
  F  F5  1  0.59416200  0.95980100  0.23854000  1
  F  F6  1  0.02440600  0.33794000  0.84895900  1
  F  F7  1  0.04779500  0.44851100  0.73950600  1
  F  F8  1  0.60809000  0.28449700  0.59951100  1
  F  F9  1  0.56172100  0.85828300  0.73678600  1
