data_DB0-m3_o16_o25_f0_pcu.sym.28_repeat
_audit_creation_date              2024-02-20
_audit_creation_method            'Materials Studio'
_symmetry_space_group_name_H-M    'P1'
_symmetry_Int_Tables_number       1
_symmetry_cell_setting            triclinic
loop_
_symmetry_equiv_pos_as_xyz
  x,y,z
_cell_length_a                    12.5819
_cell_length_b                    13.7266
_cell_length_c                    16.0003
_cell_angle_alpha                 90.0025
_cell_angle_beta                  102.1943
_cell_angle_gamma                 86.6438
loop_
_atom_site_label
_atom_site_type_symbol
_atom_site_fract_x
_atom_site_fract_y
_atom_site_fract_z
_atom_site_U_iso_or_equiv
_atom_site_adp_type
_atom_site_occupancy
O1     O     0.37789   0.62640   0.49374   0.00000  Uiso   1.00
O2     O     0.56047   0.65555   0.52433   0.00000  Uiso   1.00
C1     C     0.45723   0.68650   0.50768   0.00000  Uiso   1.00
O3     O     0.41946   0.47709   0.61956   0.00000  Uiso   1.00
O4     O     0.60262   0.50611   0.64835   0.00000  Uiso   1.00
C2     C     0.51211   0.48961   0.67290   0.00000  Uiso   1.00
Zn1    Zn    0.38573   0.47863   0.49001   0.00000  Uiso   1.00
Zn2    Zn    0.62688   0.51717   0.52756   0.00000  Uiso   1.00
O5     O     0.45199   0.34003   0.49486   0.00000  Uiso   1.00
O6     O     0.63460   0.36944   0.52347   0.00000  Uiso   1.00
O7     O     0.41020   0.48904   0.36925   0.00000  Uiso   1.00
O8     O     0.59233   0.52045   0.39798   0.00000  Uiso   1.00
C3     C     0.55522   0.30977   0.50880   0.00000  Uiso   1.00
C4     C     0.50022   0.50659   0.34461   0.00000  Uiso   1.00
C5     C     0.43588   0.57107   0.02038   0.00000  Uiso   1.00
C6     C     0.53797   0.58254   0.98471   0.00000  Uiso   1.00
H1     H     0.56803   0.65129   0.96466   0.00000  Uiso   1.00
H2     H     0.37749   0.63076   0.03172   0.00000  Uiso   1.00
C7     C     0.51300   0.48966   0.76274   0.00000  Uiso   1.00
C8     C     0.49918   0.50682   0.25475   0.00000  Uiso   1.00
C9     C     0.40757   0.48371   0.96278   0.00000  Uiso   1.00
C10    C     0.50953   0.49487   0.92884   0.00000  Uiso   1.00
C11    C     0.47242   0.41441   0.03202   0.00000  Uiso   1.00
C12    C     0.50066   0.50172   0.08829   0.00000  Uiso   1.00
C13    C     0.57466   0.42521   0.99640   0.00000  Uiso   1.00
C14    C     0.59970   0.51243   0.05259   0.00000  Uiso   1.00
C15    C     0.51212   0.49137   0.83789   0.00000  Uiso   1.00
C16    C     0.49944   0.50523   0.17949   0.00000  Uiso   1.00
H3     H     0.63438   0.36626   0.98590   0.00000  Uiso   1.00
H4     H     0.44392   0.34537   0.05297   0.00000  Uiso   1.00
H5     H     0.32638   0.47135   0.92250   0.00000  Uiso   1.00
C17    C     0.70473   0.07999   0.46690   0.00000  Uiso   1.00
H6     H     0.74029   0.22880   0.47576   0.00000  Uiso   1.00
H7     H     0.78126   0.06068   0.44901   0.00000  Uiso   1.00
C18    C     0.58343   0.20532   0.50159   0.00000  Uiso   1.00
C19    C     0.33157   0.81680   0.53719   0.00000  Uiso   1.00
C20    C     0.30258   0.91227   0.55037   0.00000  Uiso   1.00
C21    C     0.36875   0.98488   0.53891   0.00000  Uiso   1.00
C22    C     0.46476   0.96373   0.51035   0.00000  Uiso   1.00
C23    C     0.49248   0.86631   0.49455   0.00000  Uiso   1.00
C24    C     0.53426   0.03710   0.49813   0.00000  Uiso   1.00
C25    C     0.63098   0.01075   0.47303   0.00000  Uiso   1.00
C26    C     0.65301   0.91560   0.45158   0.00000  Uiso   1.00
C27    C     0.58284   0.84525   0.45954   0.00000  Uiso   1.00
C28    C     0.51019   0.13643   0.50963   0.00000  Uiso   1.00
C29    C     0.68202   0.17626   0.48270   0.00000  Uiso   1.00
C30    C     0.42739   0.79199   0.51138   0.00000  Uiso   1.00
H8     H     0.43488   0.16390   0.52450   0.00000  Uiso   1.00
H9     H     0.27980   0.76138   0.55070   0.00000  Uiso   1.00
H10    H     0.34117   0.05694   0.55396   0.00000  Uiso   1.00
H11    H     0.22840   0.93038   0.57238   0.00000  Uiso   1.00
H12    H     0.60086   0.77414   0.43600   0.00000  Uiso   1.00
C31    C     0.08533   0.36682   0.38511   0.00000  Uiso   1.00
H13    H     0.24967   0.35238   0.37114   0.00000  Uiso   1.00
H14    H     0.87988   0.33634   0.35800   0.00000  Uiso   1.00
H15    H     0.05855   0.31424   0.33599   0.00000  Uiso   1.00
N1     N     0.22678   0.45329   0.46564   0.00000  Uiso   1.00
C32    C     0.81340   0.60816   0.61301   0.00000  Uiso   1.00
C33    C     0.91938   0.63419   0.63675   0.00000  Uiso   1.00
C34    C     0.99756   0.59258   0.59742   0.00000  Uiso   1.00
C35    C     0.96989   0.52426   0.53353   0.00000  Uiso   1.00
C36    C     0.86129   0.50005   0.51152   0.00000  Uiso   1.00
C37    C     0.04691   0.47942   0.49097   0.00000  Uiso   1.00
C38    C     0.01269   0.41212   0.42801   0.00000  Uiso   1.00
C39    C     0.90594   0.38907   0.40715   0.00000  Uiso   1.00
C40    C     0.83130   0.43244   0.44839   0.00000  Uiso   1.00
C41    C     0.15732   0.49892   0.50868   0.00000  Uiso   1.00
C42    C     0.19260   0.38819   0.40474   0.00000  Uiso   1.00
N2     N     0.78526   0.54212   0.55139   0.00000  Uiso   1.00
H16    H     0.19139   0.54989   0.55642   0.00000  Uiso   1.00
H17    H     0.75167   0.64086   0.64374   0.00000  Uiso   1.00
H18    H     0.07865   0.61604   0.61913   0.00000  Uiso   1.00
H19    H     0.74921   0.41163   0.42978   0.00000  Uiso   1.00
N3     N     0.94922   0.70420   0.70207   0.00000  Uiso   1.00
H20    H     0.87993   0.72866   0.72387   0.00000  Uiso   1.00
H21    H     0.97754   0.76364   0.67436   0.00000  Uiso   1.00
N4     N     0.70626   0.52858   0.10476   0.00000  Uiso   1.00
H22    H     0.76025   0.53268   0.06367   0.00000  Uiso   1.00
H23    H     0.70105   0.59649   0.13349   0.00000  Uiso   1.00
N5     N     0.74762   0.88913   0.41911   0.00000  Uiso   1.00
H24    H     0.79282   0.83466   0.45921   0.00000  Uiso   1.00
H25    H     0.72201   0.85966   0.35854   0.00000  Uiso   1.00
