# Generated by REPEAT Assigner based on pymatgen
data_DB0-m3_o25_o149_f0_fsc.sym.70_sqe
_audit_creation_date              2022-05-24
_audit_creation_method            REPEAT_Assigner
_cell_length_a                    8.538676
_cell_length_b                    10.775482
_cell_length_c                    14.263309
_cell_angle_alpha                 90.526005
_cell_angle_beta                  90.090326
_cell_angle_gamma                 89.998262
_cell_volume                      1312.286523
_symmetry_space_group_name_H-M    P1
_symmetry_Int_Tables_number       1
loop_
    _symmetry_equiv_pos_site_id
    _symmetry_equiv_pos_as_xyz
    1  x,y,z
loop_
    _atom_site_type_symbol
    _atom_site_label
    _atom_site_fract_x
    _atom_site_fract_y
    _atom_site_fract_z
    _atom_type_partial_charge
    C   C1   0.012088  0.682303  0.033886  0.019298
    C   C2   0.871735  0.741412  0.021369  -0.118545
    C   C3   0.868177  0.866395  0.004287  -0.112900
    C   C4   0.150241  0.744675  0.020789  -0.344642
    C   C5   0.148438  0.872207  0.008888  0.624671
    C   C6   0.006454  0.934942  0.004394  -0.259197
    C   C7   0.006496  0.063793  0.996101  0.351353
    C   C8   0.868385  0.132543  0.997575  -0.341737
    C   C9   0.871821  0.257618  0.981139  -0.131618
    N   N1   0.284387  0.934910  0.003309  -0.627189
    C   C10  0.286985  0.059202  0.994352  0.214060
    C   C11  0.148742  0.125849  0.990211  -0.113057
    C   C12  0.150669  0.253858  0.978768  -0.156628
    C   C13  0.012015  0.316567  0.968009  0.060404
    H   H1   0.013972  0.583838  0.045919  0.078019
    H   H2   0.013706  0.415167  0.956638  0.111450
    H   H3   0.754907  0.905376  0.990067  0.095447
    H   H4   0.755335  0.093588  0.012205  0.192759
    H   H5   0.398617  0.105873  0.989484  0.071537
    O   O1   0.680427  0.386734  0.910961  -0.705750
    O   O2   0.673387  0.356186  0.071146  -0.704620
    C   C14  0.729994  0.332320  0.987355  0.848850
    O   O3   0.679777  0.612350  0.090946  -0.711132
    O   O4   0.674220  0.642829  0.930703  -0.636282
    C   C15  0.730014  0.666715  0.014764  0.783913
    O   O5   0.341113  0.613239  0.089679  -0.708069
    O   O6   0.347570  0.643349  0.930015  -0.696200
    C   C16  0.292801  0.669680  0.013936  0.872021
    O   O7   0.341748  0.386100  0.910187  -0.718863
    O   O8   0.346703  0.356123  0.069892  -0.710877
    C   C17  0.292602  0.329821  0.985799  0.832569
    Zn  Zn1  0.509824  0.484014  0.104174  1.111219
    Zn  Zn2  0.510836  0.515209  0.896679  1.050364
    C   C18  0.371667  0.461870  0.534426  -0.065576
    C   C19  0.391942  0.567091  0.464673  -0.196174
    H   H6   0.295858  0.622049  0.433133  0.089303
    H   H7   0.258617  0.430801  0.564338  0.035496
    H   H8   0.544225  0.718331  0.541482  0.088063
    N   N2   0.508592  0.468777  0.226704  0.024517
    N   N3   0.511244  0.530429  0.774100  0.015161
    C   C20  0.485433  0.381873  0.477713  -0.326011
    C   C21  0.505961  0.487372  0.409972  0.802526
    C   C22  0.618642  0.436459  0.533982  0.417068
    C   C23  0.507814  0.513827  0.590449  0.513286
    C   C24  0.642551  0.539545  0.464966  -0.305820
    C   C25  0.528075  0.619304  0.521917  -0.119634
    C   C26  0.506865  0.474957  0.307726  -0.293736
    C   C27  0.510284  0.524973  0.692970  -0.252059
    H   H9   0.756381  0.569109  0.435211  0.112482
    H   H10  0.471184  0.282524  0.458570  0.122054
    N   N4   0.741959  0.359136  0.569968  -0.835099
    C   C28  0.845980  0.409612  0.637650  0.567350
    C   C29  0.938409  0.329248  0.688501  -0.398311
    C   C30  0.046727  0.374259  0.751820  0.123893
    C   C31  0.062426  0.500211  0.765695  -0.194701
    C   C32  0.970820  0.581083  0.715450  -0.074528
    C   C33  0.863621  0.536479  0.651071  -0.283797
    H   H11  0.712102  0.267605  0.579475  0.358029
    H   H12  0.928273  0.230137  0.677699  0.144224
    H   H13  0.120258  0.310441  0.789812  0.038957
    H   H14  0.147355  0.535704  0.815257  0.155487
    H   H15  0.984211  0.680034  0.725745  0.096335
    H   H16  0.797306  0.603277  0.612028  0.120587
