# Generated by REPEAT Assigner based on pymatgen
data_DB0-m2_o20_o24_f0_pcu.sym.3_sqe
_audit_creation_date              2022-05-24
_audit_creation_method            REPEAT_Assigner
_cell_length_a                    14.441399
_cell_length_b                    13.018149
_cell_length_c                    10.727787
_cell_angle_alpha                 90.000000
_cell_angle_beta                  90.008664
_cell_angle_gamma                 90.000000
_cell_volume                      2016.826882
_symmetry_space_group_name_H-M    P1
_symmetry_Int_Tables_number       1
loop_
    _symmetry_equiv_pos_site_id
    _symmetry_equiv_pos_as_xyz
    1  x,y,z
loop_
    _atom_site_type_symbol
    _atom_site_label
    _atom_site_fract_x
    _atom_site_fract_y
    _atom_site_fract_z
    _atom_type_partial_charge
    O   O1   0.365339  0.588592  0.505418  -0.621698
    O   O2   0.634662  0.411408  0.494582  -0.621777
    O   O3   0.634471  0.588054  0.505685  -0.630777
    O   O4   0.365530  0.411946  0.494316  -0.630845
    C   C1   0.322303  0.500224  0.499786  0.895681
    C   C2   0.677697  0.499776  0.500214  0.895697
    O   O5   0.496761  0.589466  0.320076  -0.559507
    O   O6   0.503240  0.410534  0.679925  -0.559587
    O   O7   0.496595  0.587129  0.682351  -0.557269
    O   O8   0.503406  0.412871  0.317649  -0.557340
    C   C3   0.499997  0.046278  0.499272  -0.010982
    C   C4   0.500004  0.953722  0.500729  -0.010970
    C   C5   0.500015  0.501747  0.260614  0.562928
    C   C6   0.499986  0.498253  0.739386  0.562960
    Cu  Cu1  0.499925  0.602766  0.501344  0.945401
    Cu  Cu2  0.500076  0.397234  0.498656  0.945041
    N   N1   0.500013  0.243608  0.497026  -0.191656
    N   N2   0.499987  0.756392  0.502974  -0.191635
    C   C7   0.498598  0.595508  0.037399  0.288672
    C   C8   0.501403  0.404492  0.962601  0.288758
    C   C9   0.572983  0.547276  0.957922  0.293743
    C   C10  0.427017  0.452724  0.042078  0.293652
    C   C11  0.423941  0.546309  0.957144  -0.284918
    C   C12  0.576059  0.453691  0.042856  -0.284983
    H   H1   0.360432  0.584383  0.921894  0.084872
    H   H2   0.639569  0.415617  0.078106  0.084879
    C   C13  0.499553  0.497446  0.878319  -0.044557
    C   C14  0.500447  0.502554  0.121681  -0.044488
    C   C15  0.500003  0.154734  0.497800  0.279799
    C   C16  0.499998  0.845265  0.502201  0.279785
    C   C17  0.222939  0.500110  0.499789  -0.295697
    C   C18  0.777062  0.499890  0.500211  -0.295698
    C   C19  0.139498  0.500054  0.499847  0.117020
    C   C20  0.860502  0.499946  0.500153  0.117026
    C   C21  0.041722  0.500015  0.499952  -0.035998
    C   C22  0.958279  0.499986  0.500049  -0.036006
    C   C23  0.498134  0.707336  0.076916  -0.359909
    H   H3   0.497607  0.756976  0.992902  0.070526
    H   H4   0.435303  0.723289  0.133103  0.084652
    H   H5   0.560873  0.724190  0.132926  0.082675
    C   C24  0.501867  0.292665  0.923085  -0.359912
    H   H6   0.502394  0.243024  0.007097  0.070527
    H   H7   0.439128  0.275809  0.867074  0.082673
    H   H8   0.564697  0.276711  0.866898  0.084647
    C   C25  0.657768  0.602586  0.908705  -0.385760
    H   H9   0.700108  0.630422  0.988073  0.084518
    H   H10  0.699608  0.548898  0.851522  0.092901
    H   H11  0.636152  0.668883  0.850686  0.095627
    C   C26  0.342233  0.397414  0.091295  -0.385759
    H   H12  0.299893  0.369578  0.011928  0.084516
    H   H13  0.363848  0.331117  0.149314  0.095625
    H   H14  0.300393  0.451102  0.148479  0.092927
