# generated using pymatgen
data_Fe2H15C43O16F3
_symmetry_space_group_name_H-M   'P 1'
_cell_length_a   15.74130100
_cell_length_b   14.01225900
_cell_length_c   11.41355000
_cell_angle_alpha   85.70265100
_cell_angle_beta   101.86468600
_cell_angle_gamma   97.51778100
_symmetry_Int_Tables_number   1
_chemical_formula_structural   Fe2H15C43O16F3
_chemical_formula_sum   'Fe2 H15 C43 O16 F3'
_cell_volume   2439.54365635
_cell_formula_units_Z   1
loop_
 _symmetry_equiv_pos_site_id
 _symmetry_equiv_pos_as_xyz
  1  'x, y, z'
loop_
 _atom_site_type_symbol
 _atom_site_label
 _atom_site_symmetry_multiplicity
 _atom_site_fract_x
 _atom_site_fract_y
 _atom_site_fract_z
 _atom_site_occupancy
  Fe  Fe1  1  0.49705800  0.99453100  0.77180600  1
  Fe  Fe2  1  0.50022400  0.00462300  0.22887600  1
  H  H1  1  0.94525100  0.95782900  0.25675300  1
  H  H2  1  0.83594400  0.03126800  0.89535500  1
  H  H3  1  0.04164400  0.01894200  0.13028000  1
  H  H4  1  0.95819000  0.98867100  0.86688700  1
  H  H5  1  0.05825500  0.06375700  0.74362300  1
  H  H6  1  0.20464600  0.08477800  0.69938000  1
  H  H7  1  0.16126400  0.96528300  0.10079500  1
  H  H8  1  0.48843600  0.69622900  0.81351800  1
  H  H9  1  0.49549100  0.70389300  0.30525800  1
  H  H10  1  0.52817400  0.59679600  0.21730300  1
  H  H11  1  0.52696800  0.46251600  0.10472300  1
  H  H12  1  0.46786100  0.40129500  0.78260500  1
  H  H13  1  0.50077900  0.29418900  0.69454000  1
  H  H14  1  0.50778400  0.30203600  0.18656900  1
  H  H15  1  0.46947600  0.53564600  0.89547400  1
  C  C1  1  0.80552300  0.95511600  0.21614300  1
  C  C2  1  0.88792200  0.96778200  0.18874600  1
  C  C3  1  0.89938500  0.99292500  0.07377400  1
  C  C4  1  0.82735700  0.00791600  0.98468700  1
  C  C5  1  0.74374200  0.99486300  0.00915500  1
  C  C6  1  0.73277600  0.96760800  0.12606800  1
  C  C7  1  0.98974300  0.00591700  0.05287400  1
  C  C8  1  0.00947400  0.00094100  0.94508700  1
  C  C9  1  0.11304500  0.04739500  0.81310400  1
  C  C10  1  0.19564300  0.06005400  0.78851000  1
  C  C11  1  0.26645400  0.03817300  0.87467100  1
  C  C12  1  0.25508000  0.00550000  0.98953400  1
  C  C13  1  0.17109500  0.99309700  0.01331700  1
  C  C14  1  0.09998100  0.01444000  0.92536900  1
  C  C15  1  0.47703300  0.13699100  0.58919300  1
  C  C16  1  0.35049200  0.04619200  0.83759600  1
  C  C17  1  0.66917600  0.00819700  0.90873600  1
  C  C18  1  0.53044900  0.83296800  0.66842700  1
  C  C19  1  0.46401100  0.16507000  0.33129300  1
  C  C20  1  0.32961700  0.98929100  0.08886600  1
  C  C21  1  0.64640100  0.95762900  0.15812900  1
  C  C22  1  0.51915600  0.86104600  0.41023700  1
  C  C23  1  0.51146200  0.76455200  0.46963000  1
  C  C24  1  0.51694000  0.75002200  0.59188800  1
  C  C25  1  0.50492800  0.65587100  0.64023100  1
  C  C26  1  0.49316100  0.63939800  0.75746400  1
  C  C27  1  0.48091900  0.54753000  0.80508300  1
  C  C28  1  0.50190600  0.68673800  0.39958700  1
  C  C29  1  0.50277300  0.59282000  0.44908200  1
  C  C30  1  0.50067600  0.57731300  0.56989800  1
  C  C31  1  0.49283900  0.48367900  0.62035000  1
  C  C32  1  0.51439400  0.52770900  0.26123700  1
  C  C33  1  0.50263000  0.51445200  0.37938400  1
  C  C34  1  0.49456800  0.42082000  0.42975700  1
  C  C35  1  0.51507000  0.45063300  0.19489200  1
  C  C36  1  0.50253300  0.35878900  0.24238800  1
  C  C37  1  0.48138600  0.47043000  0.73862200  1
  C  C38  1  0.49264100  0.40529600  0.55062500  1
  C  C39  1  0.49386100  0.31137500  0.60013500  1
  C  C40  1  0.49014600  0.34228200  0.35935400  1
  C  C41  1  0.47770800  0.24814700  0.40760300  1
  C  C42  1  0.48410500  0.23359000  0.52995900  1
  C  C43  1  0.79606800  0.93078700  0.34380500  1
  O  O1  1  0.53025800  0.12003200  0.69165200  1
  O  O2  1  0.38162600  0.12844200  0.79120500  1
  O  O3  1  0.41034500  0.07312000  0.55011200  1
  O  O4  1  0.38912200  0.96851600  0.83812900  1
  O  O5  1  0.58845300  0.97925900  0.92084800  1
  O  O6  1  0.68397700  0.04195000  0.80351100  1
  O  O7  1  0.48327900  0.90500100  0.63810700  1
  O  O8  1  0.58751300  0.83318900  0.76986300  1
  O  O9  1  0.50933100  0.09184000  0.36381300  1
  O  O10  1  0.40899600  0.16580400  0.22803900  1
  O  O11  1  0.41050500  0.01954700  0.07777000  1
  O  O12  1  0.31450100  0.95423100  0.19345000  1
  O  O13  1  0.58388900  0.92608900  0.45243400  1
  O  O14  1  0.60984100  0.03510600  0.16711100  1
  O  O15  1  0.46804900  0.87733700  0.30583300  1
  O  O16  1  0.60662200  0.87187300  0.17993700  1
  F  F1  1  0.87689900  0.92743300  0.41834900  1
  F  F2  1  0.74783600  0.84163100  0.35228700  1
  F  F3  1  0.75523300  0.00033300  0.38309200  1
