# generated using pymatgen
data_ZnH6C15NO6
_symmetry_space_group_name_H-M   'P 1'
_cell_length_a   6.67874700
_cell_length_b   11.37815500
_cell_length_c   12.29597000
_cell_angle_alpha   91.14861400
_cell_angle_beta   80.14397300
_cell_angle_gamma   96.14229100
_symmetry_Int_Tables_number   1
_chemical_formula_structural   ZnH6C15NO6
_chemical_formula_sum   'Zn2 H12 C30 N2 O12'
_cell_volume   915.31601352
_cell_formula_units_Z   2
loop_
 _symmetry_equiv_pos_site_id
 _symmetry_equiv_pos_as_xyz
  1  'x, y, z'
loop_
 _atom_site_type_symbol
 _atom_site_label
 _atom_site_symmetry_multiplicity
 _atom_site_fract_x
 _atom_site_fract_y
 _atom_site_fract_z
 _atom_site_occupancy
  Zn  Zn1  1  0.48975300  0.86939100  0.49799800  1
  Zn  Zn2  1  0.51704000  0.13261600  0.49167200  1
  H  H1  1  0.45724100  0.93849200  0.14228900  1
  H  H2  1  0.54954600  0.06346800  0.84737500  1
  H  H3  1  0.51056600  0.92334800  0.94586400  1
  H  H4  1  0.49621100  0.07862200  0.04381800  1
  H  H5  1  0.38717600  0.94207900  0.77002700  1
  H  H6  1  0.61957800  0.05988600  0.21966300  1
  H  H7  1  0.85537100  0.29228800  0.44157600  1
  H  H8  1  0.15787700  0.71259500  0.49785000  1
  H  H9  1  0.08765100  0.49931900  0.53978900  1
  H  H10  1  0.90702600  0.51013500  0.43812600  1
  H  H11  1  0.87594600  0.27794300  0.60088000  1
  H  H12  1  0.00164600  0.69720500  0.64432300  1
  C  C1  1  0.18064400  0.98161900  0.24162600  1
  C  C2  1  0.82620100  0.02040700  0.74803000  1
  C  C3  1  0.30337200  0.95976100  0.14261700  1
  C  C4  1  0.70342600  0.04221400  0.84704800  1
  C  C5  1  0.23278300  0.96695700  0.04421800  1
  C  C6  1  0.77398800  0.03500500  0.94546400  1
  C  C7  1  0.35791100  0.94677400  0.94579300  1
  C  C8  1  0.64886200  0.05519000  0.04389200  1
  C  C9  1  0.28886300  0.95751000  0.84728500  1
  C  C10  1  0.71790300  0.04445200  0.14240900  1
  C  C11  1  0.98093600  0.00529100  0.24157100  1
  C  C12  1  0.02588500  0.99667900  0.74813100  1
  C  C13  1  0.91334900  0.01573800  0.14251600  1
  C  C14  1  0.09342000  0.98622400  0.84718900  1
  C  C15  1  0.03856000  0.99665500  0.04405500  1
  C  C16  1  0.96820100  0.00530500  0.94564100  1
  C  C17  1  0.27505400  0.98906100  0.34114400  1
  C  C18  1  0.73179000  0.01295200  0.64848700  1
  C  C19  1  0.82794200  0.00463800  0.34182900  1
  C  C20  1  0.17900300  0.99737400  0.64793600  1
  C  C21  1  0.24148100  0.53972900  0.52246400  1
  C  C22  1  0.75858600  0.46453400  0.46725300  1
  C  C23  1  0.28030300  0.66011600  0.50484900  1
  C  C24  1  0.72673800  0.34315700  0.46417800  1
  C  C25  1  0.62621100  0.65028300  0.50366600  1
  C  C26  1  0.37283700  0.34907500  0.51178700  1
  C  C27  1  0.59574300  0.52884500  0.49547700  1
  C  C28  1  0.40169300  0.47183000  0.51172200  1
  C  C29  1  0.16804000  0.28435700  0.53310000  1
  C  C30  1  0.81509800  0.70580300  0.53515100  1
  N  N1  1  0.53638400  0.28735400  0.48835300  1
  N  N2  1  0.46996600  0.71465400  0.50105800  1
  O  O1  1  0.34518300  0.09409600  0.37331300  1
  O  O2  1  0.66126000  0.90779800  0.61654000  1
  O  O3  1  0.31744700  0.89074900  0.38175200  1
  O  O4  1  0.68998600  0.11141800  0.60766600  1
  O  O5  1  0.73608500  0.90165800  0.37860600  1
  O  O6  1  0.27123600  0.10031200  0.61138800  1
  O  O7  1  0.76214400  0.10542300  0.37710000  1
  O  O8  1  0.24444400  0.89660400  0.61242100  1
  O  O9  1  0.14345800  0.18220700  0.50216700  1
  O  O10  1  0.00316800  0.33622500  0.59189600  1
  O  O11  1  0.86153500  0.81183400  0.52291000  1
  O  O12  1  0.91462700  0.64200900  0.60125500  1
