# generated using pymatgen
data_ZnH20C28NO5
_symmetry_space_group_name_H-M   'P 1'
_cell_length_a   17.77893500
_cell_length_b   16.59796300
_cell_length_c   15.95914300
_cell_angle_alpha   90.00000000
_cell_angle_beta   89.99978700
_cell_angle_gamma   90.00000000
_symmetry_Int_Tables_number   1
_chemical_formula_structural   ZnH20C28NO5
_chemical_formula_sum   'Zn2 H40 C56 N2 O10'
_cell_volume   4709.44902506
_cell_formula_units_Z   2
loop_
 _symmetry_equiv_pos_site_id
 _symmetry_equiv_pos_as_xyz
  1  'x, y, z'
loop_
 _atom_site_type_symbol
 _atom_site_label
 _atom_site_symmetry_multiplicity
 _atom_site_fract_x
 _atom_site_fract_y
 _atom_site_fract_z
 _atom_site_occupancy
  Zn  Zn1  1  0.49381000  0.58887600  0.50754800  1
  Zn  Zn2  1  0.49397000  0.40519400  0.50912100  1
  H  H1  1  0.47505200  0.62690400  0.93312600  1
  H  H2  1  0.37754200  0.51982800  0.94327500  1
  H  H3  1  0.45130600  0.61743500  0.07214500  1
  H  H4  1  0.37296100  0.49172800  0.08229300  1
  H  H5  1  0.41996600  0.39630700  0.06743300  1
  H  H6  1  0.55196100  0.61160500  0.08667600  1
  H  H7  1  0.40329800  0.41538700  0.92900400  1
  H  H8  1  0.57245100  0.59869100  0.94696100  1
  H  H9  1  0.61361400  0.47676500  0.07362700  1
  H  H10  1  0.55818900  0.38603200  0.08392500  1
  H  H11  1  0.61089900  0.45472500  0.93344400  1
  H  H12  1  0.53935800  0.37801700  0.94363700  1
  H  H13  1  0.87040700  0.62601800  0.51148800  1
  H  H14  1  0.87113100  0.36962300  0.51308100  1
  H  H15  1  0.73329300  0.62644600  0.50718200  1
  H  H16  1  0.73399500  0.36824600  0.50877100  1
  H  H17  1  0.11714600  0.62598200  0.52260500  1
  H  H18  1  0.11600300  0.36971200  0.51927600  1
  H  H19  1  0.25410800  0.62568100  0.52349200  1
  H  H20  1  0.25272800  0.36844600  0.51991300  1
  H  H21  1  0.41917300  0.87884100  0.42882600  1
  H  H22  1  0.44946700  0.11668200  0.40533400  1
  H  H23  1  0.57947800  0.70408800  0.59777000  1
  H  H24  1  0.55445800  0.28818900  0.62431600  1
  H  H25  1  0.59087900  0.85065400  0.61130000  1
  H  H26  1  0.56465700  0.14160900  0.63683700  1
  H  H27  1  0.30167000  0.75717000  0.47750500  1
  H  H28  1  0.20717400  0.71432700  0.37478300  1
  H  H29  1  0.19432600  0.61248300  0.11856300  1
  H  H30  1  0.28193200  0.57132600  0.15557300  1
  H  H31  1  0.27861400  0.67228300  0.11075300  1
  H  H32  1  0.38385800  0.65845300  0.20212800  1
  H  H33  1  0.47568000  0.70279700  0.30409800  1
  H  H34  1  0.51641200  0.24605000  0.29132600  1
  H  H35  1  0.44576000  0.29244000  0.16868300  1
  H  H36  1  0.22233500  0.39465100  0.10489000  1
  H  H37  1  0.23489700  0.43031700  0.21056700  1
  H  H38  1  0.19788500  0.32958200  0.19105800  1
  H  H39  1  0.25536000  0.33821300  0.32630700  1
  H  H40  1  0.32614100  0.28778300  0.44520700  1
  C  C1  1  0.34653400  0.49703700  0.51179900  1
  C  C2  1  0.49207100  0.49557100  0.34452800  1
  C  C3  1  0.64111100  0.49707800  0.50648400  1
  C  C4  1  0.49597000  0.49859600  0.67206900  1
  C  C5  1  0.50270000  0.58280200  0.05637000  1
  C  C6  1  0.42197500  0.46151400  0.05327600  1
  C  C7  1  0.41955400  0.47291500  0.95933400  1
  C  C8  1  0.51353100  0.58237300  0.96219800  1
  C  C9  1  0.49693300  0.49923100  0.76194000  1
  C  C10  1  0.49439100  0.49682500  0.08719000  1
  C  C11  1  0.49655200  0.49880800  0.92902600  1
  C  C12  1  0.55534400  0.44034000  0.96125500  1
  C  C13  1  0.56007100  0.44709200  0.05579100  1
  C  C14  1  0.49722600  0.49938700  0.83741800  1
  C  C15  1  0.49299700  0.49576100  0.17894600  1
  C  C16  1  0.49228500  0.49528900  0.25450600  1
  C  C17  1  0.84013200  0.56954800  0.51078800  1
  C  C18  1  0.84053200  0.42588000  0.51168300  1
  C  C19  1  0.76262000  0.56943800  0.50826100  1
  C  C20  1  0.76301700  0.42543900  0.50916100  1
  C  C21  1  0.72358500  0.49730100  0.50755500  1
  C  C22  1  0.87907300  0.49785200  0.51267200  1
  C  C23  1  0.95971600  0.49810900  0.51548800  1
  C  C24  1  0.02744900  0.49815400  0.51751900  1
  C  C25  1  0.14724300  0.56942100  0.52099600  1
  C  C26  1  0.14662300  0.42597100  0.51912300  1
  C  C27  1  0.22478700  0.56905000  0.52041500  1
  C  C28  1  0.22414400  0.42552000  0.51847400  1
  C  C29  1  0.26388800  0.49713400  0.51657200  1
  C  C30  1  0.10811800  0.49788700  0.51918100  1
  C  C31  1  0.45479400  0.84050600  0.46655800  1
  C  C32  1  0.47298700  0.15427200  0.45404700  1
  C  C33  1  0.44983900  0.75801800  0.45894700  1
  C  C34  1  0.46639100  0.23673200  0.44892700  1
  C  C35  1  0.54403400  0.74258300  0.56007400  1
  C  C36  1  0.53013800  0.25056900  0.57624700  1
  C  C37  1  0.55057900  0.82510800  0.56810600  1
  C  C38  1  0.53671200  0.16789900  0.58326000  1
  C  C39  1  0.50535500  0.87447000  0.52095200  1
  C  C40  1  0.50761800  0.11936400  0.52157700  1
  C  C41  1  0.51018900  0.96058000  0.52638700  1
  C  C42  1  0.51089400  0.03315400  0.52665600  1
  C  C43  1  0.39474700  0.72653300  0.39962700  1
  C  C44  1  0.31932800  0.73354500  0.41753700  1
  C  C45  1  0.26627900  0.71014800  0.35952300  1
  C  C46  1  0.28797900  0.68151600  0.28213600  1
  C  C47  1  0.24838800  0.62728800  0.14959300  1
  C  C48  1  0.36396100  0.67846200  0.26250800  1
  C  C49  1  0.41673000  0.70263900  0.32066600  1
  C  C50  1  0.42661900  0.26929000  0.37675700  1
  C  C51  1  0.45937100  0.26746500  0.29859600  1
  C  C52  1  0.41950400  0.29346900  0.22970000  1
  C  C53  1  0.34645400  0.32057100  0.23808200  1
  C  C54  1  0.23788100  0.37649800  0.16947700  1
  C  C55  1  0.31289900  0.31963100  0.31654500  1
  C  C56  1  0.35290600  0.29264200  0.38492900  1
  N  N1  1  0.49417900  0.70950200  0.50625600  1
  N  N2  1  0.49438800  0.28452000  0.51037600  1
  O  O1  1  0.38173200  0.56670900  0.50977600  1
  O  O2  1  0.38188400  0.42741200  0.51119200  1
  O  O3  1  0.49266600  0.56521000  0.38305900  1
  O  O4  1  0.49276400  0.42641300  0.38409300  1
  O  O5  1  0.60582600  0.56652100  0.50631900  1
  O  O6  1  0.60599500  0.42751900  0.50759700  1
  O  O7  1  0.49550900  0.56801900  0.63268100  1
  O  O8  1  0.49571300  0.42858200  0.63378200  1
  O  O9  1  0.23401700  0.65842300  0.22763900  1
  O  O10  1  0.30977200  0.34632800  0.16901400  1
