# Generated by REPEAT Assigner based on pymatgen
data_DB0-m3_o20_o25_f0_nbo.sym.103
_audit_creation_date              2022-05-24
_audit_creation_method            REPEAT_Assigner
_cell_length_a                    42.314863
_cell_length_b                    29.029702
_cell_length_c                    29.502914
_cell_angle_alpha                 90.000000
_cell_angle_beta                  135.110670
_cell_angle_gamma                 90.000000
_cell_volume                      25576.725049
_symmetry_space_group_name_H-M    P1
_symmetry_Int_Tables_number       1
loop_
    _symmetry_equiv_pos_site_id
    _symmetry_equiv_pos_as_xyz
    1  x,y,z
loop_
    _atom_site_type_symbol
    _atom_site_label
    _atom_site_fract_x
    _atom_site_fract_y
    _atom_site_fract_z
    _atom_type_partial_charge
    O   O1    0.524587  0.564159  0.563233  -0.671095
    O   O2    0.507816  0.427884  0.546282  -0.689393
    O   O3    0.024587  0.064159  0.563233  -0.671074
    O   O4    0.007816  0.927884  0.546282  -0.689400
    O   O5    0.515190  0.563924  0.475886  -0.687160
    O   O6    0.498437  0.427798  0.458930  -0.674883
    O   O7    0.015190  0.063924  0.475886  -0.687142
    O   O8    0.998437  0.927798  0.458930  -0.674886
    C   C1    0.522152  0.585382  0.521525  0.789984
    C   C2    0.500539  0.406567  0.500295  0.796451
    C   C3    0.022152  0.085382  0.521525  0.789977
    C   C4    0.000539  0.906567  0.500295  0.796460
    O   O9    0.452203  0.505376  0.501399  -0.669653
    O   O10   0.952203  0.005376  0.501399  -0.669656
    O   O11   0.440771  0.503646  0.412156  -0.656265
    O   O12   0.940771  0.003646  0.412156  -0.656268
    C   C5    0.426507  0.507384  0.439464  0.643921
    C   C6    0.926507  0.007384  0.439464  0.643910
    Zn  Zn1   0.519289  0.495637  0.569802  1.320393
    Zn  Zn2   0.019289  0.995637  0.569802  1.320382
    Zn  Zn3   0.503918  0.496221  0.452522  1.317573
    Zn  Zn4   0.003918  0.996221  0.452522  1.317570
    O   O13   0.582417  0.488214  0.610111  -0.654560
    O   O14   0.082417  0.988214  0.610111  -0.654559
    O   O15   0.571030  0.486477  0.521009  -0.658928
    O   O16   0.071030  0.986477  0.521009  -0.658927
    C   C7    0.596791  0.484410  0.582991  0.686785
    C   C8    0.096791  0.984410  0.582991  0.686775
    C   C9    0.236372  0.566619  0.274376  -0.267379
    C   C10   0.232702  0.492419  0.274725  -0.225412
    C   C11   0.736372  0.066619  0.274376  -0.267372
    C   C12   0.732702  0.992419  0.274725  -0.225394
    C   C13   0.266408  0.562036  0.263590  -0.192662
    C   C14   0.262558  0.488602  0.263773  -0.164126
    C   C15   0.766408  0.062036  0.263590  -0.192670
    C   C16   0.762558  0.988602  0.263773  -0.164137
    H   H1    0.224351  0.599406  0.277129  0.066802
    H   H2    0.217335  0.463251  0.277707  0.059005
    H   H3    0.724351  0.099406  0.277129  0.066800
    H   H4    0.717335  0.963251  0.277707  0.059003
    C   C17   0.380096  0.514582  0.398845  0.111644
    C   C18   0.880096  0.014582  0.398845  0.111662
    C   C19   0.118998  0.525015  0.129883  0.172196
    C   C20   0.618998  0.025015  0.129883  0.172182
    C   C21   0.263298  0.529145  0.325801  -0.156902
    C   C22   0.763298  0.029145  0.325801  -0.156911
    C   C23   0.292600  0.525027  0.314156  0.839933
    C   C24   0.792600  0.025027  0.314156  0.839944
    C   C25   0.206871  0.529787  0.224342  0.958633
    C   C26   0.706871  0.029787  0.224342  0.958599
    C   C27   0.236121  0.525567  0.212883  -0.077510
    C   C28   0.736121  0.025567  0.212883  -0.077482
    C   C29   0.340655  0.520113  0.362165  -0.578099
    C   C30   0.840655  0.020113  0.362165  -0.578112
    C   C31   0.158636  0.529169  0.173133  -0.683337
    C   C32   0.658636  0.029169  0.173133  -0.683314
    H   H5    0.275715  0.530397  0.373819  0.060674
    H   H6    0.775715  0.030397  0.373819  0.060674
    C   C33   0.522653  0.634948  0.521778  -0.103063
    C   C34   0.495485  0.357305  0.495737  -0.102686
    C   C35   0.022653  0.134948  0.521778  -0.103080
    C   C36   0.995485  0.857305  0.495737  -0.102688
    C   C37   0.521102  0.676513  0.520158  0.002135
    C   C38   0.491851  0.315894  0.492281  -0.000577
    C   C39   0.021102  0.176513  0.520158  0.002154
    C   C40   0.991851  0.815894  0.492281  -0.000571
    C   C41   0.517713  0.725169  0.516831  -0.000859
    C   C42   0.488436  0.267260  0.488891  0.001903
    C   C43   0.017713  0.225169  0.516831  -0.000878
    C   C44   0.988436  0.767260  0.488891  0.001893
    C   C45   0.514084  0.766600  0.513342  0.042538
    C   C46   0.486434  0.225725  0.486812  0.040083
    C   C47   0.014084  0.266600  0.513342  0.042557
    C   C48   0.986434  0.725725  0.486812  0.040096
    C   C49   0.509504  0.815154  0.509004  -0.054506
    C   C50   0.485382  0.176976  0.485621  -0.050321
    C   C51   0.009504  0.315154  0.509004  -0.054524
    C   C52   0.985382  0.676976  0.485621  -0.050335
    C   C53   0.505844  0.856578  0.505570  -0.028563
    C   C54   0.485846  0.135398  0.485962  -0.033164
    C   C55   0.005844  0.356578  0.505570  -0.028544
    C   C56   0.985846  0.635398  0.485962  -0.033152
    C   C57   0.643359  0.477091  0.624003  -0.030500
    C   C58   0.143359  0.977091  0.624003  -0.030490
    C   C59   0.682918  0.471507  0.661224  -0.032304
    C   C60   0.182918  0.971507  0.661224  -0.032313
    C   C61   0.729458  0.466747  0.707719  0.011295
    C   C62   0.229458  0.966747  0.707719  0.011303
    C   C63   0.769440  0.465054  0.749656  0.041882
    C   C64   0.269440  0.965054  0.749656  0.041873
    C   C65   0.816087  0.466382  0.800360  -0.058798
    C   C66   0.316087  0.966382  0.800360  -0.058789
    C   C67   0.855763  0.470513  0.844278  -0.005429
    C   C68   0.355763  0.970513  0.844278  -0.005435
    O   O17   0.978251  0.535583  0.045345  -0.704290
    O   O18   0.990430  0.457117  0.058290  -0.688495
    O   O19   0.478251  0.035583  0.045345  -0.704258
    O   O20   0.490430  0.957116  0.058290  -0.688486
    C   C69   0.983595  0.496358  0.072706  0.787101
    C   C70   0.483595  0.996358  0.072706  0.787048
    O   O21   0.045458  0.551850  0.048471  -0.648543
    O   O22   0.059450  0.473546  0.065355  -0.672794
    O   O23   0.545458  0.051850  0.048471  -0.648534
    O   O24   0.559450  0.973546  0.065355  -0.672776
    C   C71   0.072481  0.516573  0.078716  0.622619
    C   C72   0.572481  0.016573  0.078716  0.622604
    Zn  Zn5   0.977810  0.548853  0.977322  1.344319
    Zn  Zn6   0.997160  0.446505  0.997479  1.342938
    Zn  Zn7   0.477810  0.048853  0.977322  1.344299
    Zn  Zn8   0.497160  0.946505  0.997479  1.342926
    O   O25   0.984656  0.538274  0.916588  -0.686979
    O   O26   0.996891  0.459816  0.929617  -0.701652
    O   O27   0.484656  0.038274  0.916588  -0.686955
    O   O28   0.496891  0.959816  0.929617  -0.701639
    O   O29   0.915523  0.521808  0.909380  -0.651432
    O   O30   0.929488  0.443575  0.926184  -0.632527
    O   O31   0.415523  0.021808  0.909380  -0.651420
    O   O32   0.429488  0.943575  0.926184  -0.632523
    C   C73   0.991772  0.499041  0.902480  0.794882
    C   C74   0.491772  0.999041  0.902480  0.794850
    C   C75   0.902393  0.478835  0.895957  0.652738
    C   C76   0.402393  0.978835  0.895957  0.652728
    O   O33   0.456298  0.994499  0.388873  -0.683679
    O   O34   0.956298  0.494499  0.388873  -0.683682
    O   O35   0.533368  0.997685  0.465286  -0.680617
    O   O36   0.033368  0.497685  0.465286  -0.680624
    C   C77   0.494291  0.996135  0.404857  0.747540
    C   C78   0.994291  0.496135  0.404857  0.747562
    O   O37   0.462450  0.924930  0.463646  -0.651905
    O   O38   0.451130  0.061947  0.452390  -0.637177
    O   O39   0.962450  0.424930  0.463646  -0.651905
    O   O40   0.951130  0.561947  0.452390  -0.637191
    O   O41   0.539443  0.930024  0.538058  -0.634653
    O   O42   0.528146  0.067005  0.526813  -0.649556
    O   O43   0.039443  0.430024  0.538058  -0.634650
    O   O44   0.028146  0.567005  0.526813  -0.649574
    C   C79   0.502353  0.906018  0.502274  0.680478
    C   C80   0.488344  0.085922  0.488310  0.684222
    C   C81   0.002353  0.406018  0.502274  0.680461
    C   C82   0.988344  0.585922  0.488310  0.684230
    Zn  Zn9   0.444800  0.992402  0.444965  1.331898
    Zn  Zn10  0.944800  0.492402  0.444965  1.331910
    Zn  Zn11  0.545768  0.999553  0.545519  1.334936
    Zn  Zn12  0.045768  0.499553  0.545519  1.334946
    O   O45   0.457150  0.994333  0.525119  -0.680100
    O   O46   0.957150  0.494333  0.525119  -0.680100
    O   O47   0.534220  0.997534  0.601592  -0.688584
    O   O48   0.034220  0.497534  0.601592  -0.688589
    C   C83   0.496134  0.995936  0.585491  0.755780
    C   C84   0.996134  0.495936  0.585491  0.755789
    C   C85   0.984020  0.496633  0.122821  -0.119784
    C   C86   0.484020  0.996633  0.122821  -0.119760
    C   C87   0.985210  0.496712  0.165480  0.043999
    C   C88   0.485210  0.996712  0.165480  0.043991
    C   C89   0.987173  0.496679  0.216298  -0.013458
    C   C90   0.487173  0.996679  0.216298  -0.013458
    C   C91   0.489031  0.996587  0.259611  0.003789
    C   C92   0.989031  0.496587  0.259611  0.003784
    C   C93   0.491213  0.996448  0.310640  0.012941
    C   C94   0.991213  0.496448  0.310640  0.012952
    C   C95   0.492850  0.996313  0.353735  -0.086062
    C   C96   0.992850  0.496313  0.353735  -0.086080
    C   C97   0.993525  0.498855  0.854612  -0.135791
    C   C98   0.493525  0.998855  0.854612  -0.135785
    C   C99   0.994702  0.498501  0.814359  0.051760
    C   C100  0.494702  0.998501  0.814359  0.051757
    C   C101  0.995796  0.497961  0.766619  -0.014699
    C   C102  0.495796  0.997961  0.766619  -0.014696
    C   C103  0.496474  0.997455  0.725846  0.007061
    C   C104  0.996474  0.497455  0.725846  0.007064
    C   C105  0.496930  0.996847  0.677450  0.014311
    C   C106  0.996930  0.496847  0.677450  0.014309
    C   C107  0.496916  0.996377  0.635968  -0.094398
    C   C108  0.996916  0.496377  0.635968  -0.094398
    C   C109  0.285227  0.604484  0.259427  0.012352
    C   C110  0.316760  0.592055  0.254302  -0.050590
    C   C111  0.336853  0.625102  0.251132  -0.464564
    H   H7    0.303247  0.625618  0.303183  0.074760
    H   H8    0.257185  0.624971  0.216761  0.040783
    H   H9    0.323759  0.556454  0.253531  0.107305
    H   H10   0.330249  0.660973  0.252136  0.175448
    H   H11   0.359950  0.616177  0.247666  0.174377
    C   C112  0.277454  0.441649  0.261742  0.022393
    C   C113  0.305626  0.445560  0.248884  -0.040844
    C   C114  0.321613  0.407762  0.245577  -0.477644
    H   H12   0.247544  0.420481  0.223606  0.034006
    H   H13   0.296964  0.424212  0.308549  0.057964
    H   H14   0.313403  0.478815  0.242448  0.122215
    H   H15   0.314102  0.374174  0.252085  0.182862
    H   H16   0.342249  0.410531  0.236452  0.174898
    C   C115  0.785227  0.104484  0.259427  0.012351
    C   C116  0.816760  0.092055  0.254302  -0.050593
    C   C117  0.836853  0.125102  0.251132  -0.464554
    H   H17   0.803247  0.125618  0.303183  0.074762
    H   H18   0.757185  0.124971  0.216761  0.040783
    H   H19   0.823759  0.056454  0.253531  0.107305
    H   H20   0.830249  0.160973  0.252136  0.175444
    H   H21   0.859950  0.116177  0.247666  0.174375
    C   C118  0.777454  0.941649  0.261742  0.022411
    C   C119  0.805626  0.945560  0.248884  -0.040865
    C   C120  0.821613  0.907762  0.245577  -0.477635
    H   H22   0.747544  0.920481  0.223606  0.034003
    H   H23   0.796964  0.924212  0.308549  0.057958
    H   H24   0.813403  0.978815  0.242448  0.122220
    H   H25   0.814102  0.874174  0.252085  0.182860
    H   H26   0.842249  0.910531  0.236452  0.174896
    C   C121  0.219134  0.525825  0.147065  0.017202
    C   C122  0.189317  0.485587  0.108058  -0.066404
    C   C123  0.171017  0.480017  0.048791  -0.445667
    H   H27   0.247856  0.524521  0.152539  0.011745
    H   H28   0.200147  0.558076  0.121765  0.061068
    H   H29   0.182127  0.460968  0.127359  0.120638
    H   H30   0.177863  0.504592  0.028969  0.177105
    H   H31   0.149172  0.450918  0.020215  0.166763
    C   C124  0.719134  0.025825  0.147065  0.017196
    C   C125  0.689317  0.985587  0.108058  -0.066401
    C   C126  0.671017  0.980017  0.048791  -0.445656
    H   H32   0.747856  0.024521  0.152539  0.011743
    H   H33   0.700147  0.058076  0.121765  0.061064
    H   H34   0.682127  0.960968  0.127359  0.120635
    H   H35   0.677863  0.004592  0.028969  0.177099
    H   H36   0.649172  0.950918  0.020215  0.166762
