# generated using pymatgen
data_Zn2H20C35N2O9
_symmetry_space_group_name_H-M   'P 1'
_cell_length_a   8.53284900
_cell_length_b   12.94613300
_cell_length_c   14.23795800
_cell_angle_alpha   90.96426700
_cell_angle_beta   90.08653700
_cell_angle_gamma   95.35292100
_symmetry_Int_Tables_number   1
_chemical_formula_structural   Zn2H20C35N2O9
_chemical_formula_sum   'Zn2 H20 C35 N2 O9'
_cell_volume   1565.74173099
_cell_formula_units_Z   1
loop_
 _symmetry_equiv_pos_site_id
 _symmetry_equiv_pos_as_xyz
  1  'x, y, z'
loop_
 _atom_site_type_symbol
 _atom_site_label
 _atom_site_symmetry_multiplicity
 _atom_site_fract_x
 _atom_site_fract_y
 _atom_site_fract_z
 _atom_site_occupancy
  Zn  Zn1  1  0.56149400  0.51560500  0.88932600  1
  Zn  Zn2  1  0.55691300  0.48890600  0.09689500  1
  H  H1  1  0.62457300  0.17497600  0.98920400  1
  H  H2  1  0.60196600  0.98796700  0.00344100  1
  H  H3  1  0.06917300  0.57283000  0.03702600  1
  H  H4  1  0.35895700  0.85049600  0.98854500  1
  H  H5  1  0.24627500  0.00594000  0.98021400  1
  H  H6  1  0.71552200  0.82932600  0.00931200  1
  H  H7  1  0.26780000  0.16315500  0.99901500  1
  H  H8  1  0.04423100  0.43123400  0.94637700  1
  H  H9  1  0.29304500  0.46710600  0.55433600  1
  H  H10  1  0.38778000  0.61996100  0.42240800  1
  H  H11  1  0.46443000  0.32417200  0.45110900  1
  H  H12  1  0.82414000  0.53997800  0.43135200  1
  H  H13  1  0.65305900  0.68122000  0.53546200  1
  H  H14  1  0.94579400  0.39601100  0.49397300  1
  H  H15  1  0.77583600  0.32824100  0.43559900  1
  H  H16  1  0.96187400  0.24594500  0.59840900  1
  H  H17  1  0.79225500  0.17879600  0.54019800  1
  H  H18  1  0.93691700  0.18580100  0.38857700  1
  H  H19  1  0.04149700  0.12111700  0.47745800  1
  H  H20  1  0.10669400  0.25316300  0.44679800  1
  C  C1  1  0.01229700  0.13733600  0.98620000  1
  C  C2  1  0.87707200  0.18988700  0.98317700  1
  C  C3  1  0.73068300  0.13557800  0.99079300  1
  C  C4  1  0.71754200  0.02938100  0.99844300  1
  C  C5  1  0.84989400  0.97589300  0.99806700  1
  C  C6  1  0.99818300  0.02889900  0.99209900  1
  C  C7  1  0.83230700  0.86883400  0.00384000  1
  C  C8  1  0.96276000  0.81332200  0.00605900  1
  C  C9  1  0.11084200  0.86526600  0.99883300  1
  C  C10  1  0.12822900  0.97149100  0.98978000  1
  C  C11  1  0.94816500  0.70667600  0.01677200  1
  C  C12  1  0.08092700  0.65536400  0.02659400  1
  C  C13  1  0.22783900  0.70594200  0.01436500  1
  C  C14  1  0.24315600  0.81095400  0.99874200  1
  C  C15  1  0.15842200  0.19527700  0.98604800  1
  C  C16  1  0.16871100  0.29993600  0.97016400  1
  C  C17  1  0.03495700  0.34889500  0.95783100  1
  C  C18  1  0.88961600  0.29659200  0.97091000  1
  C  C19  1  0.79813000  0.64293200  0.00912900  1
  C  C20  1  0.75626300  0.35985100  0.97815300  1
  C  C21  1  0.31888700  0.36302500  0.97739100  1
  C  C22  1  0.36133900  0.64364600  0.00781200  1
  C  C23  1  0.46546000  0.56712100  0.45594100  1
  C  C24  1  0.41341400  0.48249100  0.52542800  1
  C  C25  1  0.61113700  0.60026500  0.51510600  1
  C  C26  1  0.55909500  0.51548000  0.58292200  1
  C  C27  1  0.70403900  0.52400300  0.46045100  1
  C  C28  1  0.55762500  0.49078200  0.40321800  1
  C  C29  1  0.64883100  0.44067600  0.52873800  1
  C  C30  1  0.50504300  0.40553300  0.47081600  1
  C  C31  1  0.56245500  0.52469100  0.68548500  1
  C  C32  1  0.55553600  0.48045300  0.30071700  1
  C  C33  1  0.84170500  0.33906800  0.50274100  1
  C  C34  1  0.89612400  0.23589000  0.53112800  1
  C  C35  1  0.00228000  0.19653800  0.45594600  1
  N  N1  1  0.56420700  0.52888100  0.76672200  1
  N  N2  1  0.55447700  0.47560300  0.21949700  1
  O  O1  1  0.74227000  0.59618400  0.08459500  1
  O  O2  1  0.74065300  0.62177400  0.92465800  1
  O  O3  1  0.71433900  0.40702900  0.90257000  1
  O  O4  1  0.70437500  0.38146000  0.06240100  1
  O  O5  1  0.37557700  0.40876700  0.90158600  1
  O  O6  1  0.37764300  0.38285700  0.06168900  1
  O  O7  1  0.40356500  0.59714900  0.08374500  1
  O  O8  1  0.41410700  0.62302000  0.92366900  1
  O  O9  1  0.74480000  0.37435800  0.57296600  1
