# Generated by REPEAT Assigner based on pymatgen
data_DB0-m3_o3_o24_f0_pcu.sym.1
_audit_creation_date              2022-05-24
_audit_creation_method            REPEAT_Assigner
_cell_length_a                    19.454170
_cell_length_b                    18.273588
_cell_length_c                    10.768725
_cell_angle_alpha                 90.000000
_cell_angle_beta                  90.016727
_cell_angle_gamma                 90.000000
_cell_volume                      3828.254622
_symmetry_space_group_name_H-M    P1
_symmetry_Int_Tables_number       1
loop_
    _symmetry_equiv_pos_site_id
    _symmetry_equiv_pos_as_xyz
    1  x,y,z
loop_
    _atom_site_type_symbol
    _atom_site_label
    _atom_site_fract_x
    _atom_site_fract_y
    _atom_site_fract_z
    _atom_type_partial_charge
    O   O1   0.397615  0.563267  0.499739  -0.666250
    O   O2   0.602385  0.436733  0.500261  -0.666161
    O   O3   0.602448  0.563038  0.499743  -0.667019
    O   O4   0.397553  0.436962  0.500257  -0.667079
    C   C1   0.365384  0.500130  0.500005  0.731216
    C   C2   0.634617  0.499869  0.499995  0.731263
    O   O5   0.500022  0.563004  0.314644  -0.740335
    O   O6   0.499979  0.436997  0.685356  -0.740540
    O   O7   0.500071  0.563390  0.684866  -0.732135
    O   O8   0.499930  0.436610  0.315134  -0.732012
    C   C3   0.499976  0.499728  0.257224  0.788742
    C   C4   0.500025  0.500272  0.742776  0.789131
    Zn  Zn1  0.500053  0.583291  0.499693  1.094480
    Zn  Zn2  0.499947  0.416709  0.500306  1.094544
    C   C5   0.444795  0.534485  0.040725  -0.067424
    C   C6   0.555205  0.465515  0.959275  -0.067306
    C   C7   0.500537  0.568355  0.960102  -0.011549
    C   C8   0.499463  0.431645  0.039898  -0.011646
    C   C9   0.444267  0.466510  0.959197  -0.051127
    C   C10  0.555733  0.533490  0.040803  -0.051113
    H   H1   0.397889  0.438694  0.922300  0.031470
    H   H2   0.602111  0.561306  0.077700  0.031452
    H   H3   0.398847  0.563087  0.077611  0.032468
    H   H4   0.601154  0.436913  0.922389  0.032465
    H   H5   0.500959  0.625360  0.924775  0.012311
    H   H6   0.499041  0.374640  0.075226  0.012325
    C   C11  0.500011  0.500364  0.880838  0.038761
    C   C12  0.499989  0.499636  0.119162  0.039023
    C   C13  0.745997  0.434595  0.501691  -0.059797
    C   C14  0.254003  0.565405  0.498309  -0.059817
    C   C15  0.254032  0.434867  0.501739  -0.053452
    C   C16  0.745968  0.565133  0.498261  -0.053406
    H   H7   0.719332  0.382738  0.503718  0.090065
    H   H8   0.280669  0.617262  0.496282  0.090082
    H   H9   0.280699  0.383017  0.503857  0.085817
    H   H10  0.719301  0.616983  0.496143  0.085805
    C   C17  0.816887  0.434643  0.501512  -0.167305
    C   C18  0.183113  0.565357  0.498489  -0.167335
    C   C19  0.183149  0.434879  0.501521  -0.169171
    C   C20  0.816851  0.565121  0.498479  -0.169149
    H   H11  0.843681  0.382903  0.505330  0.103994
    H   H12  0.156319  0.617097  0.494670  0.103981
    H   H13  0.156379  0.383123  0.505361  0.106349
    H   H14  0.843621  0.616877  0.494639  0.106336
    C   C21  0.852892  0.499893  0.500002  0.098502
    C   C22  0.147108  0.500107  0.499998  0.098549
    C   C23  0.710064  0.499857  0.499988  -0.094491
    C   C24  0.289937  0.500143  0.500012  -0.094438
    C   C25  0.964526  0.550700  0.569566  -0.145422
    C   C26  0.035474  0.449300  0.430434  -0.145474
    C   C27  0.035419  0.550774  0.569547  -0.137427
    C   C28  0.964581  0.449226  0.430453  -0.137346
    H   H15  0.937718  0.589738  0.627306  0.106269
    H   H16  0.062282  0.410262  0.372694  0.106285
    H   H17  0.062174  0.589891  0.627256  0.107816
    H   H18  0.937827  0.410109  0.372745  0.107764
    C   C29  0.071479  0.500073  0.499974  0.067203
    C   C30  0.928522  0.499927  0.500026  0.067167
    C   C31  0.542774  0.729190  0.576025  0.034600
    C   C32  0.457226  0.270810  0.423975  0.034715
    C   C33  0.457657  0.729283  0.422668  -0.005779
    C   C34  0.542344  0.270717  0.577332  -0.005852
    H   H19  0.576879  0.699212  0.636795  0.130696
    H   H20  0.423122  0.300788  0.363205  0.130641
    H   H21  0.423420  0.699398  0.361994  0.145700
    H   H22  0.576580  0.300602  0.638006  0.145751
    C   C35  0.543480  0.804642  0.577339  -0.184596
    C   C36  0.456520  0.195358  0.422661  -0.184621
    C   C37  0.457181  0.804744  0.421232  -0.170952
    C   C38  0.542819  0.195256  0.578768  -0.170899
    H   H23  0.579098  0.832566  0.638039  0.117699
    H   H24  0.420902  0.167434  0.361961  0.117690
    H   H25  0.421624  0.832773  0.360544  0.117326
    H   H26  0.578376  0.167227  0.639456  0.117330
    C   C39  0.500348  0.843351  0.499330  0.141537
    C   C40  0.499652  0.156649  0.500670  0.141518
    N   N1   0.500164  0.692752  0.499378  -0.084834
    N   N2   0.499836  0.307248  0.500622  -0.084913
    C   C41  0.493114  0.962424  0.389866  -0.135491
    C   C42  0.506886  0.037576  0.610134  -0.135447
    C   C43  0.507171  0.962109  0.609757  -0.133540
    C   C44  0.492829  0.037891  0.390243  -0.133544
    H   H27  0.489410  0.934126  0.302024  0.116350
    H   H28  0.510590  0.065874  0.697976  0.116329
    H   H29  0.511076  0.933531  0.697306  0.117684
    H   H30  0.488925  0.066469  0.302694  0.117688
    C   C45  0.499739  0.076119  0.500370  0.060653
    C   C46  0.500261  0.923881  0.499631  0.060652
