# generated using pymatgen
data_ZnH11C15(NO3)2
_symmetry_space_group_name_H-M   'P 1'
_cell_length_a   8.55011400
_cell_length_b   12.70938300
_cell_length_c   14.19539800
_cell_angle_alpha   90.88759800
_cell_angle_beta   90.07178700
_cell_angle_gamma   95.47472300
_symmetry_Int_Tables_number   1
_chemical_formula_structural   ZnH11C15(NO3)2
_chemical_formula_sum   'Zn2 H22 C30 N4 O12'
_cell_volume   1535.34005662
_cell_formula_units_Z   2
loop_
 _symmetry_equiv_pos_site_id
 _symmetry_equiv_pos_as_xyz
  1  'x, y, z'
loop_
 _atom_site_type_symbol
 _atom_site_label
 _atom_site_symmetry_multiplicity
 _atom_site_fract_x
 _atom_site_fract_y
 _atom_site_fract_z
 _atom_site_occupancy
  Zn  Zn1  1  0.49868000  0.52033400  0.89843200  1
  Zn  Zn2  1  0.49541100  0.49245800  0.10659800  1
  H  H1  1  0.29416700  0.86542600  0.00078800  1
  H  H2  1  0.79066000  0.85517900  0.00097300  1
  H  H3  1  0.69992800  0.14735700  0.00423800  1
  H  H4  1  0.20342900  0.15759600  0.00403900  1
  H  H5  1  0.01252500  0.57782000  0.04979300  1
  H  H6  1  0.98157500  0.43496600  0.95524300  1
  H  H7  1  0.31025100  0.60087800  0.41786400  1
  H  H8  1  0.32252100  0.62889900  0.57553500  1
  H  H9  1  0.40208400  0.35353100  0.60284700  1
  H  H10  1  0.26124000  0.44331700  0.57173100  1
  H  H11  1  0.48011400  0.33291200  0.45084100  1
  H  H12  1  0.73788700  0.58090100  0.57861400  1
  H  H13  1  0.73629800  0.57096500  0.42169500  1
  H  H14  1  0.52345300  0.68570100  0.56587300  1
  H  H15  1  0.50387300  0.66642800  0.40876000  1
  H  H16  1  0.72028400  0.42847200  0.42723400  1
  H  H17  1  0.94882500  0.48054600  0.33689500  1
  H  H18  1  0.94942200  0.34278600  0.36877800  1
  H  H19  1  0.05900400  0.39357300  0.26736900  1
  H  H20  1  0.68087900  0.15798700  0.59105700  1
  H  H21  1  0.73260800  0.23742300  0.69529600  1
  H  H22  1  0.86895300  0.23603600  0.59761800  1
  C  C1  1  0.16777500  0.71505900  0.02549800  1
  C  C2  1  0.17988700  0.82255200  0.00970200  1
  C  C3  1  0.04560400  0.87578400  0.00692700  1
  C  C4  1  0.89879700  0.81888500  0.01038900  1
  C  C5  1  0.88833000  0.71178400  0.02545000  1
  C  C6  1  0.02210000  0.66173500  0.03807300  1
  C  C7  1  0.81420500  0.19023400  0.99532300  1
  C  C8  1  0.82631700  0.29772900  0.97953200  1
  C  C9  1  0.97199400  0.35105200  0.96695700  1
  C  C10  1  0.10576600  0.30100100  0.97957400  1
  C  C11  1  0.09529500  0.19389800  0.99462700  1
  C  C12  1  0.94848800  0.13700000  0.99809200  1
  C  C13  1  0.73853600  0.64728000  0.01819900  1
  C  C14  1  0.69178500  0.36056700  0.98636100  1
  C  C15  1  0.25556500  0.36550500  0.98682300  1
  C  C16  1  0.30230400  0.65222100  0.01866900  1
  C  C17  1  0.44060900  0.61565500  0.54818400  1
  C  C18  1  0.38360200  0.42387900  0.56062900  1
  C  C19  1  0.40859700  0.40081000  0.45718700  1
  C  C20  1  0.49690800  0.51800600  0.59114100  1
  C  C21  1  0.43282900  0.59962300  0.44220500  1
  C  C22  1  0.49932300  0.49640400  0.41380300  1
  C  C23  1  0.66639500  0.50050100  0.44993000  1
  C  C24  1  0.66387800  0.50820200  0.55670600  1
  C  C25  1  0.49681800  0.48561600  0.31102400  1
  C  C26  1  0.49809800  0.52778300  0.69398500  1
  C  C27  1  0.25783900  0.36952500  0.40638200  1
  C  C28  1  0.02034000  0.41240200  0.33974300  1
  C  C29  1  0.73325100  0.41669700  0.59997400  1
  C  C30  1  0.74321900  0.23319900  0.61749200  1
  N  N1  1  0.06089100  0.98700600  0.99813800  1
  N  N2  1  0.93319900  0.02577700  0.00687900  1
  N  N3  1  0.49445400  0.48031900  0.22958200  1
  N  N4  1  0.49966700  0.53248200  0.77544900  1
  O  O1  1  0.68214100  0.60059800  0.09422400  1
  O  O2  1  0.67945600  0.62715000  0.93374000  1
  O  O3  1  0.64965500  0.40873200  0.91053800  1
  O  O4  1  0.64047500  0.38236100  0.07095300  1
  O  O5  1  0.31195800  0.41218400  0.91078700  1
  O  O6  1  0.31464500  0.38563200  0.07128800  1
  O  O7  1  0.34443700  0.60406000  0.09449200  1
  O  O8  1  0.35361400  0.63042800  0.93407700  1
  O  O9  1  0.23599100  0.28136600  0.37089500  1
  O  O10  1  0.14925800  0.43839900  0.39578500  1
  O  O11  1  0.84423000  0.43324600  0.65393200  1
  O  O12  1  0.67743000  0.31656300  0.57834800  1
