# Generated by REPEAT Assigner based on pymatgen
data_DB0-m3_o530_o155_f0_fsc.sym.56_sqe
_audit_creation_date              2022-05-24
_audit_creation_method            REPEAT_Assigner
_cell_length_a                    19.027754
_cell_length_b                    8.615050
_cell_length_c                    17.554137
_cell_angle_alpha                 90.000000
_cell_angle_beta                  101.959259
_cell_angle_gamma                 90.000000
_cell_volume                      2815.105827
_symmetry_space_group_name_H-M    P1
_symmetry_Int_Tables_number       1
loop_
    _symmetry_equiv_pos_site_id
    _symmetry_equiv_pos_as_xyz
    1  x,y,z
loop_
    _atom_site_type_symbol
    _atom_site_label
    _atom_site_fract_x
    _atom_site_fract_y
    _atom_site_fract_z
    _atom_type_partial_charge
    C   C1   0.861853  0.850463  0.026908  0.495332
    C   C2   0.146805  0.111720  0.008682  0.316287
    C   C3   0.138127  0.850553  0.972950  0.493951
    C   C4   0.853398  0.111954  0.991900  0.318392
    N   N1   0.821302  0.981580  0.012345  -0.171442
    N   N2   0.178753  0.981510  0.987827  -0.167373
    C   C5   0.926906  0.116099  0.997299  0.043767
    C   C6   0.069529  0.846167  0.987745  -0.098231
    C   C7   0.073321  0.116024  0.003444  0.042889
    C   C8   0.930441  0.846169  0.012073  -0.094142
    C   C9   0.964464  0.981119  0.002426  0.027617
    C   C10  0.035643  0.981101  0.997853  0.030574
    C   C11  0.963162  0.253803  0.995684  -0.107745
    C   C12  0.033386  0.708474  0.990115  -0.019767
    C   C13  0.037197  0.253761  0.005703  -0.106832
    C   C14  0.966417  0.708482  0.009200  -0.029938
    O   O1   0.837756  0.724618  0.058652  -0.512536
    O   O2   0.185608  0.236306  0.037710  -0.417356
    O   O3   0.162179  0.724973  0.940946  -0.512005
    O   O4   0.814735  0.236858  0.963079  -0.416862
    H   H1   0.934225  0.361132  0.991312  0.140808
    H   H2   0.059009  0.601006  0.981514  0.090031
    H   H3   0.066181  0.361179  0.010664  0.143602
    H   H4   0.940568  0.601138  0.017320  0.094309
    C   C15  0.293745  0.845953  0.987726  -0.245167
    C   C16  0.712458  0.119694  0.034167  -0.309932
    C   C17  0.706234  0.846030  0.012211  -0.247419
    C   C18  0.287539  0.119692  0.965971  -0.308391
    H   H5   0.275825  0.740175  0.010299  0.194085
    H   H6   0.739213  0.229893  0.044385  0.179187
    H   H7   0.724114  0.740315  0.989545  0.195326
    H   H8   0.260763  0.229902  0.955903  0.178527
    C   C19  0.360227  0.842295  0.967784  -0.070423
    C   C20  0.640525  0.118851  0.036536  -0.052755
    C   C21  0.639742  0.842311  0.032133  -0.070015
    C   C22  0.359443  0.118866  0.963466  -0.052520
    C   C23  0.393497  0.979976  0.957012  -0.088898
    C   C24  0.606457  0.979957  0.042913  -0.088215
    C   C25  0.253206  0.982404  0.979966  0.317398
    C   C26  0.746810  0.982453  0.020114  0.320423
    H   H9   0.448796  0.979363  0.950989  0.118786
    H   H10  0.551145  0.979321  0.048888  0.118524
    O   O5   0.424822  0.646997  0.047201  -0.685659
    O   O6   0.574913  0.312424  0.953156  -0.718600
    O   O7   0.575159  0.646962  0.952726  -0.686045
    O   O8   0.425060  0.312462  0.046824  -0.718241
    O   O9   0.426232  0.643836  0.916042  -0.719865
    O   O10  0.574262  0.318080  0.084348  -0.738151
    O   O11  0.573747  0.643862  0.083886  -0.719414
    O   O12  0.425713  0.318055  0.915632  -0.738453
    C   C27  0.402863  0.699202  0.976325  0.820245
    C   C28  0.597687  0.261984  0.024935  0.879409
    C   C29  0.597120  0.699196  0.023598  0.819850
    C   C30  0.402286  0.261992  0.975051  0.879271
    Zn  Zn1  0.502011  0.480161  0.915425  1.048187
    Zn  Zn2  0.497966  0.480204  0.084529  1.046514
    C   C31  0.441037  0.473248  0.764161  -0.307081
    C   C32  0.558935  0.473338  0.235795  -0.307213
    N   N3   0.503792  0.480074  0.815885  0.190552
    N   N4   0.496183  0.480181  0.184068  0.191938
    C   C33  0.566301  0.488569  0.791639  -0.309221
    C   C34  0.433671  0.488674  0.208308  -0.311405
    C   C35  0.502766  0.481346  0.658865  -0.108734
    C   C36  0.497195  0.481416  0.341083  -0.109796
    C   C37  0.439837  0.472139  0.685489  0.290503
    C   C38  0.560127  0.472203  0.314464  0.290132
    C   C39  0.375464  0.459520  0.633707  -0.254344
    C   C40  0.624497  0.459532  0.366246  -0.254043
    C   C41  0.566776  0.492590  0.712604  0.260315
    C   C42  0.433189  0.492692  0.287343  0.263435
    H   H11  0.326024  0.448518  0.654453  0.146794
    H   H12  0.673937  0.448514  0.345502  0.146761
    C   C43  0.434688  0.482290  0.446666  -0.055727
    C   C44  0.565266  0.482246  0.553279  -0.055343
    C   C45  0.563956  0.473863  0.473420  0.076069
    C   C46  0.435999  0.473874  0.526527  0.076378
    C   C47  0.498601  0.479256  0.420598  0.069400
    C   C48  0.501355  0.479218  0.579349  0.069180
    C   C49  0.370717  0.497887  0.392017  -0.082070
    C   C50  0.629239  0.497812  0.607924  -0.083042
    C   C51  0.369755  0.504898  0.313520  -0.148724
    C   C52  0.630207  0.504785  0.686421  -0.146271
    C   C53  0.373257  0.459481  0.555089  -0.160030
    C   C54  0.626698  0.459449  0.444861  -0.159948
    H   H13  0.319854  0.515961  0.407967  0.089071
    H   H14  0.680100  0.515901  0.591974  0.089370
    H   H15  0.321068  0.442595  0.518664  0.145027
    H   H16  0.678884  0.442506  0.481285  0.145025
    H   H17  0.615494  0.488551  0.835086  0.200514
    H   H18  0.384482  0.488641  0.164856  0.201053
    H   H19  0.391260  0.467154  0.784508  0.201410
    H   H20  0.608714  0.467229  0.215452  0.201393
    C   C55  0.300495  0.531481  0.260725  0.188164
    C   C56  0.242401  0.439414  0.266311  -0.131391
    C   C57  0.175953  0.468621  0.219821  0.073007
    Cl  Cl1  0.102675  0.350117  0.226375  -0.116338
    C   C58  0.167065  0.591876  0.168682  -0.059433
    C   C59  0.224617  0.686054  0.164121  -0.108926
    C   C60  0.291227  0.656198  0.210195  -0.191628
    H   H21  0.249007  0.343363  0.306798  0.094471
    H   H22  0.114825  0.615544  0.132758  0.065369
    H   H23  0.217343  0.784232  0.124950  0.100854
    H   H24  0.335904  0.732118  0.207566  0.120108
    C   C61  0.699472  0.531338  0.739202  0.187017
    C   C62  0.757554  0.439262  0.733585  -0.132127
    C   C63  0.824025  0.468519  0.780009  0.073099
    Cl  Cl2  0.897294  0.350025  0.773412  -0.116278
    C   C64  0.832947  0.591837  0.831107  -0.058319
    C   C65  0.775401  0.685991  0.835722  -0.109387
    C   C66  0.708766  0.656081  0.789716  -0.191383
    H   H25  0.750924  0.343188  0.693111  0.094647
    H   H26  0.885212  0.615574  0.866947  0.065374
    H   H27  0.782702  0.784207  0.874870  0.100496
    H   H28  0.664095  0.732003  0.792368  0.120382
