# generated using pymatgen
data_ZnH21C41NO9
_symmetry_space_group_name_H-M   'P 1'
_cell_length_a   15.21232500
_cell_length_b   12.09000800
_cell_length_c   14.40783600
_cell_angle_alpha   90.15296600
_cell_angle_beta   89.98973600
_cell_angle_gamma   90.00000000
_symmetry_Int_Tables_number   1
_chemical_formula_structural   ZnH21C41NO9
_chemical_formula_sum   'Zn2 H42 C82 N2 O18'
_cell_volume   2649.83837423
_cell_formula_units_Z   2
loop_
 _symmetry_equiv_pos_site_id
 _symmetry_equiv_pos_as_xyz
  1  'x, y, z'
loop_
 _atom_site_type_symbol
 _atom_site_label
 _atom_site_symmetry_multiplicity
 _atom_site_fract_x
 _atom_site_fract_y
 _atom_site_fract_z
 _atom_site_occupancy
  Zn  Zn1  1  0.50390700  0.50794800  0.89780900  1
  Zn  Zn2  1  0.49761300  0.49235000  0.10274300  1
  H  H1  1  0.12317600  0.80297300  0.13275700  1
  H  H2  1  0.87840900  0.19847300  0.86712100  1
  H  H3  1  0.33819000  0.80479300  0.87920100  1
  H  H4  1  0.66382400  0.19511600  0.12118300  1
  H  H5  1  0.21399700  0.93139200  0.87542300  1
  H  H6  1  0.78806100  0.06850800  0.12389200  1
  H  H7  1  0.32968000  0.20319900  0.11665200  1
  H  H8  1  0.67210400  0.79625800  0.88272400  1
  H  H9  1  0.20567600  0.07737200  0.11662500  1
  H  H10  1  0.79594000  0.92231000  0.88260100  1
  H  H11  1  0.00128100  0.79903700  0.01586900  1
  H  H12  1  0.00023400  0.20137700  0.98308300  1
  H  H13  1  0.43237500  0.30384400  0.71781800  1
  H  H14  1  0.50870800  0.11427600  0.76242900  1
  H  H15  1  0.63147900  0.07891500  0.63657400  1
  H  H16  1  0.39010200  0.68124800  0.29859800  1
  H  H17  1  0.44493200  0.87771500  0.23986000  1
  H  H18  1  0.58190300  0.92987100  0.34351200  1
  H  H19  1  0.38414500  0.21568000  0.47903800  1
  H  H20  1  0.41068700  0.05533500  0.35571600  1
  H  H21  1  0.54429500  0.11928500  0.25190100  1
  H  H22  1  0.37287900  0.77809300  0.53581600  1
  H  H23  1  0.41025700  0.94279700  0.65214800  1
  H  H24  1  0.55582900  0.88538600  0.73906400  1
  H  H25  1  0.23584100  0.48924800  0.07137900  1
  H  H26  1  0.20890900  0.39953000  0.23728900  1
  H  H27  1  0.19601700  0.56579100  0.35540100  1
  H  H28  1  0.79205600  0.25679600  0.72391700  1
  H  H29  1  0.79514700  0.45381300  0.64222100  1
  H  H30  1  0.76568700  0.60096300  0.77410300  1
  H  H31  1  0.05917900  0.35092500  0.81652700  1
  H  H32  1  0.97258600  0.26226800  0.67430800  1
  H  H33  1  0.02245800  0.05366000  0.66465400  1
  H  H34  1  0.93726400  0.64570600  0.18393300  1
  H  H35  1  0.02907000  0.73196400  0.32356100  1
  H  H36  1  0.98676200  0.94332900  0.33123200  1
  H  H37  1  0.22658300  0.50617800  0.89874000  1
  H  H38  1  0.23831900  0.58258100  0.72613600  1
  H  H39  1  0.26427800  0.40864300  0.61867700  1
  H  H40  1  0.72115100  0.77389400  0.28742600  1
  H  H41  1  0.71613200  0.58763100  0.38575000  1
  H  H42  1  0.74571500  0.42513500  0.26724500  1
  C  C1  1  0.30058700  0.72787800  0.00725800  1
  C  C2  1  0.70066100  0.27219300  0.99301400  1
  C  C3  1  0.08038200  0.94340100  0.00089800  1
  C  C4  1  0.92110200  0.05704200  0.99793100  1
  C  C5  1  0.17154100  0.80469400  0.07789900  1
  C  C6  1  0.82972800  0.19638800  0.92162700  1
  C  C7  1  0.29144000  0.80339500  0.93567100  1
  C  C8  1  0.71025600  0.19662300  0.06443300  1
  C  C9  1  0.23845400  0.72804500  0.07872500  1
  C  C10  1  0.76217800  0.27245500  0.92107400  1
  C  C11  1  0.16144200  0.87763300  0.00548900  1
  C  C12  1  0.84004000  0.12294400  0.99375100  1
  C  C13  1  0.22197400  0.87698200  0.93417600  1
  C  C14  1  0.77975400  0.12311400  0.06531400  1
  C  C15  1  0.30082200  0.27280900  0.98326300  1
  C  C16  1  0.70009100  0.72849600  0.01699500  1
  C  C17  1  0.07995200  0.05709000  0.98829000  1
  C  C18  1  0.92154100  0.94331900  0.01066200  1
  C  C19  1  0.17471200  0.19233400  0.90629000  1
  C  C20  1  0.82647000  0.80883400  0.09365900  1
  C  C21  1  0.28675900  0.20170500  0.05691500  1
  C  C22  1  0.71464200  0.79853200  0.94275100  1
  C  C23  1  0.24326400  0.26881400  0.90731400  1
  C  C24  1  0.75680900  0.73378200  0.09342500  1
  C  C25  1  0.16104300  0.12318500  0.98160200  1
  C  C26  1  0.84040300  0.87731800  0.01786700  1
  C  C27  1  0.21732100  0.12851900  0.05644500  1
  C  C28  1  0.78406200  0.87173700  0.94307400  1
  C  C29  1  0.00122100  0.88818100  0.01045200  1
  C  C30  1  0.00027400  0.11222100  0.98834500  1
  C  C31  1  0.62574900  0.64954500  0.01104900  1
  C  C32  1  0.37567600  0.35096000  0.98940400  1
  C  C33  1  0.62624900  0.35028000  0.99603200  1
  C  C34  1  0.37515600  0.64990500  0.00453200  1
  C  C35  1  0.50322000  0.39807400  0.45545400  1
  C  C36  1  0.49984700  0.60094100  0.54525400  1
  C  C37  1  0.49818300  0.49462700  0.40451400  1
  C  C38  1  0.50589000  0.50439900  0.59618900  1
  C  C39  1  0.49760300  0.59648700  0.44904300  1
  C  C40  1  0.50947000  0.40245400  0.55150100  1
  C  C41  1  0.49634600  0.48838100  0.30475100  1
  C  C42  1  0.50683200  0.51136000  0.69585600  1
  C  C43  1  0.52900300  0.30047600  0.60334700  1
  C  C44  1  0.48615200  0.26462000  0.68183000  1
  C  C45  1  0.52489100  0.16735300  0.70463600  1
  C  C46  1  0.58844600  0.15003100  0.63858400  1
  C  C47  1  0.50197200  0.69918600  0.39493100  1
  C  C48  1  0.44544300  0.72787100  0.32450500  1
  C  C49  1  0.47314000  0.82834800  0.29475500  1
  C  C50  1  0.54415200  0.85452100  0.34937200  1
  C  C51  1  0.49695900  0.29150400  0.40693800  1
  C  C52  1  0.43462700  0.21253400  0.42626900  1
  C  C53  1  0.44790600  0.13095700  0.36306600  1
  C  C54  1  0.51733600  0.16559300  0.30952600  1
  C  C55  1  0.49447700  0.70727200  0.59447700  1
  C  C56  1  0.42862300  0.78377700  0.58211600  1
  C  C57  1  0.44744600  0.86760800  0.64167300  1
  C  C58  1  0.52320600  0.83651000  0.68642000  1
  C  C59  1  0.23390700  0.64434300  0.15211100  1
  C  C60  1  0.23096100  0.53209800  0.13696200  1
  C  C61  1  0.21610700  0.48639800  0.22142500  1
  C  C62  1  0.20927700  0.57382500  0.28201500  1
  C  C63  1  0.76469700  0.35760400  0.84858400  1
  C  C64  1  0.78195700  0.33639200  0.75659100  1
  C  C65  1  0.78356900  0.43683300  0.71482600  1
  C  C66  1  0.76813900  0.51245800  0.78423600  1
  C  C67  1  0.11614900  0.18316300  0.82538700  1
  C  C68  1  0.06454300  0.26708500  0.79091600  1
  C  C69  1  0.01990100  0.22178800  0.71869000  1
  C  C70  1  0.04642400  0.11330800  0.71461900  1
  C  C71  1  0.88641900  0.81641700  0.17356600  1
  C  C72  1  0.93540300  0.73026700  0.20842300  1
  C  C73  1  0.98261200  0.77428200  0.27937200  1
  C  C74  1  0.96002300  0.88421600  0.28240600  1
  C  C75  1  0.25049300  0.34618500  0.82918700  1
  C  C76  1  0.23907200  0.45873100  0.83649800  1
  C  C77  1  0.24446000  0.49763100  0.74842700  1
  C  C78  1  0.25778300  0.40624400  0.69336000  1
  C  C79  1  0.74694000  0.65799100  0.17222000  1
  C  C80  1  0.72996800  0.69048500  0.26194700  1
  C  C81  1  0.72762200  0.59562600  0.31203000  1
  C  C82  1  0.74319600  0.51189400  0.24950000  1
  N  N1  1  0.50640400  0.51554200  0.77613800  1
  N  N2  1  0.49538800  0.48475200  0.22443400  1
  O  O1  1  0.59434400  0.60533000  0.08719900  1
  O  O2  1  0.40704100  0.39511400  0.91320200  1
  O  O3  1  0.59498700  0.62356200  0.92852900  1
  O  O4  1  0.40657600  0.37663500  0.07206100  1
  O  O5  1  0.59822600  0.39375000  0.91835900  1
  O  O6  1  0.40305400  0.60634900  0.08232300  1
  O  O7  1  0.59203100  0.37621500  0.07687200  1
  O  O8  1  0.40951300  0.62412700  0.92364100  1
  O  O9  1  0.59120400  0.23052800  0.57650500  1
  O  O10  1  0.56193600  0.77642300  0.41081100  1
  O  O11  1  0.54737800  0.26370200  0.33558600  1
  O  O12  1  0.55214700  0.73868700  0.65824600  1
  O  O13  1  0.21863000  0.67044600  0.24000600  1
  O  O14  1  0.75723200  0.46485400  0.86613900  1
  O  O15  1  0.10464300  0.08894900  0.77979100  1
  O  O16  1  0.90183900  0.91068300  0.21777800  1
  O  O17  1  0.26077800  0.31346100  0.74201300  1
  O  O18  1  0.75510500  0.54927000  0.16406100  1
