# generated using pymatgen
data_Fe2H27C50NO20
_symmetry_space_group_name_H-M   'P 1'
_cell_length_a   14.12053000
_cell_length_b   9.40447500
_cell_length_c   20.06047300
_cell_angle_alpha   85.80015000
_cell_angle_beta   90.39816900
_cell_angle_gamma   109.87411800
_symmetry_Int_Tables_number   1
_chemical_formula_structural   Fe2H27C50NO20
_chemical_formula_sum   'Fe2 H27 C50 N1 O20'
_cell_volume   2498.10864575
_cell_formula_units_Z   1
loop_
 _symmetry_equiv_pos_site_id
 _symmetry_equiv_pos_as_xyz
  1  'x, y, z'
loop_
 _atom_site_type_symbol
 _atom_site_label
 _atom_site_symmetry_multiplicity
 _atom_site_fract_x
 _atom_site_fract_y
 _atom_site_fract_z
 _atom_site_occupancy
  Fe  Fe1  1  0.49797600  0.01600700  0.14361700  1
  Fe  Fe2  1  0.52539300  0.04134600  0.85122500  1
  H  H1  1  0.84582400  0.98729900  0.13123900  1
  H  H2  1  0.84011200  0.07930600  0.88782700  1
  H  H3  1  0.00571100  0.07277100  0.87796500  1
  H  H4  1  0.16746200  0.05725000  0.86617200  1
  H  H5  1  0.19196600  0.97867800  0.10907500  1
  H  H6  1  0.02207300  0.74106300  0.14588300  1
  H  H7  1  0.03063500  0.76151300  0.27310600  1
  H  H8  1  0.02890900  0.03463900  0.29827100  1
  H  H9  1  0.01912300  0.18003500  0.18017500  1
  H  H10  1  0.52355600  0.58490600  0.82757200  1
  H  H11  1  0.52789900  0.32887800  0.66094300  1
  H  H12  1  0.53181000  0.78418600  0.62979200  1
  H  H13  1  0.62480900  0.44000000  0.43373500  1
  H  H14  1  0.39669200  0.61696000  0.56071300  1
  H  H15  1  0.48958800  0.27234900  0.36485400  1
  H  H16  1  0.49589000  0.47064900  0.16708700  1
  H  H17  1  0.49248300  0.72711100  0.33373500  1
  H  H18  1  0.78649600  0.29859300  0.60725200  1
  H  H19  1  0.86607200  0.46728600  0.55896700  1
  H  H20  1  0.77664500  0.14871800  0.50888700  1
  H  H21  1  0.90568000  0.23923400  0.53334200  1
  H  H22  1  0.85680100  0.31724300  0.46129200  1
  H  H23  1  0.23604000  0.66411700  0.33615800  1
  H  H24  1  0.15664100  0.50676800  0.39061800  1
  H  H25  1  0.24851900  0.48404200  0.25519700  1
  H  H26  1  0.11859600  0.46510400  0.27141300  1
  H  H27  1  0.16961500  0.32696500  0.30968800  1
  C  C1  1  0.84668000  0.01008600  0.07789900  1
  C  C2  1  0.76099100  0.02439000  0.04877200  1
  C  C3  1  0.75839800  0.04885400  0.97965900  1
  C  C4  1  0.84296100  0.06440900  0.94165100  1
  C  C5  1  0.92764000  0.04738600  0.97111400  1
  C  C6  1  0.93012900  0.01990100  0.03948400  1
  C  C7  1  0.00823500  0.05199100  0.93155900  1
  C  C8  1  0.09204700  0.03046000  0.95995500  1
  C  C9  1  0.09567200  0.00331200  0.02822900  1
  C  C10  1  0.01452200  0.99782500  0.06842500  1
  C  C11  1  0.17281400  0.03853900  0.91962100  1
  C  C12  1  0.26033800  0.02685400  0.94696400  1
  C  C13  1  0.26533200  0.00490300  0.01599200  1
  C  C14  1  0.18271400  0.98941900  0.05576900  1
  C  C15  1  0.02662800  0.84930700  0.23641600  1
  C  C16  1  0.02572900  0.99089000  0.24964200  1
  C  C17  1  0.02046000  0.06589700  0.18872000  1
  C  C18  1  0.01792000  0.96652900  0.14091400  1
  C  C19  1  0.67561500  0.01305700  0.09307500  1
  C  C20  1  0.48992900  0.73913600  0.19839800  1
  C  C21  1  0.36008200  0.02076800  0.04962500  1
  C  C22  1  0.49075600  0.21730300  0.23659800  1
  C  C23  1  0.53065900  0.83928400  0.75800800  1
  C  C24  1  0.66395400  0.03302100  0.94501500  1
  C  C25  1  0.52951500  0.31628900  0.79638300  1
  C  C26  1  0.34501500  0.03858400  0.90176400  1
  C  C27  1  0.52826100  0.44340000  0.74954700  1
  C  C28  1  0.52937600  0.43312500  0.68102000  1
  C  C29  1  0.52986000  0.55548300  0.63785700  1
  C  C30  1  0.53013900  0.68791400  0.66329900  1
  C  C31  1  0.52653300  0.69721600  0.73128000  1
  C  C32  1  0.52436600  0.57478200  0.77430000  1
  C  C33  1  0.58806300  0.49243000  0.52983400  1
  C  C34  1  0.57329100  0.47551400  0.46227000  1
  C  C35  1  0.49761800  0.51256400  0.42925500  1
  C  C36  1  0.43367600  0.56476500  0.46466500  1
  C  C37  1  0.44824900  0.58138500  0.53224500  1
  C  C38  1  0.52373400  0.54395800  0.56534300  1
  C  C39  1  0.49077200  0.36837000  0.33135600  1
  C  C40  1  0.49396300  0.35889200  0.26336600  1
  C  C41  1  0.49534700  0.48090000  0.22036200  1
  C  C42  1  0.49153800  0.61224700  0.24515900  1
  C  C43  1  0.49103300  0.62286500  0.31367300  1
  C  C44  1  0.49098900  0.50074500  0.35680900  1
  C  C45  1  0.67599500  0.46491200  0.56049000  1
  C  C46  1  0.80442900  0.35686700  0.55643500  1
  C  C47  1  0.83813500  0.25895500  0.51202900  1
  C  C48  1  0.34639000  0.59350200  0.43371600  1
  C  C49  1  0.21882300  0.54272900  0.35280700  1
  C  C50  1  0.18675200  0.44842600  0.29328800  1
  N  N1  1  0.02212400  0.83553000  0.17009900  1
  O  O1  1  0.60003800  0.05341600  0.07132400  1
  O  O2  1  0.49510400  0.72847000  0.13375400  1
  O  O3  1  0.67753600  0.97023000  0.15664200  1
  O  O4  1  0.48642800  0.86555700  0.22026800  1
  O  O5  1  0.36260700  0.93019100  0.10219200  1
  O  O6  1  0.43855800  0.14285000  0.03498600  1
  O  O7  1  0.53827400  0.22077700  0.18013900  1
  O  O8  1  0.43348700  0.08772800  0.26605000  1
  O  O9  1  0.48332400  0.83660800  0.81444200  1
  O  O10  1  0.58895000  0.96835700  0.72871400  1
  O  O11  1  0.66109900  0.12442900  0.89273100  1
  O  O12  1  0.58479400  0.91228500  0.96019200  1
  O  O13  1  0.34044900  0.07725200  0.83796100  1
  O  O14  1  0.53813000  0.19264000  0.77473900  1
  O  O15  1  0.42345200  0.00522600  0.92357200  1
  O  O16  1  0.52026600  0.32476200  0.86088600  1
  O  O17  1  0.71305100  0.52613300  0.61056000  1
  O  O18  1  0.72042400  0.37998700  0.53021400  1
  O  O19  1  0.30892000  0.67559600  0.45966400  1
  O  O20  1  0.30287400  0.52140700  0.37989200  1
