# generated using pymatgen
data_Cu3H21C50NO14
_symmetry_space_group_name_H-M   'P 1'
_cell_length_a   43.42506500
_cell_length_b   29.83837800
_cell_length_c   29.67271700
_cell_angle_alpha   90.00000000
_cell_angle_beta   47.13092900
_cell_angle_gamma   90.00000000
_symmetry_Int_Tables_number   1
_chemical_formula_structural   Cu3H21C50NO14
_chemical_formula_sum   'Cu12 H84 C200 N4 O56'
_cell_volume   28178.88476037
_cell_formula_units_Z   4
loop_
 _symmetry_equiv_pos_site_id
 _symmetry_equiv_pos_as_xyz
  1  'x, y, z'
loop_
 _atom_site_type_symbol
 _atom_site_label
 _atom_site_symmetry_multiplicity
 _atom_site_fract_x
 _atom_site_fract_y
 _atom_site_fract_z
 _atom_site_occupancy
  Cu  Cu1  1  0.50000000  0.95637900  0.00000000  1
  Cu  Cu2  1  0.00000000  0.45637900  0.00000000  1
  Cu  Cu3  1  0.50000000  0.04377200  0.00000000  1
  Cu  Cu4  1  0.00000000  0.54377200  0.00000000  1
  Cu  Cu5  1  0.00023300  0.99930800  0.54463600  1
  Cu  Cu6  1  0.99976700  0.99930800  0.45536400  1
  Cu  Cu7  1  0.50023300  0.49930800  0.54463600  1
  Cu  Cu8  1  0.49976700  0.49930800  0.45536400  1
  Cu  Cu9  1  0.45914700  0.99945800  0.54056700  1
  Cu  Cu10  1  0.54085300  0.99945800  0.45943300  1
  Cu  Cu11  1  0.95914700  0.49945800  0.54056700  1
  Cu  Cu12  1  0.04085300  0.49945800  0.45943300  1
  H  H1  1  0.27703600  0.03870300  0.28911800  1
  H  H2  1  0.72296400  0.03870200  0.71088200  1
  H  H3  1  0.77703600  0.53870300  0.28911800  1
  H  H4  1  0.22296400  0.53870200  0.71088200  1
  H  H5  1  0.22489200  0.96214800  0.34190800  1
  H  H6  1  0.77510800  0.96214700  0.65809300  1
  H  H7  1  0.72489200  0.46214800  0.34190800  1
  H  H8  1  0.27510800  0.46214700  0.65809300  1
  H  H9  1  0.22436500  0.07643300  0.27503000  1
  H  H10  1  0.77563500  0.07643300  0.72497000  1
  H  H11  1  0.72436500  0.57643300  0.27503000  1
  H  H12  1  0.27563500  0.57643300  0.72497000  1
  H  H13  1  0.27626600  0.03779600  0.15665600  1
  H  H14  1  0.72373400  0.03779600  0.84334400  1
  H  H15  1  0.77626600  0.53779600  0.15665600  1
  H  H16  1  0.22373400  0.53779600  0.84334400  1
  H  H17  1  0.22412000  0.96124000  0.20945200  1
  H  H18  1  0.77588000  0.96124000  0.79054800  1
  H  H19  1  0.72412000  0.46124000  0.20945200  1
  H  H20  1  0.27588000  0.46124000  0.79054800  1
  H  H21  1  0.27678300  0.92351300  0.22354600  1
  H  H22  1  0.72321700  0.92351300  0.77645500  1
  H  H23  1  0.77678300  0.42351300  0.22354600  1
  H  H24  1  0.22321700  0.42351300  0.77645500  1
  H  H25  1  0.54797200  0.04970900  0.31309800  1
  H  H26  1  0.45202900  0.04970900  0.68690200  1
  H  H27  1  0.04797200  0.54970900  0.31309800  1
  H  H28  1  0.95202900  0.54970900  0.68690200  1
  H  H29  1  0.45234700  0.94939300  0.40809500  1
  H  H30  1  0.54765300  0.94939300  0.59190500  1
  H  H31  1  0.95234700  0.44939300  0.40809500  1
  H  H32  1  0.04765300  0.44939300  0.59190500  1
  H  H33  1  0.42684100  0.92016000  0.36393100  1
  H  H34  1  0.57315900  0.92016000  0.63606900  1
  H  H35  1  0.92684100  0.42016000  0.36393100  1
  H  H36  1  0.07315900  0.42016000  0.63606900  1
  H  H37  1  0.42789600  0.91922900  0.28050100  1
  H  H38  1  0.57210400  0.91922900  0.71949900  1
  H  H39  1  0.92789600  0.41922900  0.28050100  1
  H  H40  1  0.07210400  0.41922900  0.71949900  1
  H  H41  1  0.45458800  0.94748300  0.18450700  1
  H  H42  1  0.54541200  0.94748300  0.81549300  1
  H  H43  1  0.95458800  0.44748300  0.18450700  1
  H  H44  1  0.04541200  0.44748300  0.81549300  1
  H  H45  1  0.54551300  0.05267800  0.09413000  1
  H  H46  1  0.45448700  0.05267800  0.90587000  1
  H  H47  1  0.04551300  0.55267800  0.09413000  1
  H  H48  1  0.95448700  0.55267800  0.90587000  1
  H  H49  1  0.57226300  0.08064100  0.13707000  1
  H  H50  1  0.42773700  0.08064100  0.86293000  1
  H  H51  1  0.07226300  0.58064100  0.13707000  1
  H  H52  1  0.92773700  0.58064100  0.86293000  1
  H  H53  1  0.57341900  0.07929000  0.21829700  1
  H  H54  1  0.42658100  0.07929000  0.78170300  1
  H  H55  1  0.07341900  0.57929000  0.21829700  1
  H  H56  1  0.92658100  0.57929000  0.78170300  1
  H  H57  1  0.45834600  0.13823500  0.48519200  1
  H  H58  1  0.54165400  0.13823500  0.51480800  1
  H  H59  1  0.95834600  0.63823500  0.48519200  1
  H  H60  1  0.04165400  0.63823500  0.51480800  1
  H  H61  1  0.56293400  0.20768800  0.52687300  1
  H  H62  1  0.43706700  0.20768800  0.47312700  1
  H  H63  1  0.06293400  0.70768800  0.52687300  1
  H  H64  1  0.93706700  0.70768800  0.47312700  1
  H  H65  1  0.06128500  0.78962100  0.52982100  1
  H  H66  1  0.93871600  0.78962100  0.47017900  1
  H  H67  1  0.56128500  0.28962100  0.52982100  1
  H  H68  1  0.43871600  0.28962100  0.47017900  1
  H  H69  1  0.03791900  0.85905300  0.52150100  1
  H  H70  1  0.96208100  0.85905300  0.47849900  1
  H  H71  1  0.53791900  0.35905300  0.52150100  1
  H  H72  1  0.46208100  0.35905300  0.47849900  1
  H  H73  1  0.54249400  0.86061800  0.40225700  1
  H  H74  1  0.45750600  0.86061800  0.59774300  1
  H  H75  1  0.04249400  0.36061800  0.40225700  1
  H  H76  1  0.95750600  0.36061800  0.59774300  1
  H  H77  1  0.43479000  0.79215000  0.65188400  1
  H  H78  1  0.56521000  0.79215000  0.34811600  1
  H  H79  1  0.93479000  0.29215000  0.65188400  1
  H  H80  1  0.06521000  0.29215000  0.34811600  1
  H  H81  1  0.96417600  0.13835600  0.59539000  1
  H  H82  1  0.03582400  0.13835600  0.40461000  1
  H  H83  1  0.46417600  0.63835600  0.59539000  1
  H  H84  1  0.53582400  0.63835600  0.40461000  1
  C  C1  1  0.50006100  0.00008800  0.08503000  1
  C  C2  1  0.49993900  0.00008800  0.91497000  1
  C  C3  1  0.00006100  0.50008800  0.08503000  1
  C  C4  1  0.99993900  0.50008800  0.91497000  1
  C  C5  1  0.42041200  0.00007800  0.07930500  1
  C  C6  1  0.57958800  0.00007800  0.92069500  1
  C  C7  1  0.92041200  0.50007800  0.07930500  1
  C  C8  1  0.07958800  0.50007800  0.92069500  1
  C  C9  1  0.23709400  0.97931900  0.29931500  1
  C  C10  1  0.76290700  0.97931900  0.70068600  1
  C  C11  1  0.73709400  0.47931900  0.29931500  1
  C  C12  1  0.26290700  0.47931900  0.70068600  1
  C  C13  1  0.26448300  0.02112000  0.27157500  1
  C  C14  1  0.73551700  0.02112000  0.72842500  1
  C  C15  1  0.76448300  0.52112000  0.27157500  1
  C  C16  1  0.23551700  0.52112000  0.72842500  1
  C  C17  1  0.37512400  0.00005200  0.12455000  1
  C  C18  1  0.62487600  0.00005200  0.87545000  1
  C  C19  1  0.87512400  0.50005200  0.12455000  1
  C  C20  1  0.12487600  0.50005200  0.87545000  1
  C  C21  1  0.12603200  0.99953800  0.37412900  1
  C  C22  1  0.87396900  0.99953800  0.62587200  1
  C  C23  1  0.62603200  0.49953800  0.37412900  1
  C  C24  1  0.37396900  0.49953800  0.62587200  1
  C  C25  1  0.26434600  0.95822400  0.23577300  1
  C  C26  1  0.73565400  0.95822400  0.76422700  1
  C  C27  1  0.76434600  0.45822400  0.23577300  1
  C  C28  1  0.23565400  0.45822400  0.76422700  1
  C  C29  1  0.29097000  0.00002200  0.20879900  1
  C  C30  1  0.70903000  0.00002200  0.79120100  1
  C  C31  1  0.79097000  0.50002200  0.20879900  1
  C  C32  1  0.20903000  0.50002200  0.79120100  1
  C  C33  1  0.23667300  0.97882400  0.22699500  1
  C  C34  1  0.76332800  0.97882400  0.77300600  1
  C  C35  1  0.73667300  0.47882400  0.22699500  1
  C  C36  1  0.26332800  0.47882400  0.77300600  1
  C  C37  1  0.21018400  0.99992100  0.28977100  1
  C  C38  1  0.78981600  0.99992100  0.71022900  1
  C  C39  1  0.71018400  0.49992100  0.28977100  1
  C  C40  1  0.28981600  0.49992100  0.71022900  1
  C  C41  1  0.26406400  0.02062600  0.19925000  1
  C  C42  1  0.73593600  0.02062600  0.80075000  1
  C  C43  1  0.76406400  0.52062600  0.19925000  1
  C  C44  1  0.23593600  0.52062600  0.80075000  1
  C  C45  1  0.23680400  0.04172300  0.26280100  1
  C  C46  1  0.76319600  0.04172300  0.73719900  1
  C  C47  1  0.73680400  0.54172300  0.26280100  1
  C  C48  1  0.26319600  0.54172300  0.73719900  1
  C  C49  1  0.33714600  0.00004400  0.16254800  1
  C  C50  1  0.66285500  0.00004400  0.83745200  1
  C  C51  1  0.83714600  0.50004400  0.16254800  1
  C  C52  1  0.16285500  0.50004400  0.83745200  1
  C  C53  1  0.16401000  0.99977200  0.33606000  1
  C  C54  1  0.83599100  0.99977200  0.66394000  1
  C  C55  1  0.66401000  0.49977200  0.33606000  1
  C  C56  1  0.33599100  0.49977200  0.66394000  1
  C  C57  1  0.52713400  0.02743900  0.31581500  1
  C  C58  1  0.47286600  0.02743900  0.68418500  1
  C  C59  1  0.02713400  0.52743900  0.31581500  1
  C  C60  1  0.97286600  0.52743900  0.68418500  1
  C  C61  1  0.50016500  0.99953200  0.36580000  1
  C  C62  1  0.49983600  0.99953200  0.63420000  1
  C  C63  1  0.00016500  0.49953200  0.36580000  1
  C  C64  1  0.99983600  0.49953200  0.63420000  1
  C  C65  1  0.47318300  0.97173900  0.36941500  1
  C  C66  1  0.52681700  0.97173900  0.63058500  1
  C  C67  1  0.97318300  0.47173900  0.36941500  1
  C  C68  1  0.02681700  0.47173900  0.63058500  1
  C  C69  1  0.47363100  0.97137700  0.32260600  1
  C  C70  1  0.52637000  0.97137700  0.67739400  1
  C  C71  1  0.97363100  0.47137700  0.32260600  1
  C  C72  1  0.02637000  0.47137700  0.67739400  1
  C  C73  1  0.50012200  0.99977000  0.27311600  1
  C  C74  1  0.49987800  0.99977000  0.72688400  1
  C  C75  1  0.00012200  0.49977000  0.27311600  1
  C  C76  1  0.99987800  0.49977000  0.72688400  1
  C  C77  1  0.52664200  0.02803900  0.26993800  1
  C  C78  1  0.47335800  0.02803900  0.73006200  1
  C  C79  1  0.02664200  0.52803900  0.26993800  1
  C  C80  1  0.97335800  0.52803900  0.73006200  1
  C  C81  1  0.44759900  0.94257800  0.32529700  1
  C  C82  1  0.55240200  0.94257800  0.67470300  1
  C  C83  1  0.94759900  0.44257800  0.32529700  1
  C  C84  1  0.05240200  0.44257800  0.67470300  1
  C  C85  1  0.44819800  0.94205000  0.27834200  1
  C  C86  1  0.55180200  0.94205000  0.72165800  1
  C  C87  1  0.94819800  0.44205000  0.27834200  1
  C  C88  1  0.05180200  0.44205000  0.72165800  1
  C  C89  1  0.47438500  0.97077900  0.22915200  1
  C  C90  1  0.52561500  0.97077900  0.77084800  1
  C  C91  1  0.97438500  0.47077900  0.22915200  1
  C  C92  1  0.02561500  0.47077900  0.77084800  1
  C  C93  1  0.50009100  0.99989200  0.22677900  1
  C  C94  1  0.49990900  0.99989200  0.77322100  1
  C  C95  1  0.00009100  0.49989200  0.22677900  1
  C  C96  1  0.99990900  0.49989200  0.77322100  1
  C  C97  1  0.52576800  0.02911900  0.17809400  1
  C  C98  1  0.47423300  0.02911900  0.82190600  1
  C  C99  1  0.02576800  0.52911900  0.17809400  1
  C  C100  1  0.97423300  0.52911900  0.82190600  1
  C  C101  1  0.55198200  0.05773100  0.17522700  1
  C  C102  1  0.44801900  0.05773100  0.82477300  1
  C  C103  1  0.05198200  0.55773100  0.17522700  1
  C  C104  1  0.94801900  0.55773100  0.82477300  1
  C  C105  1  0.55264000  0.05696300  0.22093300  1
  C  C106  1  0.44736100  0.05696300  0.77906700  1
  C  C107  1  0.05264000  0.55696300  0.22093300  1
  C  C108  1  0.94736100  0.55696300  0.77906700  1
  C  C109  1  0.47482500  0.97040000  0.18235300  1
  C  C110  1  0.52517600  0.97040000  0.81764700  1
  C  C111  1  0.97482500  0.47040000  0.18235300  1
  C  C112  1  0.02517600  0.47040000  0.81764700  1
  C  C113  1  0.50005300  0.00008900  0.13407800  1
  C  C114  1  0.49994700  0.00008900  0.86592200  1
  C  C115  1  0.00005300  0.50008900  0.13407800  1
  C  C116  1  0.99994700  0.50008900  0.86592200  1
  C  C117  1  0.52528800  0.02970200  0.13220000  1
  C  C118  1  0.47471200  0.02970200  0.86780000  1
  C  C119  1  0.02528800  0.52970200  0.13220000  1
  C  C120  1  0.97471200  0.52970200  0.86780000  1
  C  C121  1  0.00000000  0.91327300  0.50000000  1
  C  C122  1  0.50000000  0.41327300  0.50000000  1
  C  C123  1  0.08074500  0.99909900  0.41950700  1
  C  C124  1  0.91925500  0.99909900  0.58049400  1
  C  C125  1  0.58074500  0.49909900  0.41950700  1
  C  C126  1  0.41925500  0.49909900  0.58049400  1
  C  C127  1  0.00000000  0.08539100  0.50000000  1
  C  C128  1  0.50000000  0.58539100  0.50000000  1
  C  C129  1  0.50000000  0.08407900  0.50000000  1
  C  C130  1  0.00000000  0.58407900  0.50000000  1
  C  C131  1  0.50012400  0.99945400  0.41486600  1
  C  C132  1  0.49987700  0.99945400  0.58513400  1
  C  C133  1  0.00012400  0.49945400  0.41486600  1
  C  C134  1  0.99987700  0.49945400  0.58513400  1
  C  C135  1  0.50000000  0.91483000  0.50000000  1
  C  C136  1  0.00000000  0.41483000  0.50000000  1
  C  C137  1  0.47642500  0.15621500  0.49216400  1
  C  C138  1  0.52357600  0.15621500  0.50783500  1
  C  C139  1  0.97642500  0.65621500  0.49216400  1
  C  C140  1  0.02357600  0.65621500  0.50783500  1
  C  C141  1  0.50000000  0.13303000  0.50000000  1
  C  C142  1  0.00000000  0.63303000  0.50000000  1
  C  C143  1  0.52288400  0.20243300  0.50908600  1
  C  C144  1  0.47711600  0.20243300  0.49091400  1
  C  C145  1  0.02288400  0.70243300  0.50908600  1
  C  C146  1  0.97711600  0.70243300  0.49091400  1
  C  C147  1  0.50000000  0.22554400  0.50000000  1
  C  C148  1  0.00000000  0.72554400  0.50000000  1
  C  C149  1  0.54503700  0.22557700  0.51949900  1
  C  C150  1  0.45496300  0.22557700  0.48050000  1
  C  C151  1  0.04503700  0.72557700  0.51949900  1
  C  C152  1  0.95496300  0.72557700  0.48050000  1
  C  C153  1  0.04409700  0.77173300  0.52117900  1
  C  C154  1  0.95590300  0.77173300  0.47882100  1
  C  C155  1  0.54409700  0.27173300  0.52117900  1
  C  C156  1  0.45590300  0.27173300  0.47882100  1
  C  C157  1  0.02167700  0.79487800  0.51124100  1
  C  C158  1  0.97832300  0.79487800  0.48875900  1
  C  C159  1  0.52167700  0.29487800  0.51124100  1
  C  C160  1  0.47832300  0.29487800  0.48875900  1
  C  C161  1  0.00000000  0.77176700  0.50000000  1
  C  C162  1  0.50000000  0.27176700  0.50000000  1
  C  C163  1  0.02098100  0.84109800  0.51247500  1
  C  C164  1  0.97902000  0.84109800  0.48752500  1
  C  C165  1  0.52098100  0.34109800  0.51247500  1
  C  C166  1  0.47902000  0.34109800  0.48752500  1
  C  C167  1  0.00000000  0.86429900  0.50000000  1
  C  C168  1  0.50000000  0.36429900  0.50000000  1
  C  C169  1  0.52397700  0.84264200  0.44529300  1
  C  C170  1  0.47602300  0.84264200  0.55470700  1
  C  C171  1  0.02397700  0.34264200  0.44529300  1
  C  C172  1  0.97602300  0.34264200  0.55470700  1
  C  C173  1  0.50000000  0.86586800  0.50000000  1
  C  C174  1  0.00000000  0.36586800  0.50000000  1
  C  C175  1  0.47670400  0.79641200  0.55455000  1
  C  C176  1  0.52329700  0.79641200  0.44544900  1
  C  C177  1  0.97670400  0.29641200  0.55455000  1
  C  C178  1  0.02329700  0.29641200  0.44544900  1
  C  C179  1  0.50000000  0.77316400  0.50000000  1
  C  C180  1  0.00000000  0.27316400  0.50000000  1
  C  C181  1  0.45359900  0.77358900  0.60926700  1
  C  C182  1  0.54640100  0.77358900  0.39073300  1
  C  C183  1  0.95359900  0.27358900  0.60926700  1
  C  C184  1  0.04640100  0.27358900  0.39073300  1
  C  C185  1  0.95312100  0.22739500  0.61019100  1
  C  C186  1  0.04688000  0.22739500  0.38980900  1
  C  C187  1  0.45312100  0.72739500  0.61019100  1
  C  C188  1  0.54688000  0.72739500  0.38980900  1
  C  C189  1  0.97703000  0.20372500  0.55509300  1
  C  C190  1  0.02297100  0.20372500  0.44490700  1
  C  C191  1  0.47703000  0.70372500  0.55509300  1
  C  C192  1  0.52297100  0.70372500  0.44490700  1
  C  C193  1  0.00000000  0.22684500  0.50000000  1
  C  C194  1  0.50000000  0.72684500  0.50000000  1
  C  C195  1  0.97931900  0.15738800  0.55407500  1
  C  C196  1  0.02068200  0.15738800  0.44592500  1
  C  C197  1  0.47931900  0.65738800  0.55407500  1
  C  C198  1  0.52068200  0.65738800  0.44592500  1
  C  C199  1  0.00000000  0.13436500  0.50000000  1
  C  C200  1  0.50000000  0.63436500  0.50000000  1
  N  N1  1  0.92670700  0.20518100  0.66836400  1
  N  N2  1  0.07329400  0.20518100  0.33163600  1
  N  N3  1  0.42670700  0.70518100  0.66836400  1
  N  N4  1  0.57329400  0.70518100  0.33163600  1
  O  O1  1  0.48793600  0.96325000  0.07615900  1
  O  O2  1  0.51206500  0.96325000  0.92384100  1
  O  O3  1  0.98793600  0.46325000  0.07615900  1
  O  O4  1  0.01206500  0.46325000  0.92384100  1
  O  O5  1  0.51217200  0.03689600  0.05194200  1
  O  O6  1  0.48782800  0.03689600  0.94805800  1
  O  O7  1  0.01217200  0.53689600  0.05194200  1
  O  O8  1  0.98782800  0.53689600  0.94805800  1
  O  O9  1  0.44012800  0.96323000  0.04672500  1
  O  O10  1  0.55987200  0.96323000  0.95327500  1
  O  O11  1  0.94012800  0.46323000  0.04672500  1
  O  O12  1  0.05987200  0.46323000  0.95327500  1
  O  O13  1  0.44014200  0.03693300  0.07255100  1
  O  O14  1  0.55985800  0.03693300  0.92744900  1
  O  O15  1  0.94014200  0.53693300  0.07255100  1
  O  O16  1  0.05985800  0.53693300  0.92744900  1
  O  O17  1  0.00314400  0.93422200  0.53553700  1
  O  O18  1  0.99685600  0.93422200  0.46446300  1
  O  O19  1  0.50314400  0.43422200  0.53553700  1
  O  O20  1  0.49685600  0.43422200  0.46446300  1
  O  O21  1  0.06129000  0.00221000  0.47774400  1
  O  O22  1  0.93871000  0.00221000  0.52225600  1
  O  O23  1  0.56129000  0.50221000  0.47774400  1
  O  O24  1  0.43871000  0.50221000  0.52225600  1
  O  O25  1  0.06090000  0.99978300  0.40049500  1
  O  O26  1  0.93910000  0.99978300  0.59950500  1
  O  O27  1  0.56090000  0.49978300  0.40049500  1
  O  O28  1  0.43910000  0.49978300  0.59950500  1
  O  O29  1  0.00067400  0.06448700  0.53823700  1
  O  O30  1  0.99932700  0.06448700  0.46176400  1
  O  O31  1  0.50067400  0.56448700  0.53823700  1
  O  O32  1  0.49932700  0.56448700  0.46176400  1
  O  O33  1  0.46568700  0.06311700  0.52037600  1
  O  O34  1  0.53431300  0.06311700  0.47962400  1
  O  O35  1  0.96568700  0.56311700  0.52037600  1
  O  O36  1  0.03431300  0.56311700  0.47962400  1
  O  O37  1  0.46573100  0.98590200  0.47002200  1
  O  O38  1  0.53426900  0.98590200  0.52997800  1
  O  O39  1  0.96573100  0.48590200  0.47002200  1
  O  O40  1  0.03426900  0.48590200  0.52997800  1
  O  O41  1  0.53444600  0.01301500  0.40173300  1
  O  O42  1  0.46555400  0.01301500  0.59826600  1
  O  O43  1  0.03444600  0.51301500  0.40173300  1
  O  O44  1  0.96555400  0.51301500  0.59826600  1
  O  O45  1  0.46563000  0.93579900  0.54782300  1
  O  O46  1  0.53437100  0.93579900  0.45217700  1
  O  O47  1  0.96563000  0.43579900  0.54782300  1
  O  O48  1  0.03437100  0.43579900  0.45217700  1
  O  O49  1  0.92145500  0.22300900  0.71317700  1
  O  O50  1  0.89959400  0.17567700  0.68134400  1
  O  O51  1  0.07854600  0.22300900  0.28682300  1
  O  O52  1  0.10040700  0.17567700  0.31865600  1
  O  O53  1  0.42145500  0.72300900  0.71317700  1
  O  O54  1  0.39959400  0.67567700  0.68134400  1
  O  O55  1  0.57854600  0.72300900  0.28682300  1
  O  O56  1  0.60040700  0.67567700  0.31865600  1
