# Generated by REPEAT Assigner based on pymatgen
data_DB0-m3_o150_o6_f0_fsc.sym.93
_audit_creation_date              2022-05-24
_audit_creation_method            REPEAT_Assigner
_cell_length_a                    14.376411
_cell_length_b                    8.552390
_cell_length_c                    15.014663
_cell_angle_alpha                 90.000000
_cell_angle_beta                  90.972258
_cell_angle_gamma                 90.000000
_cell_volume                      1845.827189
_symmetry_space_group_name_H-M    P1
_symmetry_Int_Tables_number       1
loop_
    _symmetry_equiv_pos_site_id
    _symmetry_equiv_pos_as_xyz
    1  x,y,z
loop_
    _atom_site_type_symbol
    _atom_site_label
    _atom_site_fract_x
    _atom_site_fract_y
    _atom_site_fract_z
    _atom_type_partial_charge
    H   H1   0.044230  0.998652  0.560383  0.145281
    H   H2   0.955770  0.998652  0.439617  0.145278
    C   C1   0.021173  0.138247  0.674689  0.040111
    C   C2   0.978824  0.858991  0.325339  0.060542
    C   C3   0.978827  0.138247  0.325311  0.040113
    C   C4   0.021176  0.858990  0.674661  0.060539
    C   C5   0.007798  0.138805  0.765411  -0.410980
    C   C6   0.992187  0.858378  0.234629  -0.453235
    C   C7   0.992202  0.138805  0.234589  -0.410980
    C   C8   0.007813  0.858378  0.765371  -0.453235
    H   H3   0.000548  0.248209  0.800674  0.128641
    H   H4   0.999428  0.748946  0.199393  0.140130
    H   H5   0.999452  0.248209  0.199326  0.128642
    H   H6   0.000572  0.748946  0.800607  0.140129
    C   C9   0.005417  0.998564  0.811225  0.454141
    C   C10  0.994583  0.998564  0.188775  0.454139
    C   C11  0.032825  0.998630  0.631028  -0.241619
    C   C12  0.967175  0.998630  0.368972  -0.241617
    C   C13  0.916377  0.999164  0.951448  -0.093451
    C   C14  0.083623  0.999164  0.048552  -0.093457
    C   C15  0.916810  0.998789  0.043549  -0.209076
    C   C16  0.083190  0.998789  0.956451  -0.209073
    H   H7   0.852753  0.996698  0.079782  0.087008
    H   H8   0.147247  0.996698  0.920218  0.087006
    C   C17  0.999351  0.998391  0.091822  0.080509
    C   C18  0.000649  0.998391  0.908178  0.080509
    O   O1   0.089738  0.667810  0.581490  -0.748194
    O   O2   0.910266  0.329415  0.418506  -0.751960
    O   O3   0.910262  0.667810  0.418510  -0.748195
    O   O4   0.089734  0.329415  0.581494  -0.751958
    O   O5   0.931146  0.661841  0.602666  -0.706351
    O   O6   0.068853  0.335385  0.397330  -0.701480
    O   O7   0.068854  0.661841  0.397334  -0.706350
    O   O8   0.931147  0.335385  0.602670  -0.701480
    C   C19  0.014519  0.716993  0.621008  0.871305
    C   C20  0.985481  0.280248  0.378971  0.875301
    C   C21  0.985481  0.716993  0.378992  0.871303
    C   C22  0.014519  0.280248  0.621029  0.875301
    Zn  Zn1  0.897131  0.498610  0.510857  1.107130
    Zn  Zn2  0.102869  0.498610  0.489143  1.107122
    H   H9   0.596959  0.498602  0.366722  0.167911
    H   H10  0.403042  0.498602  0.633278  0.167909
    C   C23  0.458661  0.498601  0.416310  -0.134684
    C   C24  0.541339  0.498601  0.583690  -0.134689
    H   H11  0.426378  0.498602  0.350760  0.149780
    H   H12  0.573622  0.498602  0.649240  0.149781
    C   C25  0.404355  0.498602  0.491063  0.243992
    C   C26  0.595645  0.498602  0.508938  0.243989
    C   C27  0.445712  0.498601  0.574685  -0.174282
    C   C28  0.554288  0.498601  0.425315  -0.174288
    C   C29  0.304757  0.498604  0.482661  0.049602
    C   C30  0.695243  0.498604  0.517339  0.049607
    N   N1   0.775684  0.498606  0.521487  -0.068140
    N   N2   0.224316  0.498606  0.478513  -0.068138
    C   C31  0.827826  0.998837  0.900650  0.184611
    C   C32  0.741508  0.023656  0.936551  -0.246783
    C   C33  0.680196  0.013328  0.867094  -0.165981
    C   C34  0.732806  0.983004  0.793705  -0.180459
    O   O9   0.822725  0.974118  0.813567  0.055458
    H   H13  0.723898  0.048814  0.004662  0.168832
    H   H14  0.605506  0.026948  0.869097  0.139739
    H   H15  0.704812  0.968192  0.726963  0.136659
    C   C35  0.172174  0.998837  0.099350  0.184621
    C   C36  0.258492  0.023657  0.063450  -0.246782
    C   C37  0.319804  0.013328  0.132906  -0.165978
    C   C38  0.267194  0.983004  0.206295  -0.180461
    O   O10  0.177275  0.974119  0.186433  0.055455
    H   H16  0.276102  0.048814  0.995338  0.168828
    H   H17  0.394494  0.026949  0.130903  0.139740
    H   H18  0.295188  0.968192  0.273037  0.136659
