# Generated by REPEAT Assigner based on pymatgen
data_DB0-m3_o8_o18_f0_pcu.sym.97_sqe
_audit_creation_date              2022-05-24
_audit_creation_method            REPEAT_Assigner
_cell_length_a                    15.927977
_cell_length_b                    15.916572
_cell_length_c                    17.105736
_cell_angle_alpha                 90.890332
_cell_angle_beta                  88.871798
_cell_angle_gamma                 105.440403
_cell_volume                      4179.058561
_symmetry_space_group_name_H-M    P1
_symmetry_Int_Tables_number       1
loop_
    _symmetry_equiv_pos_site_id
    _symmetry_equiv_pos_as_xyz
    1  x,y,z
loop_
    _atom_site_type_symbol
    _atom_site_label
    _atom_site_fract_x
    _atom_site_fract_y
    _atom_site_fract_z
    _atom_type_partial_charge
    O   O1   0.502043  0.420164  0.374873  -0.714708
    O   O2   0.497750  0.578144  0.601746  -0.714672
    O   O3   0.496487  0.563157  0.369010  -0.701843
    O   O4   0.503417  0.435133  0.607609  -0.697132
    C   C1   0.499072  0.489249  0.335346  0.836431
    C   C2   0.500771  0.509047  0.641264  0.840277
    O   O5   0.373173  0.387177  0.494125  -0.646384
    O   O6   0.626675  0.611126  0.482774  -0.653293
    O   O7   0.367438  0.530073  0.488150  -0.652601
    O   O8   0.632408  0.468242  0.488633  -0.665017
    C   C3   0.329452  0.446269  0.491960  0.714932
    C   C4   0.670403  0.552040  0.484924  0.735133
    Zn  Zn1  0.503978  0.404977  0.492132  1.079068
    Zn  Zn2  0.495871  0.593322  0.484481  1.067066
    C   C5   0.233950  0.417775  0.497007  -0.067964
    C   C6   0.765926  0.580988  0.486531  -0.084674
    C   C7   0.102758  0.305578  0.514605  -0.102508
    C   C8   0.897201  0.694969  0.490736  -0.101477
    C   C9   0.191969  0.331394  0.508462  -0.121820
    C   C10  0.807983  0.668432  0.487703  -0.129178
    C   C11  0.185850  0.477997  0.491947  -0.137278
    C   C12  0.813961  0.520451  0.488813  -0.108135
    C   C13  0.095315  0.453704  0.501592  0.101911
    C   C14  0.904510  0.546082  0.495622  0.050544
    C   C15  0.054239  0.365967  0.511207  -0.015299
    C   C16  0.945656  0.634575  0.494667  0.018978
    C   C17  0.045212  0.514525  0.500705  0.014624
    C   C18  0.954572  0.485693  0.502237  0.067385
    C   C19  0.915852  0.397347  0.513439  -0.393483
    C   C20  0.083953  0.603857  0.501355  -0.348338
    C   C21  0.964747  0.338198  0.518230  0.288826
    C   C22  0.035150  0.663242  0.498514  0.255585
    H   H1   0.778227  0.453402  0.483009  0.084590
    H   H2   0.221509  0.543314  0.477967  0.084939
    H   H3   0.772071  0.717164  0.485886  0.105903
    H   H4   0.227951  0.282910  0.512499  0.104715
    H   H5   0.072400  0.236992  0.522735  0.067993
    H   H6   0.927618  0.764237  0.490640  0.067128
    H   H7   0.847098  0.372093  0.522631  0.198354
    H   H8   0.152660  0.630362  0.508043  0.186892
    C   C23  0.499047  0.483686  0.249680  -0.233551
    C   C24  0.500797  0.514611  0.726931  -0.231700
    C   C25  0.496598  0.555172  0.205779  -0.052332
    C   C26  0.503276  0.443134  0.770832  -0.058573
    C   C27  0.497069  0.550374  0.125179  -0.156375
    C   C28  0.502804  0.447932  0.851432  -0.148624
    C   C29  0.499991  0.473278  0.087557  0.471575
    C   C30  0.499852  0.525019  0.889054  0.465087
    C   C31  0.502235  0.402112  0.131560  -0.365824
    C   C32  0.497580  0.596176  0.845052  -0.361721
    C   C33  0.501792  0.406996  0.212051  0.074284
    C   C34  0.498022  0.591292  0.764561  0.069950
    N   N1   0.500814  0.465030  0.005083  -0.245510
    N   N2   0.499028  0.533266  0.971528  -0.241756
    H   H9   0.505496  0.382412  0.742867  0.114250
    H   H10  0.494402  0.615901  0.233746  0.113820
    H   H11  0.504757  0.390044  0.882757  0.060478
    H   H12  0.495141  0.608269  0.093854  0.061347
    H   H13  0.504480  0.341890  0.102599  0.133881
    H   H14  0.495312  0.656392  0.874013  0.133094
    H   H15  0.503714  0.350042  0.244782  0.089059
    H   H16  0.496077  0.648241  0.731832  0.091077
    N   N3   0.489522  0.716884  0.479593  -0.127202
    N   N4   0.510350  0.281423  0.497005  -0.175761
    C   C35  0.548737  0.779914  0.517304  -0.034931
    C   C36  0.451165  0.218341  0.459331  0.051215
    C   C37  0.544867  0.865429  0.515351  -0.104188
    C   C38  0.455096  0.132852  0.461349  -0.216646
    C   C39  0.479026  0.886249  0.474348  0.470933
    C   C40  0.520961  0.112110  0.502388  0.507436
    C   C41  0.419128  0.820566  0.436414  -0.366371
    C   C42  0.580824  0.177857  0.540298  -0.369752
    C   C43  0.425247  0.735950  0.439455  0.117340
    C   C44  0.574643  0.262442  0.537182  0.154273
    N   N5   0.471135  0.972498  0.470172  -0.211479
    N   N6   0.528891  0.025874  0.506602  -0.203486
    H   H17  0.400166  0.234672  0.426990  0.138315
    H   H18  0.599715  0.763521  0.549628  0.164806
    H   H19  0.405958  0.084696  0.430179  0.094758
    H   H20  0.594021  0.913547  0.546542  0.052526
    H   H21  0.367226  0.835440  0.404238  0.158370
    H   H22  0.632746  0.163095  0.572524  0.157052
    H   H23  0.378004  0.684727  0.409551  0.118979
    H   H24  0.621857  0.313713  0.567066  0.106206
    N   N7   0.923601  0.248744  0.530106  -0.226676
    C   C45  0.865909  0.208398  0.468701  -0.062587
    C   C46  0.833834  0.111629  0.484208  0.171366
    O   O9   0.788665  0.097337  0.555946  -0.390171
    C   C47  0.848936  0.132458  0.614216  0.246216
    C   C48  0.881930  0.230306  0.605429  -0.068428
    H   H25  0.901455  0.218910  0.411778  0.044139
    H   H26  0.808833  0.235680  0.466853  0.048913
    H   H27  0.889289  0.081731  0.483291  0.020180
    H   H28  0.788861  0.080755  0.437006  0.030892
    H   H29  0.904182  0.102269  0.611921  -0.006654
    H   H30  0.816187  0.118479  0.672181  0.013034
    H   H31  0.929603  0.257267  0.651799  0.044744
    H   H32  0.825993  0.259192  0.611161  0.042809
    N   N8   0.076409  0.753800  0.499453  -0.222508
    C   C49  0.135058  0.782733  0.434526  -0.120031
    C   C50  0.167713  0.881134  0.438153  0.216137
    O   O10  0.211989  0.907557  0.508013  -0.390539
    C   C51  0.150720  0.883486  0.569040  0.169074
    C   C52  0.117058  0.785204  0.572285  -0.009196
    H   H33  0.100187  0.762566  0.379015  0.055608
    H   H34  0.191851  0.755099  0.436940  0.075817
    H   H35  0.112677  0.910986  0.432549  0.008867
    H   H36  0.213477  0.903135  0.388315  0.019007
    H   H37  0.095904  0.913350  0.561947  0.014581
    H   H38  0.182696  0.907387  0.625132  0.038235
    H   H39  0.068587  0.767010  0.620719  0.030338
    H   H40  0.172499  0.757218  0.582675  0.027035
