# Generated by REPEAT Assigner based on pymatgen
data_DB0-m3_o23_o25_f0_nbo.sym.54_sqe
_audit_creation_date              2022-05-24
_audit_creation_method            REPEAT_Assigner
_cell_length_a                    27.612480
_cell_length_b                    27.608362
_cell_length_c                    27.654095
_cell_angle_alpha                 109.375909
_cell_angle_beta                  109.515615
_cell_angle_gamma                 109.416101
_cell_volume                      16249.878834
_symmetry_space_group_name_H-M    P1
_symmetry_Int_Tables_number       1
loop_
    _symmetry_equiv_pos_site_id
    _symmetry_equiv_pos_as_xyz
    1  x,y,z
loop_
    _atom_site_type_symbol
    _atom_site_label
    _atom_site_fract_x
    _atom_site_fract_y
    _atom_site_fract_z
    _atom_type_partial_charge
    O   O1   0.936404  0.974286  0.536817  -0.654393
    O   O2   0.938831  0.902203  0.466634  -0.685832
    C   C1   0.918256  0.918746  0.501761  0.702838
    O   O3   0.936050  0.035734  0.474944  -0.669116
    O   O4   0.938467  0.965318  0.403062  -0.682199
    C   C2   0.917833  0.000447  0.419535  0.693599
    Zn  Zn1  0.999811  0.047260  0.547928  1.302469
    Zn  Zn2  0.999980  0.952254  0.453218  1.311123
    O   O5   0.060949  0.097314  0.534502  -0.682774
    O   O6   0.063376  0.025229  0.464323  -0.675954
    O   O7   0.061328  0.034198  0.598082  -0.682946
    O   O8   0.063742  0.963782  0.526203  -0.669007
    C   C3   0.081516  0.080768  0.499363  0.726541
    C   C4   0.081964  0.999071  0.581611  0.703370
    C   C5   0.701687  0.985302  0.256248  -0.214488
    C   C6   0.729248  0.946381  0.244819  -0.212571
    H   H1   0.713934  0.902205  0.241413  0.079380
    H   H2   0.660960  0.973363  0.259724  0.078536
    H   H3   0.723528  0.928220  0.153220  0.079385
    C   C7   0.872904  0.000239  0.374485  0.111126
    C   C8   0.625615  0.999215  0.126590  0.117362
    C   C9   0.762665  0.038794  0.302978  -0.197490
    C   C10  0.789385  0.999870  0.290706  0.937226
    C   C11  0.769321  0.053027  0.256163  -0.209570
    C   C12  0.709184  0.999538  0.210276  0.935611
    C   C13  0.796883  0.014106  0.244735  -0.222679
    C   C14  0.735902  0.960613  0.198002  -0.208751
    C   C15  0.835161  0.000068  0.336626  -0.645896
    C   C16  0.663389  0.999357  0.164391  -0.649225
    H   H4   0.837611  0.026045  0.241259  0.082810
    H   H5   0.784634  0.097203  0.259570  0.076642
    H   H6   0.775039  0.071186  0.347759  0.071431
    C   C17  0.794934  0.812464  0.562088  0.019169
    C   C18  0.797983  0.736324  0.487680  -0.119837
    C   C19  0.754553  0.692058  0.494547  -0.163430
    H   H7   0.756710  0.760809  0.596545  0.078288
    H   H8   0.835047  0.815003  0.592649  0.014387
    H   H9   0.789605  0.715746  0.441707  0.035321
    H   H10  0.843926  0.749703  0.518513  0.031445
    H   H11  0.778913  0.690288  0.534363  0.027119
    H   H12  0.730958  0.647567  0.455014  0.041953
    C   C20  0.626786  0.626951  0.500918  0.023431
    C   C21  0.789606  0.789830  0.501231  0.669016
    C   C22  0.741606  0.768435  0.558647  -0.329137
    C   C23  0.710218  0.710808  0.501094  0.758975
    C   C24  0.681859  0.719793  0.450014  -0.161068
    C   C25  0.728857  0.770453  0.453016  -0.185031
    C   C26  0.664459  0.664849  0.500995  -0.506734
    C   C27  0.835538  0.835800  0.501485  -0.532301
    C   C28  0.873331  0.873656  0.501633  0.054791
    H   H13  0.719509  0.807454  0.461057  0.075471
    H   H14  0.727391  0.755131  0.409806  0.048101
    H   H15  0.647053  0.730263  0.452615  0.044632
    H   H16  0.710545  0.785206  0.560258  0.085710
    H   H17  0.661491  0.678769  0.407586  0.033409
    C   C29  0.250124  0.061760  0.763715  -0.184389
    C   C30  0.247646  0.981425  0.686723  -0.167505
    C   C31  0.297953  0.986164  0.735748  -0.145722
    H   H18  0.340134  0.095455  0.828572  0.036181
    H   H19  0.273636  0.092651  0.751563  0.034876
    H   H20  0.219538  0.935025  0.649692  0.028045
    H   H21  0.265964  0.010667  0.670496  0.045047
    H   H22  0.340754  0.021799  0.747449  0.024626
    H   H23  0.297868  0.943563  0.720542  0.042882
    C   C32  0.373756  0.000963  0.873023  0.047238
    C   C33  0.210772  0.999954  0.710359  0.778402
    C   C34  0.294860  0.060905  0.812781  -0.133835
    C   C35  0.289980  0.000493  0.789422  0.746663
    C   C36  0.229606  0.954090  0.772304  -0.156864
    C   C37  0.182067  0.957002  0.728078  -0.153301
    C   C38  0.335911  0.000781  0.835260  -0.553788
    C   C39  0.164837  0.999635  0.664491  -0.560177
    C   C40  0.126983  0.999370  0.626654  0.050593
    H   H24  0.157700  0.972314  0.748352  0.029048
    H   H25  0.150579  0.912350  0.688520  0.038861
    H   H26  0.224883  0.962416  0.812108  0.043168
    H   H27  0.222830  0.076892  0.779108  0.046538
    H   H28  0.285840  0.070056  0.850067  0.026239
    H   H29  0.224788  0.909502  0.752228  0.029798
    C   C41  0.195774  0.259159  0.503521  -0.258744
    C   C42  0.209897  0.183221  0.441609  -0.142848
    C   C43  0.254119  0.231816  0.439768  -0.156509
    H   H30  0.155109  0.243033  0.462492  0.046644
    H   H31  0.222822  0.148887  0.439247  0.017376
    H   H32  0.165184  0.162721  0.403347  0.040892
    H   H33  0.230941  0.237996  0.403084  0.035713
    H   H34  0.285336  0.218334  0.431184  0.040599
    C   C44  0.371731  0.372412  0.498794  0.107325
    C   C45  0.209327  0.209445  0.498832  0.786181
    C   C46  0.248226  0.310212  0.513127  0.015161
    C   C47  0.288519  0.288678  0.498987  0.754532
    C   C48  0.317526  0.275885  0.546627  -0.132146
    C   C49  0.269542  0.233428  0.550755  -0.195466
    C   C50  0.334139  0.334601  0.498889  -0.621500
    C   C51  0.163756  0.163632  0.499071  -0.531813
    C   C52  0.126219  0.125834  0.499233  0.027518
    H   H35  0.270785  0.256996  0.592741  0.033181
    H   H36  0.277363  0.196380  0.550031  0.050973
    H   H37  0.347693  0.317494  0.589847  0.038612
    H   H38  0.188477  0.274197  0.541602  0.058853
    H   H39  0.273724  0.344480  0.560596  0.008332
    H   H40  0.343504  0.255572  0.535239  0.029303
    O   O9   0.465191  0.026941  0.062882  -0.685178
    O   O10  0.535706  0.099691  0.061299  -0.663962
    C   C53  0.500372  0.082699  0.081562  0.710446
    O   O11  0.525088  0.961785  0.061324  -0.665607
    O   O12  0.597295  0.036246  0.063124  -0.681018
    C   C54  0.580635  0.999055  0.081639  0.683232
    Zn  Zn3  0.452128  0.952529  0.999724  1.309879
    Zn  Zn4  0.547287  0.047608  0.999858  1.305182
    O   O13  0.463706  0.900455  0.938274  -0.677144
    O   O14  0.534220  0.973198  0.936690  -0.684116
    O   O15  0.402098  0.963925  0.936454  -0.681081
    O   O16  0.474301  0.038383  0.938248  -0.668551
    C   C55  0.499047  0.917438  0.918018  0.734579
    C   C56  0.418754  0.001105  0.917929  0.706114
    O   O17  0.537111  0.562753  0.599355  -0.677908
    O   O18  0.462725  0.560783  0.526886  -0.680805
    C   C57  0.499756  0.581120  0.582536  0.727905
    O   O19  0.598945  0.563280  0.537967  -0.674466
    O   O20  0.526259  0.561348  0.463826  -0.687198
    C   C58  0.581991  0.581818  0.500885  0.727329
    Zn  Zn5  0.546727  0.499403  0.547126  1.315669
    Zn  Zn6  0.451733  0.499846  0.452430  1.307276
    O   O21  0.535739  0.438468  0.472667  -0.689515
    O   O22  0.461360  0.436504  0.400206  -0.667310
    O   O23  0.472206  0.437910  0.535739  -0.691009
    O   O24  0.399515  0.435976  0.461601  -0.660300
    C   C59  0.498700  0.418120  0.417011  0.712139
    C   C60  0.416479  0.417452  0.498699  0.697875
    C   C61  0.439809  0.186282  0.206605  -0.126684
    C   C62  0.515158  0.265619  0.203324  -0.016881
    C   C63  0.505246  0.308521  0.244364  -0.325283
    H   H41  0.403443  0.239178  0.238833  0.056597
    H   H42  0.403784  0.173567  0.163721  0.060805
    H   H43  0.562954  0.287300  0.217321  0.019797
    H   H44  0.464659  0.308830  0.219296  0.079581
    H   H45  0.543791  0.353744  0.267960  0.071442
    C   C64  0.498951  0.373290  0.372162  0.032406
    C   C65  0.499728  0.210721  0.209980  0.701906
    C   C66  0.441353  0.232215  0.256815  -0.224006
    C   C67  0.499121  0.289799  0.288674  0.809656
    C   C68  0.550432  0.280704  0.316901  -0.171292
    C   C69  0.546393  0.228566  0.270514  -0.130538
    C   C70  0.499070  0.335611  0.334472  -0.521658
    C   C71  0.499963  0.165041  0.164213  -0.566633
    C   C72  0.500151  0.127443  0.126509  0.063721
    H   H46  0.533968  0.190898  0.278914  0.039096
    H   H47  0.590022  0.241302  0.272881  0.032148
    H   H48  0.548725  0.271791  0.352725  0.039241
    H   H49  0.430176  0.146075  0.210898  0.031570
    H   H50  0.437975  0.216454  0.288210  0.042961
    H   H51  0.592917  0.321246  0.335915  0.028816
    C   C73  0.492998  0.738393  0.801908  -0.157646
    C   C74  0.556775  0.815089  0.788965  -0.312144
    C   C75  0.560117  0.765058  0.748486  0.005858
    H   H52  0.516833  0.672815  0.768242  0.026896
    H   H53  0.533044  0.753942  0.843298  0.026292
    H   H54  0.558178  0.847572  0.773582  0.075860
    H   H55  0.594918  0.838045  0.834297  0.068685
    H   H56  0.590850  0.755618  0.776487  0.015100
    C   C76  0.499476  0.625940  0.627343  0.055928
    C   C77  0.499316  0.789144  0.789507  0.766566
    C   C78  0.485904  0.687914  0.750854  -0.117122
    C   C79  0.499184  0.709518  0.710633  0.685927
    C   C80  0.450798  0.722046  0.681985  -0.151292
    C   C81  0.447931  0.766175  0.729607  -0.208859
    C   C82  0.499320  0.663657  0.664956  -0.552232
    C   C83  0.499340  0.834993  0.835341  -0.492667
    C   C84  0.499256  0.872662  0.873075  0.006970
    H   H57  0.405550  0.744174  0.728472  0.039956
    H   H58  0.450319  0.803439  0.721543  0.059304
    H   H59  0.407516  0.680335  0.654358  0.046650
    H   H60  0.453566  0.722577  0.807175  0.037927
    H   H61  0.439857  0.650379  0.725785  0.037451
    H   H62  0.458666  0.739305  0.652915  0.061648
    C   C85  0.802765  0.873392  0.587112  0.645656
    O   O25  0.763137  0.882705  0.564742  -0.547046
    O   O26  0.855820  0.919890  0.637482  -0.595127
    H   H63  0.854271  0.957941  0.649088  0.417733
    C   C86  0.228753  0.338444  0.478564  0.630089
    O   O27  0.245319  0.391126  0.504599  -0.537268
    O   O28  0.190742  0.305379  0.417614  -0.582038
    H   H64  0.182156  0.331774  0.402164  0.409671
    C   C87  0.481869  0.251221  0.140668  0.680442
    O   O29  0.428353  0.230997  0.115319  -0.556368
    O   O30  0.512836  0.262249  0.111364  -0.598187
    H   H65  0.484457  0.250521  0.069773  0.414053
    C   C88  0.584948  0.781976  0.712351  0.661685
    O   O31  0.562402  0.799105  0.680639  -0.547343
    O   O32  0.635299  0.779116  0.715979  -0.600730
    H   H66  0.646729  0.792029  0.689346  0.415465
