# generated using pymatgen
data_Zn3H28(C3O)17
_symmetry_space_group_name_H-M   'P 1'
_cell_length_a   36.89940300
_cell_length_b   30.10336300
_cell_length_c   21.52901200
_cell_angle_alpha   90.00000000
_cell_angle_beta   54.68187200
_cell_angle_gamma   90.00000000
_symmetry_Int_Tables_number   1
_chemical_formula_structural   Zn3H28(C3O)17
_chemical_formula_sum   'Zn12 H112 C204 O68'
_cell_volume   19513.02107183
_cell_formula_units_Z   4
loop_
 _symmetry_equiv_pos_site_id
 _symmetry_equiv_pos_as_xyz
  1  'x, y, z'
loop_
 _atom_site_type_symbol
 _atom_site_label
 _atom_site_symmetry_multiplicity
 _atom_site_fract_x
 _atom_site_fract_y
 _atom_site_fract_z
 _atom_site_occupancy
  Zn  Zn1  1  0.00004000  0.55251500  0.49994400  1
  Zn  Zn2  1  0.50004000  0.05251500  0.49994400  1
  Zn  Zn3  1  0.99987400  0.45189100  0.50008400  1
  Zn  Zn4  1  0.49987400  0.95189100  0.50008400  1
  Zn  Zn5  1  0.94968700  0.50024400  0.04825900  1
  Zn  Zn6  1  0.05031700  0.50040700  0.95158900  1
  Zn  Zn7  1  0.44968700  0.00024400  0.04825900  1
  Zn  Zn8  1  0.55031700  0.00040700  0.95158900  1
  Zn  Zn9  1  0.50010200  0.50010800  0.92965200  1
  Zn  Zn10  1  0.49980700  0.50025000  0.07073600  1
  Zn  Zn11  1  0.00010200  0.00010800  0.92965200  1
  Zn  Zn12  1  0.99980700  0.00025000  0.07073600  1
  H  H1  1  0.93381900  0.47125700  0.26781100  1
  H  H2  1  0.06528700  0.46880300  0.73318600  1
  H  H3  1  0.43381900  0.97125700  0.26781100  1
  H  H4  1  0.56528700  0.96880300  0.73318600  1
  H  H5  1  0.93137900  0.52949900  0.25743200  1
  H  H6  1  0.06928700  0.52705000  0.74138300  1
  H  H7  1  0.43137900  0.02949900  0.25743200  1
  H  H8  1  0.56928700  0.02705000  0.74138300  1
  H  H9  1  0.01282900  0.57359400  0.28817600  1
  H  H10  1  0.98893200  0.57274800  0.70924800  1
  H  H11  1  0.51282900  0.07359400  0.28817600  1
  H  H12  1  0.48893200  0.07274800  0.70924800  1
  H  H13  1  0.00562200  0.57244700  0.19318700  1
  H  H14  1  0.99649500  0.57196600  0.80376700  1
  H  H15  1  0.50562200  0.07244700  0.19318700  1
  H  H16  1  0.49649500  0.07196600  0.80376700  1
  H  H17  1  0.04839700  0.45165800  0.25840000  1
  H  H18  1  0.95014200  0.45172500  0.74339500  1
  H  H19  1  0.54839700  0.95165800  0.25840000  1
  H  H20  1  0.45014200  0.95172500  0.74339500  1
  H  H21  1  0.99429700  0.43020600  0.30388100  1
  H  H22  1  0.00363700  0.42890200  0.69893800  1
  H  H23  1  0.49429700  0.93020600  0.30388100  1
  H  H24  1  0.50363700  0.92890200  0.69893800  1
  H  H25  1  0.00369700  0.43016300  0.19161200  1
  H  H26  1  0.99416100  0.42971100  0.81123300  1
  H  H27  1  0.50369700  0.93016300  0.19161200  1
  H  H28  1  0.49416100  0.92971100  0.81123300  1
  H  H29  1  0.05558800  0.45960900  0.14749900  1
  H  H30  1  0.94316300  0.46062500  0.85416200  1
  H  H31  1  0.55558800  0.95960900  0.14749900  1
  H  H32  1  0.44316300  0.96062500  0.85416200  1
  H  H33  1  0.05720000  0.54280500  0.13713800  1
  H  H34  1  0.94403600  0.54395500  0.86125400  1
  H  H35  1  0.55720000  0.04280500  0.13713800  1
  H  H36  1  0.44403600  0.04395500  0.86125400  1
  H  H37  1  0.63860200  0.45379100  0.93507200  1
  H  H38  1  0.36164000  0.45361800  0.06486800  1
  H  H39  1  0.13860200  0.95379100  0.93507200  1
  H  H40  1  0.86164000  0.95361800  0.06486800  1
  H  H41  1  0.64025700  0.54795300  0.78810400  1
  H  H42  1  0.35937500  0.54758100  0.21259900  1
  H  H43  1  0.14025700  0.04795300  0.78810400  1
  H  H44  1  0.85937500  0.04758100  0.21259900  1
  H  H45  1  0.70829900  0.57842200  0.68461600  1
  H  H46  1  0.29108600  0.57771800  0.31621400  1
  H  H47  1  0.20829900  0.07842200  0.68461600  1
  H  H48  1  0.79108600  0.07771800  0.31621400  1
  H  H49  1  0.78932400  0.58185600  0.60726000  1
  H  H50  1  0.21003700  0.58068600  0.39346400  1
  H  H51  1  0.28932400  0.08185600  0.60726000  1
  H  H52  1  0.71003700  0.08068600  0.39346400  1
  H  H53  1  0.85850600  0.55589800  0.57908400  1
  H  H54  1  0.14100000  0.55432000  0.42134000  1
  H  H55  1  0.35850600  0.05589800  0.57908400  1
  H  H56  1  0.64100000  0.05432000  0.42134000  1
  H  H57  1  0.86069900  0.45006900  0.70795100  1
  H  H58  1  0.13952100  0.44827800  0.29217400  1
  H  H59  1  0.36069900  0.95006900  0.70795100  1
  H  H60  1  0.63952100  0.94827800  0.29217400  1
  H  H61  1  0.79354400  0.42143300  0.81391400  1
  H  H62  1  0.20690100  0.42006400  0.18598900  1
  H  H63  1  0.29354400  0.92143300  0.81391400  1
  H  H64  1  0.70690100  0.92006400  0.18598900  1
  H  H65  1  0.54889400  0.35988300  0.88138100  1
  H  H66  1  0.45093100  0.35980600  0.12120000  1
  H  H67  1  0.04889400  0.85988300  0.88138100  1
  H  H68  1  0.95093100  0.85980600  0.12120000  1
  H  H69  1  0.42051300  0.29082600  0.18742100  1
  H  H70  1  0.57888300  0.29089100  0.81487300  1
  H  H71  1  0.92051300  0.79082600  0.18742100  1
  H  H72  1  0.07888300  0.79089100  0.81487300  1
  H  H73  1  0.91830300  0.70962300  0.18632000  1
  H  H74  1  0.08051900  0.70965700  0.81562500  1
  H  H75  1  0.41830300  0.20962300  0.18632000  1
  H  H76  1  0.58051900  0.20965700  0.81562500  1
  H  H77  1  0.94566400  0.64063100  0.11852700  1
  H  H78  1  0.05269500  0.64062000  0.88314700  1
  H  H79  1  0.44566400  0.14063100  0.11852700  1
  H  H80  1  0.55269500  0.14062000  0.88314700  1
  H  H81  1  0.53934000  0.64047600  0.04223100  1
  H  H82  1  0.46080600  0.64101200  0.95577000  1
  H  H83  1  0.03934000  0.14047600  0.04223100  1
  H  H84  1  0.96080600  0.14101200  0.95577000  1
  H  H85  1  0.43759100  0.70853600  0.93529700  1
  H  H86  1  0.56302700  0.70767800  0.06267000  1
  H  H87  1  0.93759100  0.20853600  0.93529700  1
  H  H88  1  0.06302700  0.20767800  0.06267000  1
  H  H89  1  0.95492300  0.36225800  0.97163100  1
  H  H90  1  0.04675000  0.36170900  0.02631700  1
  H  H91  1  0.45492300  0.86225800  0.97163100  1
  H  H92  1  0.54675000  0.86170900  0.02631700  1
  H  H93  1  0.92530700  0.56119400  0.42598600  1
  H  H94  1  0.07504300  0.55775400  0.57234900  1
  H  H95  1  0.42530700  0.06119400  0.42598600  1
  H  H96  1  0.57504300  0.05775400  0.57234900  1
  H  H97  1  0.08356300  0.56271000  0.25908400  1
  H  H98  1  0.91767000  0.56372300  0.73974900  1
  H  H99  1  0.58356300  0.06271000  0.25908400  1
  H  H100  1  0.41767000  0.06372300  0.73974900  1
  H  H101  1  0.92213700  0.44000200  0.37842600  1
  H  H102  1  0.07612800  0.43670500  0.62377400  1
  H  H103  1  0.42213700  0.94000200  0.37842600  1
  H  H104  1  0.57612800  0.93670500  0.62377400  1
  H  H105  1  0.67293800  0.40001100  0.94252900  1
  H  H106  1  0.32768100  0.39956400  0.05710200  1
  H  H107  1  0.17293800  0.90001100  0.94252900  1
  H  H108  1  0.82768100  0.89956400  0.05710200  1
  H  H109  1  0.93585400  0.32902400  0.90783300  1
  H  H110  1  0.06567600  0.32805500  0.08997900  1
  H  H111  1  0.43585400  0.82902400  0.90783300  1
  H  H112  1  0.56567600  0.82805500  0.08997900  1
  C  C1  1  0.91310100  0.50321100  0.58921500  1
  C  C2  1  0.08682800  0.50126800  0.41084500  1
  C  C3  1  0.41310100  0.00321100  0.58921500  1
  C  C4  1  0.58682800  0.00126800  0.41084500  1
  C  C5  1  0.99756700  0.50308900  0.38075900  1
  C  C6  1  0.00228900  0.50134600  0.61928800  1
  C  C7  1  0.49756700  0.00308900  0.38075900  1
  C  C8  1  0.50228900  0.00134600  0.61928800  1
  C  C9  1  0.94908300  0.50910900  0.33496100  1
  C  C10  1  0.05093500  0.50656100  0.66471400  1
  C  C11  1  0.44908300  0.00910900  0.33496100  1
  C  C12  1  0.55093500  0.00656100  0.66471400  1
  C  C13  1  0.95009500  0.50321700  0.26337900  1
  C  C14  1  0.04987600  0.50112700  0.73642800  1
  C  C15  1  0.45009500  0.00321700  0.26337900  1
  C  C16  1  0.54987600  0.00112700  0.73642800  1
  C  C17  1  0.02562600  0.54124400  0.25887700  1
  C  C18  1  0.97532300  0.54083500  0.73975000  1
  C  C19  1  0.52562600  0.04124400  0.25887700  1
  C  C20  1  0.47532300  0.04083500  0.73975000  1
  C  C21  1  0.01556300  0.45867800  0.27001300  1
  C  C22  1  0.98311100  0.45799700  0.73168900  1
  C  C23  1  0.51556300  0.95867800  0.27001300  1
  C  C24  1  0.48311100  0.95799700  0.73168900  1
  C  C25  1  0.99686000  0.50294000  0.31202000  1
  C  C26  1  0.00298800  0.50157900  0.68802600  1
  C  C27  1  0.49686000  0.00294000  0.31202000  1
  C  C28  1  0.50298800  0.00157900  0.68802600  1
  C  C29  1  0.99796600  0.50158100  0.19285100  1
  C  C30  1  0.00200800  0.50095400  0.80706100  1
  C  C31  1  0.49796600  0.00158100  0.19285100  1
  C  C32  1  0.50200800  0.00095400  0.80706100  1
  C  C33  1  0.02333000  0.54201100  0.19073600  1
  C  C34  1  0.97782900  0.54198700  0.80763800  1
  C  C35  1  0.52333000  0.04201100  0.19073600  1
  C  C36  1  0.47782900  0.04198700  0.80763800  1
  C  C37  1  0.01994500  0.45990600  0.19569700  1
  C  C38  1  0.97878800  0.45979600  0.80593400  1
  C  C39  1  0.51994500  0.95990600  0.19569700  1
  C  C40  1  0.47878800  0.95979600  0.80593400  1
  C  C41  1  0.65811000  0.47343300  0.88419800  1
  C  C42  1  0.34197000  0.47309300  0.11591300  1
  C  C43  1  0.15811000  0.97343300  0.88419800  1
  C  C44  1  0.84197000  0.97309300  0.11591300  1
  C  C45  1  0.63531800  0.50009200  0.86559500  1
  C  C46  1  0.36457400  0.49985900  0.13474900  1
  C  C47  1  0.13531800  0.00009200  0.86559500  1
  C  C48  1  0.86457400  0.99985900  0.13474900  1
  C  C49  1  0.65818900  0.52661300  0.80197600  1
  C  C50  1  0.34154700  0.52618900  0.19857600  1
  C  C51  1  0.15818900  0.02661300  0.80197600  1
  C  C52  1  0.84154700  0.02618900  0.19857600  1
  C  C53  1  0.70385800  0.52777500  0.75843600  1
  C  C54  1  0.29586900  0.52708800  0.24207700  1
  C  C55  1  0.20385800  0.02777500  0.75843600  1
  C  C56  1  0.79586900  0.02708800  0.24207700  1
  C  C57  1  0.72697800  0.50019600  0.77539600  1
  C  C58  1  0.27293300  0.49936300  0.22491700  1
  C  C59  1  0.22697800  0.00019600  0.77539600  1
  C  C60  1  0.77293300  0.99936300  0.22491700  1
  C  C61  1  0.70428800  0.47172200  0.83745200  1
  C  C62  1  0.29581100  0.47104300  0.16267200  1
  C  C63  1  0.20428800  0.97172200  0.83745200  1
  C  C64  1  0.79581100  0.97104300  0.16267200  1
  C  C65  1  0.72635900  0.55676200  0.69778800  1
  C  C66  1  0.27317200  0.55594300  0.30288900  1
  C  C67  1  0.22635900  0.05676200  0.69778800  1
  C  C68  1  0.77317200  0.05594300  0.30288900  1
  C  C69  1  0.77197600  0.55876000  0.65426500  1
  C  C70  1  0.22754300  0.55767800  0.34635100  1
  C  C71  1  0.27197600  0.05876000  0.65426500  1
  C  C72  1  0.72754300  0.05767800  0.34635100  1
  C  C73  1  0.79527700  0.53095800  0.67014000  1
  C  C74  1  0.20443100  0.52971400  0.33029300  1
  C  C75  1  0.29527700  0.03095800  0.67014000  1
  C  C76  1  0.70443100  0.02971400  0.33029300  1
  C  C77  1  0.77284600  0.50133400  0.72995200  1
  C  C78  1  0.22706000  0.50019800  0.27035100  1
  C  C79  1  0.27284600  0.00133400  0.72995200  1
  C  C80  1  0.72706000  0.00019800  0.27035100  1
  C  C81  1  0.79641000  0.47286100  0.74411600  1
  C  C82  1  0.20369000  0.47152700  0.25604500  1
  C  C83  1  0.29641000  0.97286100  0.74411600  1
  C  C84  1  0.70369000  0.97152700  0.25604500  1
  C  C85  1  0.77431000  0.44386300  0.80450800  1
  C  C86  1  0.22598400  0.44265000  0.19550300  1
  C  C87  1  0.27431000  0.94386300  0.80450800  1
  C  C88  1  0.72598400  0.94265000  0.19550300  1
  C  C89  1  0.72838900  0.44285700  0.85174400  1
  C  C90  1  0.27191000  0.44198400  0.14822400  1
  C  C91  1  0.22838900  0.94285700  0.85174400  1
  C  C92  1  0.77191000  0.94198400  0.14822400  1
  C  C93  1  0.84106200  0.53262200  0.62579400  1
  C  C94  1  0.15863800  0.53111300  0.37456000  1
  C  C95  1  0.34106200  0.03262200  0.62579400  1
  C  C96  1  0.65863800  0.03111300  0.37456000  1
  C  C97  1  0.86462300  0.50305800  0.63853900  1
  C  C98  1  0.13529100  0.50136000  0.36165200  1
  C  C99  1  0.36462300  0.00305800  0.63853900  1
  C  C100  1  0.63529100  0.00136000  0.36165200  1
  C  C101  1  0.84224700  0.47289900  0.69732700  1
  C  C102  1  0.15785400  0.47126000  0.30283200  1
  C  C103  1  0.34224700  0.97289900  0.69732700  1
  C  C104  1  0.65785400  0.97126000  0.30283200  1
  C  C105  1  0.99904000  0.58722400  0.00078300  1
  C  C106  1  0.49904000  0.08722400  0.00078300  1
  C  C107  1  0.99900100  0.50066400  0.12251200  1
  C  C108  1  0.00099100  0.50041500  0.87738400  1
  C  C109  1  0.49900100  0.00066400  0.12251200  1
  C  C110  1  0.50099100  0.00041500  0.87738400  1
  C  C111  1  0.00096700  0.41348800  0.99902700  1
  C  C112  1  0.50096700  0.91348800  0.99902700  1
  C  C113  1  0.50000700  0.41331200  0.00140500  1
  C  C114  1  0.00000700  0.91331200  0.00140500  1
  C  C115  1  0.58679100  0.50016700  0.91336100  1
  C  C116  1  0.41308400  0.50014700  0.08703300  1
  C  C117  1  0.08679100  0.00016700  0.91336100  1
  C  C118  1  0.91308400  0.00014700  0.08703300  1
  C  C119  1  0.49993100  0.58707900  0.99896300  1
  C  C120  1  0.99993100  0.08707900  0.99896300  1
  C  C121  1  0.52708700  0.34190700  0.93394800  1
  C  C122  1  0.47265100  0.34186200  0.06856400  1
  C  C123  1  0.02708700  0.84190700  0.93394800  1
  C  C124  1  0.97265100  0.84186200  0.06856400  1
  C  C125  1  0.49994000  0.36482500  0.00130500  1
  C  C126  1  0.99994000  0.86482500  0.00130500  1
  C  C127  1  0.47166400  0.29605300  0.06815100  1
  C  C128  1  0.52777300  0.29608400  0.93416700  1
  C  C129  1  0.97166400  0.79605300  0.06815100  1
  C  C130  1  0.02777300  0.79608400  0.93416700  1
  C  C131  1  0.49963800  0.27315900  0.00110900  1
  C  C132  1  0.99963800  0.77315900  0.00110900  1
  C  C133  1  0.44267100  0.27310100  0.13471100  1
  C  C134  1  0.55660100  0.27314600  0.86750700  1
  C  C135  1  0.94267100  0.77310100  0.13471100  1
  C  C136  1  0.05660100  0.77314600  0.86750700  1
  C  C137  1  0.94141000  0.72736300  0.13408600  1
  C  C138  1  0.05753600  0.72738900  0.86793500  1
  C  C139  1  0.44141000  0.22736300  0.13408600  1
  C  C140  1  0.55753600  0.22738900  0.86793500  1
  C  C141  1  0.96993700  0.70442900  0.06728300  1
  C  C142  1  0.02884100  0.70443400  0.93463600  1
  C  C143  1  0.46993700  0.20442900  0.06728300  1
  C  C144  1  0.52884100  0.20443400  0.93463600  1
  C  C145  1  0.99947100  0.72734000  0.00100900  1
  C  C146  1  0.49947100  0.22734000  0.00100900  1
  C  C147  1  0.96900200  0.65862200  0.06672100  1
  C  C148  1  0.02945800  0.65861200  0.93501100  1
  C  C149  1  0.46900200  0.15862200  0.06672100  1
  C  C150  1  0.52945800  0.15861200  0.93501100  1
  C  C151  1  0.99915200  0.63569200  0.00082200  1
  C  C152  1  0.49915200  0.13569200  0.00082200  1
  C  C153  1  0.52184500  0.65848000  0.02368500  1
  C  C154  1  0.47840600  0.65877900  0.97434300  1
  C  C155  1  0.02184500  0.15848000  0.02368500  1
  C  C156  1  0.97840600  0.15877900  0.97434300  1
  C  C157  1  0.50004500  0.63560600  0.99902100  1
  C  C158  1  0.00004500  0.13560600  0.99902100  1
  C  C159  1  0.47772300  0.70461300  0.97608000  1
  C  C160  1  0.52285000  0.70430800  0.02192600  1
  C  C161  1  0.97772300  0.20461300  0.97608000  1
  C  C162  1  0.02285000  0.20430800  0.02192600  1
  C  C163  1  0.50036900  0.72755100  0.99899500  1
  C  C164  1  0.00036900  0.22755100  0.99899500  1
  C  C165  1  0.45454800  0.72724800  0.95413800  1
  C  C166  1  0.54619700  0.72662900  0.04383000  1
  C  C167  1  0.95454800  0.22724800  0.95413800  1
  C  C168  1  0.04619700  0.22662900  0.04383000  1
  C  C169  1  0.95358300  0.27308800  0.95468800  1
  C  C170  1  0.04749700  0.27245800  0.04323900  1
  C  C171  1  0.45358300  0.77308800  0.95468800  1
  C  C172  1  0.54749700  0.77245800  0.04323900  1
  C  C173  1  0.97640700  0.29654700  0.97815900  1
  C  C174  1  0.02483200  0.29623200  0.01977300  1
  C  C175  1  0.47640700  0.79654700  0.97815900  1
  C  C176  1  0.52483200  0.79623200  0.01977300  1
  C  C177  1  0.00053600  0.27348400  0.99897600  1
  C  C178  1  0.50053600  0.77348400  0.99897600  1
  C  C179  1  0.97495200  0.34254400  0.98262000  1
  C  C180  1  0.02659700  0.34223100  0.01531700  1
  C  C181  1  0.47495200  0.84254400  0.98262000  1
  C  C182  1  0.52659700  0.84223100  0.01531700  1
  C  C183  1  0.00084500  0.36502400  0.99897900  1
  C  C184  1  0.50084500  0.86502400  0.99897900  1
  C  C185  1  0.93099100  0.55393200  0.37169100  1
  C  C186  1  0.07008300  0.55075200  0.62616300  1
  C  C187  1  0.43099100  0.05393200  0.37169100  1
  C  C188  1  0.57008300  0.05075200  0.62616300  1
  C  C189  1  0.07274700  0.53918100  0.23482400  1
  C  C190  1  0.92805400  0.53993600  0.76435300  1
  C  C191  1  0.57274700  0.03918100  0.23482400  1
  C  C192  1  0.42805400  0.03993600  0.76435300  1
  C  C193  1  0.91818100  0.47502900  0.39229900  1
  C  C194  1  0.08091200  0.47155800  0.60859500  1
  C  C195  1  0.41818100  0.97502900  0.39229900  1
  C  C196  1  0.58091200  0.97155800  0.60859500  1
  C  C197  1  0.70722200  0.40988100  0.91391700  1
  C  C198  1  0.29331000  0.40913800  0.08585400  1
  C  C199  1  0.20722200  0.90988100  0.91391700  1
  C  C200  1  0.79331000  0.90913800  0.08585400  1
  C  C201  1  0.92948300  0.29496600  0.92730800  1
  C  C202  1  0.07177600  0.29399000  0.07056400  1
  C  C203  1  0.42948300  0.79496600  0.92730800  1
  C  C204  1  0.57177600  0.79399000  0.07056400  1
  O  O1  1  0.93365800  0.54155100  0.56578500  1
  O  O2  1  0.06604800  0.53957500  0.43158000  1
  O  O3  1  0.43365800  0.04155100  0.56578500  1
  O  O4  1  0.56604800  0.03957500  0.43158000  1
  O  O5  1  0.93386400  0.46490800  0.57005300  1
  O  O6  1  0.06630600  0.46285700  0.43255100  1
  O  O7  1  0.43386400  0.96490800  0.57005300  1
  O  O8  1  0.56630600  0.96285700  0.43255100  1
  O  O9  1  0.99790200  0.54144200  0.40934200  1
  O  O10  1  0.00019100  0.53953400  0.59210100  1
  O  O11  1  0.49790200  0.04144200  0.40934200  1
  O  O12  1  0.50019100  0.03953400  0.59210100  1
  O  O13  1  0.99870700  0.46482600  0.40884400  1
  O  O14  1  0.00313800  0.46295200  0.58959800  1
  O  O15  1  0.49870700  0.96482600  0.40884400  1
  O  O16  1  0.50313800  0.96295200  0.58959800  1
  O  O17  1  0.96064700  0.56666700  0.03702200  1
  O  O18  1  0.03736000  0.56648700  0.96461200  1
  O  O19  1  0.46064700  0.06666700  0.03702200  1
  O  O20  1  0.53736000  0.06648700  0.96461200  1
  O  O21  1  0.96123200  0.50084800  0.12951800  1
  O  O22  1  0.03874400  0.49885100  0.87038000  1
  O  O23  1  0.46123200  0.00084800  0.12951800  1
  O  O24  1  0.53874400  0.99885100  0.87038000  1
  O  O25  1  0.03782600  0.50006500  0.05641000  1
  O  O26  1  0.96218500  0.50177300  0.94346200  1
  O  O27  1  0.53782600  0.00006500  0.05641000  1
  O  O28  1  0.46218500  0.00177300  0.94346200  1
  O  O29  1  0.96272800  0.43423100  0.03351900  1
  O  O30  1  0.03928000  0.43404800  0.96457000  1
  O  O31  1  0.46272800  0.93423100  0.03351900  1
  O  O32  1  0.53928000  0.93404800  0.96457000  1
  O  O33  1  0.50214600  0.43406000  0.94576000  1
  O  O34  1  0.49777100  0.43387700  0.05724400  1
  O  O35  1  0.00214600  0.93406000  0.94576000  1
  O  O36  1  0.99777100  0.93387700  0.05724400  1
  O  O37  1  0.56638400  0.50222900  0.87983300  1
  O  O38  1  0.43348400  0.50049900  0.12064800  1
  O  O39  1  0.06638400  0.00222900  0.87983300  1
  O  O40  1  0.93348400  0.00049900  0.12064800  1
  O  O41  1  0.56583300  0.49825900  0.98752200  1
  O  O42  1  0.43403600  0.49994200  0.01281200  1
  O  O43  1  0.06583300  0.99825900  0.98752200  1
  O  O44  1  0.93403600  0.99994200  0.01281200  1
  O  O45  1  0.49988800  0.56648600  0.94530800  1
  O  O46  1  0.49995700  0.56630300  0.05252500  1
  O  O47  1  0.99988800  0.06648600  0.94530800  1
  O  O48  1  0.99995700  0.06630300  0.05252500  1
  O  O49  1  0.92316400  0.58293400  0.34144600  1
  O  O50  1  0.07959100  0.57950500  0.65435800  1
  O  O51  1  0.42316400  0.08293400  0.34144600  1
  O  O52  1  0.57959100  0.07950500  0.65435800  1
  O  O53  1  0.09968300  0.51348700  0.18578100  1
  O  O54  1  0.90057500  0.51494500  0.81419600  1
  O  O55  1  0.59968300  0.01348700  0.18578100  1
  O  O56  1  0.40057500  0.01494500  0.81419600  1
  O  O57  1  0.88646400  0.48680500  0.45481400  1
  O  O58  1  0.11276500  0.48235900  0.54552300  1
  O  O59  1  0.38646400  0.98680500  0.45481400  1
  O  O60  1  0.61276500  0.98235900  0.54552300  1
  O  O61  1  0.72910200  0.39144000  0.93230500  1
  O  O62  1  0.27154200  0.39046500  0.06744300  1
  O  O63  1  0.22910200  0.89144000  0.93230500  1
  O  O64  1  0.77154200  0.89046500  0.06744300  1
  O  O65  1  0.90294700  0.27385100  0.92265000  1
  O  O66  1  0.09815600  0.27257600  0.07523500  1
  O  O67  1  0.40294700  0.77385100  0.92265000  1
  O  O68  1  0.59815600  0.77257600  0.07523500  1
