# Generated by REPEAT Assigner based on pymatgen
data_DB0-m29_o81_o53_f0_pts.sym.74
_audit_creation_date              2022-05-24
_audit_creation_method            REPEAT_Assigner
_cell_length_a                    16.059391
_cell_length_b                    9.402866
_cell_length_c                    23.252995
_cell_angle_alpha                 84.418993
_cell_angle_beta                  82.814811
_cell_angle_gamma                 111.910013
_cell_volume                      3192.348881
_symmetry_space_group_name_H-M    P1
_symmetry_Int_Tables_number       1
loop_
    _symmetry_equiv_pos_site_id
    _symmetry_equiv_pos_as_xyz
    1  x,y,z
loop_
    _atom_site_type_symbol
    _atom_site_label
    _atom_site_fract_x
    _atom_site_fract_y
    _atom_site_fract_z
    _atom_type_partial_charge
    C   C1   0.895390  0.978265  0.916418  -0.195328
    C   C2   0.268751  0.929618  0.973384  0.047891
    C   C3   0.188567  0.918707  0.954461  -0.217148
    C   C4   0.125946  0.961306  0.986849  0.140838
    C   C5   0.049934  0.959460  0.964595  -0.217455
    C   C6   0.988229  0.011035  0.994096  0.006759
    C   C7   0.815982  0.970028  0.897922  -0.145496
    C   C8   0.748440  0.989961  0.934351  0.072777
    C   C9   0.910399  0.011249  0.972180  0.145338
    C   C10  0.845364  0.045002  0.007011  0.064086
    C   C11  0.761650  0.024147  0.990027  -0.069187
    C   C12  0.282828  0.974918  0.027756  0.043733
    C   C13  0.219390  0.015296  0.060140  -0.220885
    C   C14  0.141238  0.010696  0.039627  0.142399
    C   C15  0.079639  0.058759  0.070543  -0.015513
    C   C16  0.003598  0.059267  0.047797  0.090760
    C   C17  0.942787  0.108496  0.078677  -0.136075
    C   C18  0.864968  0.101260  0.058596  -0.110868
    H   H1   0.944253  0.961104  0.884855  0.155597
    H   H2   0.176696  0.884710  0.912190  0.162937
    H   H3   0.041001  0.914407  0.924118  0.151864
    H   H4   0.805060  0.941157  0.854856  0.137646
    H   H5   0.235106  0.055996  0.100851  0.137045
    H   H6   0.952702  0.151384  0.119715  0.110181
    H   H7   0.822127  0.146777  0.083621  0.133763
    O   O1   0.615776  0.043682  0.018903  -0.524195
    C   C19  0.683494  0.011176  0.034000  0.556538
    O   O2   0.512542  0.699888  0.079866  -0.469866
    O   O3   0.676325  0.949921  0.088455  -0.502738
    O   O4   0.503203  0.830984  0.155532  -0.518768
    C   C20  0.505608  0.705484  0.136368  0.543268
    Fe  Fe1  0.518594  0.990123  0.088238  1.441711
    O   O5   0.399177  0.897004  0.060517  -0.586884
    O   O6   0.413170  0.146146  0.060699  -0.477818
    C   C21  0.369059  0.006999  0.048810  0.624937
    O   O7   0.552268  0.194193  0.117898  -0.606510
    O   O8   0.452831  0.044689  0.199703  -0.504226
    C   C22  0.506010  0.181645  0.170192  0.589444
    O   O9   0.473431  0.758817  0.847887  -0.562611
    O   O10  0.565024  0.902214  0.762590  -0.496636
    C   C23  0.514024  0.766984  0.794236  0.571967
    O   O11  0.632413  0.062719  0.898964  -0.624076
    O   O12  0.612092  0.808640  0.910419  -0.508221
    C   C24  0.660295  0.952706  0.915464  0.651779
    O   O13  0.335937  0.931029  0.874896  -0.545416
    O   O14  0.521541  0.120774  0.806985  -0.496723
    C   C25  0.506200  0.236492  0.826894  0.572066
    O   O15  0.417233  0.918888  0.946281  -0.499746
    C   C26  0.341440  0.918764  0.930870  0.564564
    O   O16  0.490682  0.234673  0.883775  -0.496841
    Fe  Fe2  0.510170  0.966548  0.874970  1.454715
    C   C27  0.569836  0.437513  0.359122  0.431252
    N   N1   0.504732  0.466859  0.334764  -0.133468
    C   C28  0.441265  0.500946  0.367564  0.403484
    C   C29  0.441754  0.505171  0.426863  -0.076122
    C   C30  0.507262  0.473858  0.452301  0.086188
    C   C31  0.571801  0.440010  0.418288  -0.097347
    C   C32  0.376711  0.538850  0.461026  -0.064851
    C   C33  0.377713  0.541406  0.520116  -0.063255
    C   C34  0.443719  0.510206  0.545476  -0.093444
    C   C35  0.508213  0.476232  0.511464  0.086749
    C   C36  0.573605  0.444568  0.536919  -0.083616
    C   C37  0.638733  0.411133  0.502744  -0.065016
    C   C38  0.637871  0.408978  0.443630  -0.057870
    C   C39  0.445599  0.512398  0.604670  0.438747
    N   N2   0.510319  0.481943  0.629081  -0.156621
    C   C40  0.573781  0.447888  0.596279  0.424476
    O   O17  0.634294  0.408927  0.325349  -0.472475
    O   O18  0.375766  0.526227  0.342820  -0.460781
    H   H8   0.324445  0.563633  0.442240  0.130270
    H   H9   0.326229  0.568294  0.545859  0.132682
    O   O19  0.381382  0.541569  0.638440  -0.476254
    O   O20  0.638895  0.421531  0.621127  -0.461571
    H   H10  0.690939  0.386180  0.521542  0.132471
    H   H11  0.689395  0.382188  0.417884  0.126837
    C   C41  0.510707  0.363375  0.727218  -0.231660
    H   H12  0.509557  0.260187  0.709923  0.190647
    C   C42  0.507083  0.367854  0.786751  0.081820
    C   C43  0.503643  0.497484  0.808791  -0.261250
    C   C44  0.508725  0.624882  0.771384  0.167419
    C   C45  0.513774  0.620746  0.712044  -0.270409
    H   H13  0.518199  0.720839  0.682731  0.179870
    C   C46  0.512062  0.488721  0.689993  0.266022
    C   C47  0.502605  0.582002  0.236378  -0.262377
    H   H14  0.503168  0.685276  0.253349  0.197277
    C   C48  0.505271  0.575458  0.176969  0.137961
    C   C49  0.509961  0.446242  0.155418  -0.279075
    C   C50  0.507185  0.321314  0.193107  0.189659
    C   C51  0.501842  0.326289  0.252356  -0.300549
    H   H15  0.498819  0.227410  0.281761  0.176937
    C   C52  0.502406  0.458223  0.273992  0.269090
    H   H16  0.501421  0.502969  0.855120  0.214227
    H   H17  0.512585  0.439641  0.109144  0.216075
    C   C53  0.095824  0.111505  0.126905  0.111770
    C   C54  0.076020  0.007597  0.178347  0.212661
    C   C55  0.034949  0.835581  0.180299  -0.334482
    C   C56  0.094159  0.063696  0.230081  -0.252612
    C   C57  0.131401  0.221173  0.230979  -0.103547
    C   C58  0.150899  0.323937  0.180009  -0.135541
    C   C59  0.133247  0.269123  0.128146  -0.141893
    H   H18  0.019868  0.801066  0.137407  0.070384
    H   H19  0.970320  0.786493  0.212434  0.100466
    H   H20  0.082615  0.785306  0.194978  0.101096
    H   H21  0.078930  0.983622  0.270273  0.148338
    H   H22  0.145297  0.264008  0.271700  0.128959
    H   H23  0.180194  0.447491  0.180657  0.132059
    H   H24  0.148967  0.350041  0.088131  0.084821
