# Generated by REPEAT Assigner based on pymatgen
data_DB0-m2_o2_o29_f0_pcu.sym.49
_audit_creation_date              2022-05-24
_audit_creation_method            REPEAT_Assigner
_cell_length_a                    15.107777
_cell_length_b                    13.675289
_cell_length_c                    27.531324
_cell_angle_alpha                 90.000000
_cell_angle_beta                  89.990198
_cell_angle_gamma                 90.000000
_cell_volume                      5688.060080
_symmetry_space_group_name_H-M    P1
_symmetry_Int_Tables_number       1
loop_
    _symmetry_equiv_pos_site_id
    _symmetry_equiv_pos_as_xyz
    1  x,y,z
loop_
    _atom_site_type_symbol
    _atom_site_label
    _atom_site_fract_x
    _atom_site_fract_y
    _atom_site_fract_z
    _atom_type_partial_charge
    O   O1   0.372199  0.582186  0.498140  -0.591420
    O   O2   0.629071  0.412756  0.497712  -0.576065
    O   O3   0.629454  0.580690  0.498753  -0.605773
    O   O4   0.371837  0.414182  0.499346  -0.591714
    C   C1   0.330509  0.498314  0.500057  0.670424
    C   C2   0.670787  0.496593  0.499473  0.674703
    O   O5   0.498258  0.581483  0.429415  -0.615664
    O   O6   0.504905  0.413366  0.570580  -0.631732
    O   O7   0.497239  0.581139  0.570573  -0.614339
    O   O8   0.502237  0.413262  0.429413  -0.626880
    C   C3   0.500066  0.497371  0.406616  0.750957
    C   C4   0.501229  0.497285  0.593397  0.691200
    Cu  Cu1  0.500889  0.595191  0.500012  0.898133
    Cu  Cu2  0.500416  0.399554  0.500017  0.939962
    C   C5   0.419249  0.509305  0.177477  0.364544
    C   C6   0.580823  0.511060  0.822470  0.358898
    O   O9   0.345774  0.517440  0.204524  -0.456588
    O   O10  0.654138  0.520461  0.795398  -0.459987
    N   N1   0.496527  0.497595  0.201040  -0.145719
    N   N2   0.503661  0.498735  0.798908  -0.134416
    C   C7   0.572803  0.486454  0.176819  0.445162
    C   C8   0.427408  0.487135  0.823065  0.439931
    C   C9   0.483785  0.583219  0.278033  -0.179188
    C   C10  0.510452  0.584860  0.721887  -0.181207
    C   C11  0.485260  0.583446  0.328102  -0.073605
    C   C12  0.509340  0.584695  0.671819  -0.100238
    C   C13  0.512579  0.411352  0.327916  -0.059442
    C   C14  0.494598  0.410719  0.672175  -0.079213
    C   C15  0.512157  0.411621  0.277828  -0.177815
    C   C16  0.494629  0.411300  0.722267  -0.182525
    C   C17  0.497386  0.497421  0.252788  0.256998
    C   C18  0.502934  0.498269  0.747190  0.267086
    C   C19  0.495662  0.499428  0.101153  0.021098
    C   C20  0.504411  0.500279  0.898761  0.016761
    C   C21  0.416507  0.510415  0.126462  -0.050467
    C   C22  0.583550  0.511832  0.873483  -0.048540
    C   C23  0.338476  0.523789  0.099673  0.009079
    C   C24  0.661520  0.525359  0.900303  0.013288
    C   C25  0.573496  0.487810  0.126807  -0.092241
    C   C26  0.426628  0.488427  0.873076  -0.090333
    C   C27  0.499360  0.497383  0.353348  -0.104471
    C   C28  0.501718  0.497524  0.646662  -0.048835
    H   H1   0.524047  0.343193  0.346744  0.109422
    H   H2   0.488260  0.341682  0.653408  0.116286
    H   H3   0.522721  0.344164  0.258195  0.132101
    H   H4   0.488807  0.343277  0.742010  0.132714
    C   C29  0.421920  0.495495  0.973843  0.039250
    C   C30  0.578143  0.495651  0.026056  0.028300
    C   C31  0.579976  0.505170  0.975424  0.048132
    C   C32  0.420049  0.504541  0.024499  0.035478
    C   C33  0.502132  0.500417  0.949368  0.054820
    C   C34  0.497917  0.499956  0.050543  0.059553
    C   C35  0.345232  0.480235  0.947034  -0.154682
    C   C36  0.654892  0.480515  0.052826  -0.147747
    C   C37  0.347869  0.476603  0.897372  -0.062287
    C   C38  0.652286  0.476487  0.102478  -0.064864
    O   O11  0.351741  0.475692  0.798052  -0.523827
    O   O12  0.648655  0.475776  0.201748  -0.520121
    C   C39  0.341706  0.519947  0.049610  -0.210175
    C   C40  0.658266  0.521167  0.950357  -0.220476
    H   H5   0.515279  0.653492  0.652795  0.122420
    H   H6   0.474482  0.651596  0.347061  0.109085
    H   H7   0.516727  0.653184  0.741330  0.127666
    H   H8   0.472544  0.650715  0.258550  0.127981
    H   H9   0.286605  0.464430  0.878076  0.126615
    H   H10  0.713612  0.464452  0.121735  0.125585
    H   H11  0.281666  0.466293  0.963245  0.119220
    H   H12  0.718511  0.467016  0.036587  0.117804
    H   H13  0.280852  0.533644  0.030668  0.144368
    H   H14  0.719052  0.534996  0.969335  0.147059
    C   C41  0.095986  0.581059  0.486690  -0.144185
    C   C42  0.905355  0.413585  0.486706  -0.158701
    C   C43  0.904962  0.580547  0.511673  -0.149652
    C   C44  0.096248  0.414386  0.512122  -0.162395
    H   H15  0.061964  0.646493  0.475131  0.111423
    H   H16  0.939442  0.347980  0.475446  0.112467
    H   H17  0.938688  0.646319  0.523014  0.109586
    H   H18  0.062442  0.348708  0.523538  0.110214
    C   C45  0.187255  0.581668  0.487402  -0.088153
    C   C46  0.814077  0.413044  0.487201  -0.062691
    C   C47  0.813723  0.580481  0.511224  -0.074542
    C   C48  0.187504  0.414501  0.511883  -0.059115
    H   H19  0.221758  0.647751  0.477171  0.104491
    H   H20  0.779610  0.346836  0.477135  0.098966
    H   H21  0.778947  0.646395  0.521452  0.099263
    H   H22  0.222237  0.348691  0.522315  0.098120
    C   C49  0.233516  0.498247  0.499772  -0.062792
    C   C50  0.767771  0.496647  0.499216  -0.068314
    C   C51  0.049472  0.497542  0.499296  0.092800
    C   C52  0.951804  0.497229  0.499180  0.089983
    C   C53  0.566370  0.103150  0.522720  -0.226948
    C   C54  0.458257  0.891657  0.464370  -0.198661
    C   C55  0.428785  0.103617  0.481246  -0.216076
    C   C56  0.536160  0.890970  0.539154  -0.213747
    H   H23  0.622450  0.066293  0.538705  0.129521
    H   H24  0.427998  0.928549  0.433938  0.121229
    H   H25  0.371721  0.067214  0.466073  0.126859
    H   H26  0.564689  0.927323  0.570248  0.124618
    C   C57  0.565903  0.203995  0.522056  0.096647
    C   C58  0.459574  0.790842  0.464504  0.003359
    C   C59  0.431388  0.204378  0.480327  0.067919
    C   C60  0.537752  0.790185  0.537630  0.035514
    H   H27  0.619961  0.243256  0.538750  0.088065
    H   H28  0.427998  0.751740  0.435162  0.146334
    H   H29  0.377734  0.243780  0.463359  0.101276
    H   H30  0.569370  0.750551  0.566784  0.125547
    N   N3   0.500044  0.253220  0.499956  -0.113813
    N   N4   0.501457  0.741521  0.500054  -0.068699
    C   C61  0.497321  0.051348  0.502069  0.133357
    C   C62  0.497142  0.943351  0.501913  0.153114
    C   C63  0.248859  0.543304  0.121427  0.005300
    C   C64  0.209951  0.450979  0.140952  0.010479
    C   C65  0.130202  0.451871  0.161351  -0.468757
    H   H31  0.202883  0.571342  0.093361  0.019538
    H   H32  0.252033  0.601429  0.149394  0.084734
    H   H33  0.246571  0.383005  0.138362  0.087264
    H   H34  0.093305  0.519652  0.163976  0.185290
    H   H35  0.102013  0.384710  0.175421  0.160269
    C   C66  0.751140  0.545091  0.878598  0.002698
    C   C67  0.789958  0.452999  0.858754  0.013787
    C   C68  0.869698  0.454084  0.838345  -0.468609
    H   H36  0.797176  0.572667  0.906747  0.019812
    H   H37  0.747994  0.603602  0.850830  0.085597
    H   H38  0.753287  0.385027  0.861127  0.086401
    H   H39  0.906668  0.521853  0.835956  0.184988
    H   H40  0.897806  0.387088  0.824033  0.159535
