# generated using pymatgen
data_CuH8C15NClO4
_symmetry_space_group_name_H-M   'P 1'
_cell_length_a   15.89993400
_cell_length_b   10.67151200
_cell_length_c   9.34776300
_cell_angle_alpha   90.00308600
_cell_angle_beta   90.01972200
_cell_angle_gamma   89.99420600
_symmetry_Int_Tables_number   1
_chemical_formula_structural   CuH8C15NClO4
_chemical_formula_sum   'Cu2 H16 C30 N2 Cl2 O8'
_cell_volume   1586.09407576
_cell_formula_units_Z   2
loop_
 _symmetry_equiv_pos_site_id
 _symmetry_equiv_pos_as_xyz
  1  'x, y, z'
loop_
 _atom_site_type_symbol
 _atom_site_label
 _atom_site_symmetry_multiplicity
 _atom_site_fract_x
 _atom_site_fract_y
 _atom_site_fract_z
 _atom_site_occupancy
  Cu  Cu1  1  0.49972900  0.49961700  0.64317100  1
  Cu  Cu2  1  0.50027200  0.50038300  0.35682900  1
  H  H1  1  0.05191300  0.31473200  0.37738800  1
  H  H2  1  0.94808800  0.68526700  0.62261200  1
  H  H3  1  0.94796600  0.31484500  0.62262700  1
  H  H4  1  0.05203500  0.68515500  0.37737300  1
  H  H5  1  0.94666900  0.50002800  0.25640100  1
  H  H6  1  0.05333200  0.49997100  0.74359900  1
  H  H7  1  0.62681200  0.92210700  0.61456000  1
  H  H8  1  0.37318800  0.07789300  0.38544000  1
  H  H9  1  0.50524000  0.07740500  0.74421100  1
  H  H10  1  0.49476100  0.92259500  0.25578900  1
  H  H11  1  0.37835000  0.92234900  0.62977800  1
  H  H12  1  0.62165000  0.07765100  0.37022200  1
  H  H13  1  0.36580700  0.55576200  0.90624300  1
  H  H14  1  0.63419400  0.44423800  0.09375700  1
  H  H15  1  0.46791100  0.70179300  0.09401200  1
  H  H16  1  0.53208900  0.29820700  0.90598800  1
  C  C1  1  0.50007200  0.25954300  0.49966900  1
  C  C2  1  0.49992900  0.74045700  0.50033100  1
  C  C3  1  0.33861300  0.49981600  0.49844400  1
  C  C4  1  0.66138700  0.50018300  0.50155600  1
  C  C5  1  0.97281300  0.39881700  0.56698500  1
  C  C6  1  0.02718800  0.60118300  0.43301500  1
  C  C7  1  0.02712100  0.39875700  0.43302300  1
  C  C8  1  0.97287900  0.60124200  0.56697700  1
  C  C9  1  0.24836200  0.49982300  0.49816400  1
  C  C10  1  0.75163900  0.50017700  0.50183700  1
  C  C11  1  0.02788900  0.49998600  0.63312000  1
  C  C12  1  0.97211100  0.50001400  0.36688000  1
  C  C13  1  0.08056400  0.49992800  0.49917000  1
  C  C14  1  0.91943700  0.50007200  0.50083000  1
  C  C15  1  0.17257500  0.49985800  0.49842200  1
  C  C16  1  0.82742500  0.50014100  0.50157800  1
  C  C17  1  0.50286100  0.04098300  0.63317100  1
  C  C18  1  0.49713900  0.95901700  0.36682900  1
  C  C19  1  0.56925800  0.95916000  0.56254000  1
  C  C20  1  0.43074300  0.04084000  0.43746000  1
  C  C21  1  0.49996000  0.87976500  0.50026800  1
  C  C22  1  0.50004100  0.12023500  0.49973200  1
  C  C23  1  0.43356200  0.95929100  0.57085400  1
  C  C24  1  0.56643800  0.04070900  0.42914600  1
  C  C25  1  0.48226100  0.60775600  0.04993900  1
  C  C26  1  0.51774000  0.39224400  0.95006100  1
  C  C27  1  0.42832400  0.53068000  0.95034100  1
  C  C28  1  0.57167600  0.46931900  0.04965900  1
  C  C29  1  0.55225000  0.57498800  0.94963000  1
  C  C30  1  0.44775100  0.42501100  0.05037000  1
  N  N1  1  0.49914100  0.49910100  0.85718100  1
  N  N2  1  0.50086000  0.50089900  0.14281900  1
  Cl  Cl1  1  0.62674400  0.68196300  0.87748600  1
  Cl  Cl2  1  0.37325700  0.31803700  0.12251400  1
  O  O1  1  0.50280500  0.31757000  0.62286600  1
  O  O2  1  0.49719600  0.68243000  0.37713400  1
  O  O3  1  0.49736200  0.31822800  0.37669900  1
  O  O4  1  0.50263900  0.68177100  0.62330100  1
  O  O5  1  0.37758700  0.49514000  0.62170100  1
  O  O6  1  0.62241400  0.50485900  0.37829900  1
  O  O7  1  0.37797800  0.50464200  0.37558900  1
  O  O8  1  0.62202200  0.49535700  0.62441100  1
