# generated using pymatgen
data_CoH4(C3O2)2
_symmetry_space_group_name_H-M   'P 1'
_cell_length_a   22.49331000
_cell_length_b   22.53628100
_cell_length_c   15.83469900
_cell_angle_alpha   114.49946600
_cell_angle_beta   121.92819800
_cell_angle_gamma   99.34266200
_symmetry_Int_Tables_number   1
_chemical_formula_structural   CoH4(C3O2)2
_chemical_formula_sum   'Co6 H24 C36 O24'
_cell_volume   5389.29950690
_cell_formula_units_Z   6
loop_
 _symmetry_equiv_pos_site_id
 _symmetry_equiv_pos_as_xyz
  1  'x, y, z'
loop_
 _atom_site_type_symbol
 _atom_site_label
 _atom_site_symmetry_multiplicity
 _atom_site_fract_x
 _atom_site_fract_y
 _atom_site_fract_z
 _atom_site_occupancy
  Co  Co1  1  0.93709600  0.47179300  0.37796300  1
  Co  Co2  1  0.04854200  0.53064000  0.61671900  1
  Co  Co3  1  0.06194400  0.01447800  0.47050500  1
  Co  Co4  1  0.96805200  0.99043300  0.51932700  1
  Co  Co5  1  0.48490000  0.54778400  0.48566900  1
  Co  Co6  1  0.50053600  0.44483000  0.52366700  1
  H  H1  1  0.99665400  0.17818300  0.39112300  1
  H  H2  1  0.01125600  0.31991000  0.57752300  1
  H  H3  1  0.97850500  0.21269800  0.58162700  1
  H  H4  1  0.94006200  0.25000500  0.31120500  1
  H  H5  1  0.02289700  0.83224100  0.59952100  1
  H  H6  1  0.00912200  0.68500600  0.42667300  1
  H  H7  1  0.05093500  0.79011900  0.41818800  1
  H  H8  1  0.05099100  0.75495200  0.67591400  1
  H  H9  1  0.70106100  0.45111400  0.52998300  1
  H  H10  1  0.74240000  0.48241500  0.38567300  1
  H  H11  1  0.64916200  0.52233900  0.39462300  1
  H  H12  1  0.83390700  0.47306100  0.60242400  1
  H  H13  1  0.28834600  0.54419000  0.47553900  1
  H  H14  1  0.23693300  0.51226400  0.60884200  1
  H  H15  1  0.32926200  0.46769600  0.60376000  1
  H  H16  1  0.15509700  0.52618100  0.39584000  1
  H  H17  1  0.33151400  0.24700100  0.12203600  1
  H  H18  1  0.15832600  0.20745600  0.90723500  1
  H  H19  1  0.25375700  0.34312900  0.08212800  1
  H  H20  1  0.27060800  0.14876900  0.90376900  1
  H  H21  1  0.77261200  0.77381300  0.12574300  1
  H  H22  1  0.69106700  0.75333500  0.87348500  1
  H  H23  1  0.81864600  0.87063400  0.05901500  1
  H  H24  1  0.69370700  0.64443700  0.94140300  1
  C  C1  1  0.01783800  0.63699600  0.55657100  1
  C  C2  1  0.97111500  0.36584700  0.43692000  1
  C  C3  1  0.10464900  0.51799300  0.48040100  1
  C  C4  1  0.88097100  0.48351100  0.51480100  1
  C  C5  1  0.88779900  0.91019700  0.25267400  1
  C  C6  1  0.14308900  0.09514700  0.73659700  1
  C  C7  1  0.99523800  0.11734900  0.50401500  1
  C  C8  1  0.03461200  0.88793300  0.48804500  1
  C  C9  1  0.59394600  0.49775900  0.46530800  1
  C  C10  1  0.39081500  0.49456500  0.54214100  1
  C  C11  1  0.36882800  0.38845300  0.26419800  1
  C  C12  1  0.61316000  0.60390500  0.74660500  1
  C  C13  1  0.96491900  0.29270100  0.40374700  1
  C  C14  1  0.99128700  0.27922500  0.48768800  1
  C  C15  1  0.98899600  0.18417800  0.52071000  1
  C  C16  1  0.99297600  0.20924900  0.46029100  1
  C  C17  1  0.03185600  0.71161700  0.58816800  1
  C  C18  1  0.02263800  0.72658200  0.51023500  1
  C  C19  1  0.04030400  0.82173300  0.47710000  1
  C  C20  1  0.02927500  0.79875000  0.53540400  1
  C  C21  1  0.82055000  0.47436200  0.52684700  1
  C  C22  1  0.75347700  0.47476200  0.45488900  1
  C  C23  1  0.64790200  0.49770400  0.44007800  1
  C  C24  1  0.69794100  0.47136700  0.47726300  1
  C  C25  1  0.16548000  0.52434600  0.46959900  1
  C  C26  1  0.22959800  0.52075500  0.54208400  1
  C  C27  1  0.33454700  0.49395600  0.56237300  1
  C  C28  1  0.28731300  0.52256000  0.52469800  1
  C  C29  1  0.21403500  0.14837500  0.86932800  1
  C  C30  1  0.21232600  0.20255500  0.94462900  1
  C  C31  1  0.29721000  0.32942900  0.13330700  1
  C  C32  1  0.28562800  0.26016300  0.07525100  1
  C  C33  1  0.67446700  0.66184900  0.88134700  1
  C  C34  1  0.70660200  0.73471700  0.93167100  1
  C  C35  1  0.81958600  0.85791400  0.11850900  1
  C  C36  1  0.76677200  0.79012400  0.06738900  1
  O  O1  1  0.96468900  0.57847500  0.43966300  1
  O  O2  1  0.92865200  0.37359900  0.34926600  1
  O  O3  1  0.02969000  0.48958200  0.38250200  1
  O  O4  1  0.86055800  0.46400100  0.40884300  1
  O  O5  1  0.02336700  0.42417100  0.55408100  1
  O  O6  1  0.05763600  0.62895900  0.64476900  1
  O  O7  1  0.12500500  0.53887400  0.58664700  1
  O  O8  1  0.95596900  0.51146500  0.61190400  1
  O  O9  1  0.95861900  0.94781000  0.29231600  1
  O  O10  1  0.15239800  0.07813700  0.65609000  1
  O  O11  1  0.04336100  0.10200400  0.48649100  1
  O  O12  1  0.06474100  0.92221600  0.45885700  1
  O  O13  1  0.07089300  0.06625600  0.69879100  1
  O  O14  1  0.87903700  0.91809500  0.33188000  1
  O  O15  1  0.95696100  0.07651100  0.51690900  1
  O  O16  1  0.99466700  0.90960100  0.51980500  1
  O  O17  1  0.56015200  0.53945200  0.45433700  1
  O  O18  1  0.41050200  0.54014300  0.51915600  1
  O  O19  1  0.39074800  0.45895900  0.30760200  1
  O  O20  1  0.57930000  0.62193800  0.67072100  1
  O  O21  1  0.42105100  0.44972100  0.54699400  1
  O  O22  1  0.57858800  0.45564100  0.49640000  1
  O  O23  1  0.40795000  0.37075400  0.33839400  1
  O  O24  1  0.58921700  0.53332500  0.70354800  1
