# Generated by REPEAT Assigner based on pymatgen
data_DB0-m2_o1_o25_f0_pcu.sym.110
_audit_creation_date              2022-05-24
_audit_creation_method            REPEAT_Assigner
_cell_length_a                    15.894313
_cell_length_b                    10.852905
_cell_length_c                    9.433475
_cell_angle_alpha                 90.019895
_cell_angle_beta                  90.007033
_cell_angle_gamma                 90.006113
_cell_volume                      1627.269328
_symmetry_space_group_name_H-M    P1
_symmetry_Int_Tables_number       1
loop_
    _symmetry_equiv_pos_site_id
    _symmetry_equiv_pos_as_xyz
    1  x,y,z
loop_
    _atom_site_type_symbol
    _atom_site_label
    _atom_site_fract_x
    _atom_site_fract_y
    _atom_site_fract_z
    _atom_type_partial_charge
    O   O1   0.497246  0.323687  0.624462  -0.637146
    O   O2   0.501128  0.680099  0.375676  -0.603807
    O   O3   0.498376  0.322008  0.380430  -0.662764
    O   O4   0.496638  0.681708  0.619160  -0.530512
    C   C1   0.498140  0.264996  0.502729  0.754296
    C   C2   0.498975  0.738791  0.497254  0.636839
    O   O5   0.377789  0.498416  0.626895  -0.640571
    O   O6   0.619106  0.503027  0.372925  -0.645515
    O   O7   0.374735  0.507618  0.383563  -0.525825
    O   O8   0.622228  0.498482  0.616790  -0.697061
    C   C3   0.337049  0.503280  0.506534  0.762463
    C   C4   0.659844  0.500326  0.493530  0.988015
    Cu  Cu1  0.500327  0.503042  0.641839  0.949774
    Cu  Cu2  0.496525  0.500816  0.358126  0.776035
    C   C5   0.970282  0.401659  0.564608  -0.153222
    C   C6   0.026626  0.601027  0.435106  -0.141685
    C   C7   0.027305  0.402060  0.435102  -0.115457
    C   C8   0.969617  0.600632  0.564606  -0.122788
    H   H1   0.053544  0.319629  0.381484  0.060179
    H   H2   0.943353  0.683095  0.618121  0.056689
    H   H3   0.944574  0.318837  0.618116  0.062390
    H   H4   0.052287  0.683831  0.381517  0.063476
    H   H5   0.950126  0.500924  0.255430  0.081515
    H   H6   0.046810  0.501792  0.744277  0.076641
    C   C9   0.246799  0.503107  0.508599  -0.106775
    C   C10  0.750105  0.500158  0.491368  -0.296909
    C   C11  0.023623  0.501567  0.633393  -0.190648
    C   C12  0.973289  0.501127  0.366326  -0.177542
    C   C13  0.079003  0.501962  0.503846  0.690425
    C   C14  0.917911  0.500743  0.495873  0.588862
    C   C15  0.171002  0.502680  0.507522  -0.392818
    C   C16  0.825907  0.500286  0.492323  -0.267235
    C   C17  0.511751  0.066354  0.376653  0.004246
    C   C18  0.488002  0.937291  0.624358  -0.108086
    H   H7   0.522964  0.114986  0.278709  0.065651
    H   H8   0.478389  0.888584  0.722903  0.115144
    C   C19  0.511253  0.939322  0.374521  -0.159180
    C   C20  0.487844  0.064386  0.626243  -0.065556
    H   H9   0.521178  0.892177  0.275001  0.121409
    H   H10  0.478048  0.111559  0.725775  0.104827
    C   C21  0.499233  0.873973  0.498354  0.025142
    C   C22  0.499210  0.129745  0.502173  -0.129302
    C   C23  0.438647  0.433644  0.065958  -0.185807
    C   C24  0.562062  0.562281  0.934364  0.002787
    C   C25  0.443922  0.437114  0.920011  0.060127
    C   C26  0.555919  0.560105  0.080282  -0.004205
    H   H11  0.398803  0.385202  0.858716  0.141355
    H   H12  0.601464  0.610849  0.141895  0.169449
    N   N1   0.502907  0.505290  0.854162  -0.080575
    N   N2   0.493482  0.498949  0.145858  0.031786
    C   C27  0.370909  0.360417  0.128667  0.807997
    O   O9   0.303773  0.409104  0.156374  -0.486859
    N   N3   0.377192  0.229402  0.130164  -0.805554
    H   H13  0.370466  0.200373  0.235028  0.348420
    H   H14  0.437468  0.206188  0.095402  0.325832
    C   C28  0.633441  0.629476  0.872636  0.572025
    O   O10  0.621576  0.713788  0.789989  -0.406441
    N   N4   0.717076  0.603967  0.919568  -0.724775
    H   H15  0.753109  0.584446  0.829802  0.359902
    H   H16  0.715602  0.524339  0.981552  0.260917
