# generated using pymatgen
data_Zn2H10C31N3Cl7O8
_symmetry_space_group_name_H-M   'P 1'
_cell_length_a   8.53420900
_cell_length_b   10.73764600
_cell_length_c   13.44900300
_cell_angle_alpha   97.64444300
_cell_angle_beta   90.09561600
_cell_angle_gamma   90.00838000
_symmetry_Int_Tables_number   1
_chemical_formula_structural   Zn2H10C31N3Cl7O8
_chemical_formula_sum   'Zn2 H10 C31 N3 Cl7 O8'
_cell_volume   1221.47570427
_cell_formula_units_Z   1
loop_
 _symmetry_equiv_pos_site_id
 _symmetry_equiv_pos_as_xyz
  1  'x, y, z'
loop_
 _atom_site_type_symbol
 _atom_site_label
 _atom_site_symmetry_multiplicity
 _atom_site_fract_x
 _atom_site_fract_y
 _atom_site_fract_z
 _atom_site_occupancy
  Zn  Zn1  1  0.49986000  0.49319900  0.11036800  1
  Zn  Zn2  1  0.50191400  0.49879300  0.88864000  1
  H  H1  1  0.99797300  0.58937300  0.05565000  1
  H  H2  1  0.99759700  0.40482400  0.94480200  1
  H  H3  1  0.25022400  0.89740800  0.97909200  1
  H  H4  1  0.25578600  0.09041000  0.00479900  1
  H  H5  1  0.62971800  0.78163900  0.60579400  1
  H  H6  1  0.65937100  0.25600400  0.44465600  1
  H  H7  1  0.42063000  0.79444200  0.61354500  1
  H  H8  1  0.49131400  0.18244800  0.37970900  1
  H  H9  1  0.47577900  0.18893800  0.56491800  1
  H  H10  1  0.47552100  0.30423200  0.72904300  1
  C  C1  1  0.99922000  0.68670000  0.04357900  1
  C  C2  1  0.13901500  0.74277100  0.02643700  1
  C  C3  1  0.14018000  0.86286300  0.00215700  1
  C  C4  1  0.85988500  0.74721100  0.03161400  1
  C  C5  1  0.86058300  0.87348000  0.01705000  1
  C  C6  1  0.00277700  0.93276400  0.00489300  1
  C  C7  1  0.00397600  0.05945400  0.99157700  1
  C  C8  1  0.14277000  0.12710100  0.98857600  1
  C  C9  1  0.13968400  0.24937800  0.96899500  1
  C  C10  1  0.72278800  0.94212900  0.01570700  1
  C  C11  1  0.86281000  0.12239300  0.98724100  1
  C  C12  1  0.86105200  0.24700800  0.97079800  1
  C  C13  1  0.99930600  0.30721200  0.95610700  1
  C  C14  1  0.28091200  0.66623100  0.01824400  1
  C  C15  1  0.28118100  0.32584600  0.97841500  1
  C  C16  1  0.71859300  0.32340400  0.98000200  1
  C  C17  1  0.72014900  0.66741800  0.02092600  1
  C  C18  1  0.48847500  0.39095200  0.69730000  1
  C  C19  1  0.51089000  0.60989000  0.71960200  1
  C  C20  1  0.51063200  0.61118900  0.61706400  1
  C  C21  1  0.50082600  0.49972500  0.55414600  1
  C  C22  1  0.48399400  0.38945100  0.59452200  1
  C  C23  1  0.51821500  0.73538000  0.57946600  1
  C  C24  1  0.50776000  0.73387300  0.46623300  1
  C  C25  1  0.50218000  0.60741500  0.40486000  1
  C  C26  1  0.50260100  0.49743200  0.44612700  1
  C  C27  1  0.50745100  0.38432400  0.38411100  1
  C  C28  1  0.53252900  0.26621900  0.42975900  1
  C  C29  1  0.44458800  0.27183300  0.52783100  1
  C  C30  1  0.49894100  0.60331000  0.30209000  1
  C  C31  1  0.50385300  0.38328300  0.28064100  1
  N  N1  1  0.72704500  0.06349200  0.00056700  1
  N  N2  1  0.50324700  0.50047500  0.75836100  1
  N  N3  1  0.49880500  0.49244200  0.24092200  1
  Cl  Cl1  1  0.54094700  0.87781200  0.04072900  1
  Cl  Cl2  1  0.23990000  0.26922900  0.50275200  1
  Cl  Cl3  1  0.33708900  0.81836500  0.43928800  1
  Cl  Cl4  1  0.49575600  0.74726200  0.25401200  1
  Cl  Cl5  1  0.51593500  0.75321400  0.79890800  1
  Cl  Cl6  1  0.67462900  0.81521800  0.42869300  1
  Cl  Cl7  1  0.50708700  0.24023400  0.20059500  1
  O  O1  1  0.33354800  0.62732700  0.92797000  1
  O  O2  1  0.33488400  0.62501200  0.09927100  1
  O  O3  1  0.33153300  0.36492600  0.06954900  1
  O  O4  1  0.33665800  0.36665700  0.89759800  1
  O  O5  1  0.66877500  0.36497700  0.07083100  1
  O  O6  1  0.66482700  0.36523800  0.89909800  1
  O  O7  1  0.67145300  0.62606600  0.92988000  1
  O  O8  1  0.66408400  0.62606900  0.10105100  1
