# generated using pymatgen
data_CuH11C22NO4
_symmetry_space_group_name_H-M   'P 1'
_cell_length_a   8.53974200
_cell_length_b   10.86489000
_cell_length_c   17.53053900
_cell_angle_alpha   90.00000000
_cell_angle_beta   90.00000000
_cell_angle_gamma   90.00000000
_symmetry_Int_Tables_number   1
_chemical_formula_structural   CuH11C22NO4
_chemical_formula_sum   'Cu2 H22 C44 N2 O8'
_cell_volume   1626.54226648
_cell_formula_units_Z   2
loop_
 _symmetry_equiv_pos_site_id
 _symmetry_equiv_pos_as_xyz
  1  'x, y, z'
loop_
 _atom_site_type_symbol
 _atom_site_label
 _atom_site_symmetry_multiplicity
 _atom_site_fract_x
 _atom_site_fract_y
 _atom_site_fract_z
 _atom_site_occupancy
  Cu  Cu1  1  0.00037700  0.99011100  0.07600000  1
  Cu  Cu2  1  0.00037700  0.00988900  0.92400000  1
  H  H1  1  0.14426500  0.60279600  0.05233800  1
  H  H2  1  0.78627800  0.45596400  0.91708100  1
  H  H3  1  0.88784200  0.38598700  0.99631900  1
  H  H4  1  0.13341700  0.60022500  0.94963500  1
  H  H5  1  0.14426500  0.39720400  0.94766200  1
  H  H6  1  0.78627800  0.54403600  0.08291900  1
  H  H7  1  0.88784200  0.61401300  0.00368100  1
  H  H8  1  0.13341700  0.39977500  0.05036500  1
  H  H9  1  0.00150800  0.68691000  0.44775800  1
  H  H10  1  0.00150800  0.31309000  0.55224200  1
  H  H11  1  0.99939600  0.30768000  0.43717300  1
  H  H12  1  0.99939600  0.69232000  0.56282700  1
  H  H13  1  0.50275800  0.91484600  0.96821500  1
  H  H14  1  0.50275800  0.08515400  0.03178500  1
  H  H15  1  0.00057800  0.20684600  0.80603300  1
  H  H16  1  0.00057800  0.79315400  0.19396700  1
  H  H17  1  0.99935900  0.82076100  0.81122400  1
  H  H18  1  0.99935900  0.17923900  0.18877600  1
  H  H19  1  0.99884500  0.70497000  0.69678100  1
  H  H20  1  0.99884500  0.29503000  0.30321900  1
  H  H21  1  0.00083200  0.31286400  0.68653900  1
  H  H22  1  0.00083200  0.68713600  0.31346100  1
  C  C1  1  0.78273400  0.83214900  0.99306800  1
  C  C2  1  0.21911700  0.16677400  0.00799900  1
  C  C3  1  0.78273400  0.16785100  0.00693200  1
  C  C4  1  0.21911700  0.83322600  0.99200100  1
  C  C5  1  0.49743900  0.56699200  0.99797000  1
  C  C6  1  0.49743900  0.43300800  0.00203000  1
  C  C7  1  0.99957400  0.90541000  0.77887200  1
  C  C8  1  0.99957400  0.09459000  0.22112800  1
  C  C9  1  0.00023100  0.12000300  0.77595100  1
  C  C10  1  0.00023100  0.87999700  0.22404900  1
  C  C11  1  0.99995400  0.00747900  0.65845000  1
  C  C12  1  0.99995400  0.99252100  0.34155000  1
  C  C13  1  0.99959600  0.90085800  0.70035100  1
  C  C14  1  0.99959600  0.09914200  0.29964900  1
  C  C15  1  0.00020200  0.11771600  0.69704600  1
  C  C16  1  0.00020200  0.88228400  0.30295400  1
  C  C17  1  0.99930900  0.78933200  0.66408500  1
  C  C18  1  0.99930900  0.21066800  0.33591500  1
  C  C19  1  0.00060100  0.22566300  0.65685300  1
  C  C20  1  0.00060100  0.77433700  0.34314700  1
  C  C21  1  0.50166800  0.81734700  0.97839400  1
  C  C22  1  0.50166800  0.18265300  0.02160600  1
  C  C23  1  0.00034400  0.88681300  0.46192400  1
  C  C24  1  0.00034400  0.11318700  0.53807600  1
  C  C25  1  0.00008100  0.10939700  0.45817600  1
  C  C26  1  0.00008100  0.89060300  0.54182400  1
  C  C27  1  0.20289500  0.57010400  0.99967300  1
  C  C28  1  0.78330200  0.43889300  0.97943900  1
  C  C29  1  0.20289500  0.42989600  0.00032700  1
  C  C30  1  0.78330200  0.56110700  0.02056100  1
  C  C31  1  0.00008700  0.99625700  0.42087800  1
  C  C32  1  0.00008700  0.00374300  0.57912200  1
  C  C33  1  0.00080200  0.77597300  0.42150900  1
  C  C34  1  0.00080200  0.22402700  0.57849100  1
  C  C35  1  0.99965200  0.21635900  0.41409800  1
  C  C36  1  0.99965200  0.78364100  0.58590200  1
  C  C37  1  0.35809900  0.63132500  0.99484800  1
  C  C38  1  0.63831800  0.36976800  0.99874900  1
  C  C39  1  0.35809900  0.36867500  0.00515200  1
  C  C40  1  0.63831800  0.63023200  0.00125100  1
  C  C41  1  0.36121100  0.75790300  0.98757900  1
  C  C42  1  0.64064500  0.24350200  0.01073900  1
  C  C43  1  0.36121100  0.24209700  0.01242100  1
  C  C44  1  0.64064500  0.75649800  0.98926100  1
  N  N1  1  0.00003300  0.01409500  0.81564900  1
  N  N2  1  0.00003300  0.98590500  0.18435100  1
  O  O1  1  0.83905800  0.86417300  0.05988600  1
  O  O2  1  0.16409100  0.13427700  0.94087300  1
  O  O3  1  0.16635500  0.11405900  0.07013700  1
  O  O4  1  0.83332000  0.88622000  0.93080000  1
  O  O5  1  0.83905800  0.13582700  0.94011400  1
  O  O6  1  0.16409100  0.86572300  0.05912700  1
  O  O7  1  0.16635500  0.88594100  0.92986300  1
  O  O8  1  0.83332000  0.11378000  0.06920000  1
