# Generated by REPEAT Assigner based on pymatgen
data_DB0-m3_o11_o11_f0_nbo.sym.104_sqe
_audit_creation_date              2022-05-24
_audit_creation_method            REPEAT_Assigner
_cell_length_a                    19.117248
_cell_length_b                    19.038241
_cell_length_c                    19.132931
_cell_angle_alpha                 109.289246
_cell_angle_beta                  109.456602
_cell_angle_gamma                 109.551282
_cell_volume                      5368.254439
_symmetry_space_group_name_H-M    P1
_symmetry_Int_Tables_number       1
loop_
    _symmetry_equiv_pos_site_id
    _symmetry_equiv_pos_as_xyz
    1  x,y,z
loop_
    _atom_site_type_symbol
    _atom_site_label
    _atom_site_fract_x
    _atom_site_fract_y
    _atom_site_fract_z
    _atom_type_partial_charge
    O   O1   0.419650  0.900583  0.000767  -0.630510
    O   O2   0.583549  0.187410  0.086773  -0.680526
    O   O3   0.417149  0.006833  0.100996  -0.696454
    O   O4   0.582289  0.080859  0.982960  -0.641645
    C   C1   0.392827  0.926050  0.053968  0.683629
    C   C2   0.608415  0.161878  0.031805  0.677343
    O   O5   0.597047  0.995947  0.078457  -0.641265
    O   O6   0.405779  0.093465  0.007058  -0.671995
    O   O7   0.599462  0.102999  0.182756  -0.687828
    O   O8   0.400271  0.983142  0.903239  -0.654740
    C   C3   0.629479  0.052389  0.158619  0.669540
    C   C4   0.371713  0.035358  0.927170  0.675097
    Zn  Zn1  0.499254  0.974193  0.974058  1.243890
    Zn  Zn2  0.502008  0.113613  0.111670  1.300578
    C   C5   0.829567  0.047626  0.283210  -0.087684
    C   C6   0.170430  0.960306  0.723844  -0.085825
    C   C7   0.812137  0.011739  0.329040  -0.114326
    C   C8   0.187238  0.024261  0.706044  -0.111326
    H   H1   0.893546  0.074159  0.291915  0.109999
    H   H2   0.106999  0.904104  0.685436  0.102045
    H   H3   0.746864  0.977712  0.315349  0.110014
    H   H4   0.252011  0.077200  0.738426  0.110097
    C   C9   0.762831  0.045955  0.214984  -0.073978
    C   C10  0.236966  0.958654  0.789031  -0.058573
    C   C11  0.700856  0.057853  0.225431  -0.141586
    C   C12  0.300279  0.031386  0.861858  -0.166833
    H   H5   0.703494  0.073975  0.286465  0.112147
    H   H6   0.299067  0.090715  0.874941  0.122022
    C   C13  0.259881  0.718991  0.042618  -0.113022
    C   C14  0.741560  0.276717  0.954239  -0.098939
    C   C15  0.180684  0.706746  0.016501  -0.135374
    C   C16  0.820720  0.330119  0.020888  -0.137750
    H   H7   0.275964  0.675816  0.060622  0.146122
    H   H8   0.725201  0.277908  0.894850  0.141663
    H   H9   0.161496  0.743161  0.989004  0.114576
    H   H10  0.839673  0.322554  0.076796  0.110207
    C   C17  0.323213  0.784044  0.037668  -0.059836
    C   C18  0.678213  0.209981  0.957530  -0.064036
    C   C19  0.330614  0.861431  0.059792  -0.135536
    C   C20  0.670559  0.227830  0.027228  -0.129526
    H   H11  0.367391  0.769954  0.020348  0.114690
    H   H12  0.634253  0.147310  0.900742  0.115141
    H   H13  0.292651  0.878805  0.085728  0.115353
    H   H14  0.708251  0.292923  0.080655  0.110488
    O   O9   0.039059  0.155941  0.604232  -0.691301
    O   O10  0.959837  0.879488  0.429666  -0.688163
    O   O11  0.941318  0.045296  0.605070  -0.683559
    O   O12  0.058710  0.990225  0.429943  -0.679705
    C   C21  0.987519  0.127066  0.631696  0.717986
    C   C22  0.011973  0.908403  0.402771  0.708344
    O   O13  0.960185  0.069338  0.424858  -0.648418
    O   O14  0.039280  0.965619  0.609077  -0.641357
    O   O15  0.858430  0.961596  0.424974  -0.686868
    O   O16  0.140968  0.074562  0.610184  -0.687516
    C   C23  0.880367  0.014090  0.395939  0.671906
    C   C24  0.119074  0.021240  0.638400  0.666215
    Zn  Zn3  0.066617  0.090737  0.519864  1.285838
    Zn  Zn4  0.932827  0.944759  0.514590  1.283648
    O   O17  0.043725  0.607372  0.156087  -0.684714
    O   O18  0.958450  0.428989  0.879724  -0.687393
    O   O19  0.940706  0.604073  0.046871  -0.671796
    O   O20  0.059637  0.430400  0.988868  -0.677941
    C   C25  0.989890  0.632957  0.128139  0.712261
    C   C26  0.011373  0.402500  0.907638  0.701511
    O   O21  0.140631  0.611337  0.069630  -0.689954
    O   O22  0.860627  0.423083  0.965173  -0.692504
    O   O23  0.035212  0.609233  0.963872  -0.677538
    O   O24  0.965979  0.427254  0.072965  -0.675533
    C   C27  0.115807  0.638937  0.016728  0.694849
    C   C28  0.885456  0.396174  0.018775  0.694894
    Zn  Zn5  0.069946  0.522054  0.089801  1.292352
    Zn  Zn6  0.931323  0.513340  0.945956  1.293093
    C   C29  0.994294  0.328875  0.767384  -0.082859
    C   C30  0.007177  0.707229  0.268496  -0.103417
    C   C31  0.016946  0.338347  0.845222  -0.163961
    C   C32  0.984194  0.697157  0.190418  -0.159411
    H   H15  0.975878  0.371888  0.751426  0.135608
    H   H16  0.026246  0.664760  0.284929  0.146494
    H   H17  0.044553  0.302243  0.864920  0.127067
    H   H18  0.955879  0.732611  0.170280  0.125637
    C   C33  0.002414  0.266952  0.705029  -0.082216
    C   C34  0.998350  0.768911  0.330364  -0.076236
    C   C35  0.981497  0.188971  0.695829  -0.168666
    C   C36  0.018361  0.846564  0.338916  -0.165035
    H   H19  0.019547  0.283335  0.661722  0.135772
    H   H20  0.981495  0.752742  0.373903  0.132925
    H   H21  0.955230  0.168765  0.732456  0.128512
    H   H22  0.044515  0.866726  0.302200  0.127501
    C   C37  0.773702  0.041712  0.141453  0.242289
    C   C38  0.785561  0.977044  0.097405  -0.152661
    C   C39  0.799015  0.973766  0.030218  0.055936
    Cl  Cl1  0.812501  0.890701  0.973703  -0.103981
    C   C40  0.802238  0.036017  0.007749  -0.091465
    C   C41  0.792666  0.101946  0.052921  -0.135918
    C   C42  0.778868  0.105150  0.119916  -0.162282
    H   H23  0.783302  0.928082  0.114772  0.109883
    H   H24  0.813120  0.033612  0.955278  0.101259
    H   H25  0.796649  0.151548  0.036215  0.130103
    H   H26  0.773286  0.158181  0.156017  0.118070
    C   C43  0.224605  0.873653  0.774870  0.246098
    C   C44  0.211965  0.816120  0.698947  -0.146708
    C   C45  0.197069  0.734942  0.683153  0.054956
    Cl  Cl2  0.182557  0.662831  0.587350  -0.105154
    C   C46  0.193201  0.710378  0.742529  -0.092392
    C   C47  0.203589  0.766804  0.817446  -0.137194
    C   C48  0.218828  0.848133  0.833512  -0.164169
    H   H27  0.214710  0.834859  0.651974  0.102839
    H   H28  0.181195  0.646613  0.729984  0.101485
    H   H29  0.199140  0.747024  0.863345  0.128247
    H   H30  0.225177  0.891254  0.891725  0.118881
