# Generated by REPEAT Assigner based on pymatgen
data_DB0-m3_o530_o14_f0_fsc.sym.24_sqe
_audit_creation_date              2022-05-24
_audit_creation_method            REPEAT_Assigner
_cell_length_a                    18.977948
_cell_length_b                    8.561453
_cell_length_c                    9.304583
_cell_angle_alpha                 90.000000
_cell_angle_beta                  101.783622
_cell_angle_gamma                 90.000000
_cell_volume                      1479.937502
_symmetry_space_group_name_H-M    P1
_symmetry_Int_Tables_number       1
loop_
    _symmetry_equiv_pos_site_id
    _symmetry_equiv_pos_as_xyz
    1  x,y,z
loop_
    _atom_site_type_symbol
    _atom_site_label
    _atom_site_fract_x
    _atom_site_fract_y
    _atom_site_fract_z
    _atom_type_partial_charge
    C   C1   0.843619  0.909248  0.927502  0.396328
    C   C2   0.868607  0.088994  0.120955  0.399976
    N   N1   0.821266  0.999893  0.027983  -0.130723
    C   C3   0.940657  0.090352  0.113257  -0.072558
    C   C4   0.915388  0.906867  0.918037  -0.045547
    C   C5   0.964024  0.998709  0.010967  0.063978
    C   C6   0.989552  0.181813  0.207599  -0.093251
    C   C7   0.938746  0.814060  0.815621  -0.124207
    C   C8   0.061186  0.182021  0.198162  -0.044296
    C   C9   0.010195  0.814431  0.805903  -0.042728
    C   C10  0.084388  0.090668  0.094389  -0.109741
    C   C11  0.058841  0.907168  0.899077  -0.113438
    C   C12  0.035643  0.998801  0.001596  0.115705
    C   C13  0.155997  0.089881  0.082947  0.450783
    C   C14  0.130498  0.909687  0.889575  0.457325
    N   N2   0.177833  0.000432  0.980794  -0.192386
    O   O1   0.795501  0.824568  0.833282  -0.476738
    O   O2   0.845873  0.173106  0.224427  -0.454714
    H   H1   0.972524  0.254480  0.289168  0.131603
    H   H2   0.901846  0.739999  0.742301  0.156454
    H   H3   0.098431  0.254849  0.272555  0.123650
    H   H4   0.027186  0.741123  0.724745  0.116734
    O   O3   0.204323  0.175163  0.176410  -0.471567
    O   O4   0.152803  0.825070  0.785701  -0.477531
    C   C15  0.287034  0.861523  0.959996  -0.276237
    C   C16  0.287233  0.141502  0.960440  -0.283021
    H   H5   0.261590  0.752124  0.977391  0.150138
    H   H6   0.261001  0.251731  0.970811  0.153388
    C   C17  0.356167  0.861164  0.935235  0.028362
    C   C18  0.356529  0.141050  0.935775  -0.034694
    C   C19  0.389439  0.000933  0.917303  -0.158794
    C   C20  0.251307  0.001490  0.966703  0.342062
    C   C21  0.711039  0.141417  0.039376  -0.334112
    C   C22  0.709983  0.861667  0.038869  -0.254642
    H   H7   0.737616  0.250487  0.025808  0.153999
    H   H8   0.736339  0.750854  0.032425  0.144872
    C   C23  0.639998  0.141759  0.053500  0.092978
    C   C24  0.639061  0.863750  0.052976  0.040006
    C   C25  0.605587  0.003254  0.066591  -0.251948
    C   C26  0.747067  0.000893  0.037268  0.311737
    H   H9   0.444375  0.000626  0.902656  0.137933
    H   H10  0.549662  0.004147  0.074404  0.152290
    O   O5   0.422208  0.666785  0.088254  -0.702871
    O   O6   0.422906  0.335500  0.088282  -0.650199
    O   O7   0.422157  0.663938  0.837002  -0.713653
    O   O8   0.422993  0.337818  0.837227  -0.707068
    C   C27  0.399521  0.718447  0.952769  0.807483
    C   C28  0.400327  0.283313  0.952998  0.822015
    O   O9   0.571074  0.672747  0.901156  -0.720676
    O   O10  0.572148  0.333038  0.901417  -0.730567
    O   O11  0.571063  0.669963  0.146484  -0.720884
    O   O12  0.571880  0.335531  0.146506  -0.741069
    C   C29  0.594958  0.723216  0.034293  0.896089
    C   C30  0.596292  0.283039  0.034639  0.857341
    Zn  Zn1  0.498876  0.501847  0.833116  1.057844
    Zn  Zn2  0.497536  0.501856  0.154691  1.027488
    H   H11  0.387145  0.499052  0.579420  0.174645
    C   C31  0.629923  0.506914  0.694083  -0.205950
    H   H12  0.637437  0.505283  0.809726  0.150162
    C   C32  0.693923  0.513987  0.648579  -0.037984
    H   H13  0.742550  0.522668  0.731487  0.107244
    C   C33  0.695379  0.509505  0.502707  -0.067514
    C   C34  0.630341  0.503848  0.404216  -0.219504
    H   H14  0.634430  0.503539  0.294684  0.134392
    C   C35  0.563551  0.502866  0.446559  0.139511
    C   C36  0.563429  0.503444  0.596121  0.138280
    N   N3   0.500108  0.501881  0.644098  0.030250
    C   C37  0.437846  0.500225  0.543571  -0.083872
    H   H15  0.387097  0.499259  0.316172  0.182107
    C   C38  0.437827  0.500312  0.394183  -0.107258
    N   N4   0.500054  0.501641  0.345355  0.033358
    C   C39  0.767023  0.518370  0.454985  0.659554
    C   C40  0.792668  0.686452  0.466020  -0.417956
    C   C41  0.822110  0.416647  0.555221  -0.379176
    C   C42  0.763202  0.462920  0.297879  -0.186445
    H   H16  0.789836  0.733729  0.575119  0.131832
    H   H17  0.757424  0.758302  0.381483  0.057910
    H   H18  0.848832  0.692499  0.449413  0.056262
    H   H19  0.843963  0.477637  0.659775  0.031518
    H   H20  0.868245  0.390304  0.502935  0.092109
    H   H21  0.796471  0.305299  0.577566  0.056655
    H   H22  0.732141  0.545804  0.217809  -0.014188
    H   H23  0.738638  0.344965  0.283510  0.057313
    H   H24  0.817978  0.458864  0.273718  0.028042
