# generated using pymatgen
data_Cu3H11C34N7O26
_symmetry_space_group_name_H-M   'P 1'
_cell_length_a   30.25294100
_cell_length_b   31.96091300
_cell_length_c   21.39838500
_cell_angle_alpha   90.00000000
_cell_angle_beta   134.98249300
_cell_angle_gamma   90.00000000
_symmetry_Int_Tables_number   1
_chemical_formula_structural   Cu3H11C34N7O26
_chemical_formula_sum   'Cu12 H44 C136 N28 O104'
_cell_volume   14634.75434293
_cell_formula_units_Z   4
loop_
 _symmetry_equiv_pos_site_id
 _symmetry_equiv_pos_as_xyz
  1  'x, y, z'
loop_
 _atom_site_type_symbol
 _atom_site_label
 _atom_site_symmetry_multiplicity
 _atom_site_fract_x
 _atom_site_fract_y
 _atom_site_fract_z
 _atom_site_occupancy
  Cu  Cu1  1  0.49855300  0.50149100  0.43578200  1
  Cu  Cu2  1  0.99838300  0.00102900  0.43557500  1
  Cu  Cu3  1  0.49962200  0.50188300  0.56147300  1
  Cu  Cu4  1  0.99940300  0.00128200  0.56121700  1
  Cu  Cu5  1  0.43744000  0.00193300  0.43754300  1
  Cu  Cu6  1  0.93732000  0.50165400  0.43735200  1
  Cu  Cu7  1  0.56200100  0.00142700  0.56131900  1
  Cu  Cu8  1  0.06187400  0.50068900  0.56110500  1
  Cu  Cu9  1  0.99897800  0.54319300  0.99884500  1
  Cu  Cu10  1  0.99972900  0.45977700  0.00038100  1
  Cu  Cu11  1  0.49900100  0.04268500  0.99888800  1
  Cu  Cu12  1  0.49934500  0.95926900  0.00011900  1
  H  H1  1  0.40431900  0.72573100  0.45262800  1
  H  H2  1  0.40672700  0.27660900  0.46277100  1
  H  H3  1  0.90312300  0.22519200  0.45176600  1
  H  H4  1  0.90763200  0.77603600  0.46331200  1
  H  H5  1  0.50509800  0.72634200  0.39600000  1
  H  H6  1  0.49776900  0.27711700  0.39059400  1
  H  H7  1  0.00371100  0.22573300  0.39482100  1
  H  H8  1  0.99875700  0.77651500  0.39126600  1
  H  H9  1  0.21043300  0.53906700  0.30267300  1
  H  H10  1  0.71030200  0.03902800  0.30169700  1
  H  H11  1  0.28748600  0.46698100  0.38149700  1
  H  H12  1  0.28812000  0.57400900  0.28634300  1
  H  H13  1  0.78729600  0.96693700  0.38194900  1
  H  H14  1  0.78796800  0.07305900  0.28459100  1
  H  H15  1  0.28844900  0.46526300  0.19658000  1
  H  H16  1  0.78822000  0.96348100  0.19704600  1
  H  H17  1  0.78727100  0.50356300  0.89334200  1
  H  H18  1  0.28702900  0.00291300  0.89324000  1
  H  H19  1  0.78651600  0.56127700  0.72707200  1
  H  H20  1  0.78952000  0.43627100  0.73841400  1
  H  H21  1  0.28637200  0.06142400  0.72769200  1
  H  H22  1  0.28935700  0.93638100  0.73767500  1
  H  H23  1  0.10153000  0.48489700  0.31227400  1
  H  H24  1  0.60009600  0.98107800  0.31105900  1
  H  H25  1  0.57620900  0.05083800  0.36447900  1
  H  H26  1  0.52231700  0.93251900  0.31149900  1
  H  H27  1  0.07212400  0.55328700  0.36103200  1
  H  H28  1  0.02760800  0.43322700  0.31582100  1
  H  H29  1  0.96845900  0.57079300  0.18040900  1
  H  H30  1  0.92398600  0.45068200  0.13491000  1
  H  H31  1  0.47396000  0.07155900  0.18521500  1
  H  H32  1  0.42010000  0.95317300  0.13180900  1
  H  H33  1  0.39611700  0.02295900  0.18478400  1
  H  H34  1  0.89443100  0.51908000  0.18305800  1
  H  H35  1  0.50469200  0.92914600  0.71476100  1
  H  H36  1  0.59351700  0.03763500  0.80528600  1
  H  H37  1  0.00739800  0.42898300  0.71860600  1
  H  H38  1  0.09208500  0.53895900  0.80308200  1
  H  H39  1  0.91150900  0.46210300  0.70020400  1
  H  H40  1  0.99623900  0.57228600  0.78404300  1
  H  H41  1  0.40996100  0.96334300  0.69798300  1
  H  H42  1  0.49887900  0.07204600  0.78783200  1
  H  H43  1  0.40775400  0.03525100  0.62010400  1
  H  H44  1  0.90641700  0.53340700  0.61835300  1
  C  C1  1  0.37937100  0.50196400  0.37999600  1
  C  C2  1  0.87917500  0.00111400  0.37971300  1
  C  C3  1  0.49979200  0.58193600  0.49877500  1
  C  C4  1  0.49736600  0.42141700  0.49749600  1
  C  C5  1  0.99911700  0.08140700  0.49826100  1
  C  C6  1  0.99765400  0.92088000  0.49754800  1
  C  C7  1  0.61884200  0.50012100  0.61724700  1
  C  C8  1  0.11865600  0.99990900  0.61706900  1
  C  C9  1  0.45243500  0.76452900  0.42092700  1
  C  C10  1  0.45084700  0.23835700  0.42423100  1
  C  C11  1  0.95109300  0.26395600  0.41978700  1
  C  C12  1  0.95186400  0.73777100  0.42496400  1
  C  C13  1  0.44807300  0.73700500  0.47428700  1
  C  C14  1  0.44933000  0.26581200  0.48065200  1
  C  C15  1  0.94683500  0.23647100  0.47330700  1
  C  C16  1  0.95026800  0.76525700  0.48126600  1
  C  C17  1  0.50050100  0.62682700  0.49923400  1
  C  C18  1  0.49798900  0.37653100  0.49842500  1
  C  C19  1  0.99957900  0.12630000  0.49856600  1
  C  C20  1  0.99853900  0.87599600  0.49864300  1
  C  C21  1  0.49881900  0.87651700  0.49790700  1
  C  C22  1  0.50075300  0.12686600  0.50123100  1
  C  C23  1  0.99770000  0.37599400  0.49672400  1
  C  C24  1  0.00161800  0.62633400  0.50201200  1
  C  C25  1  0.50325300  0.73733400  0.44326700  1
  C  C26  1  0.49919300  0.26608800  0.44112500  1
  C  C27  1  0.00191000  0.23676400  0.44211600  1
  C  C28  1  0.00017600  0.76551900  0.44180900  1
  C  C29  1  0.50058800  0.71031700  0.49941600  1
  C  C30  1  0.49944300  0.29305600  0.50029500  1
  C  C31  1  0.99935200  0.20979100  0.49842300  1
  C  C32  1  0.00034600  0.79252300  0.50086100  1
  C  C33  1  0.55071000  0.76532300  0.52323800  1
  C  C34  1  0.54919400  0.23859900  0.52062700  1
  C  C35  1  0.04937300  0.26480200  0.52198400  1
  C  C36  1  0.05021000  0.73808400  0.52140900  1
  C  C37  1  0.49987200  0.79297000  0.49897700  1
  C  C38  1  0.50073600  0.21041200  0.50172900  1
  C  C39  1  0.99853500  0.29244500  0.49773100  1
  C  C40  1  0.00178700  0.70988000  0.50256200  1
  C  C41  1  0.54832800  0.73813300  0.57796300  1
  C  C42  1  0.54963300  0.26574400  0.57826700  1
  C  C43  1  0.04709500  0.23765900  0.57686200  1
  C  C44  1  0.05057000  0.76526900  0.57893400  1
  C  C45  1  0.49724600  0.76500000  0.55328200  1
  C  C46  1  0.50088300  0.23832900  0.55892400  1
  C  C47  1  0.99601300  0.26452000  0.55219500  1
  C  C48  1  0.00185300  0.73783300  0.55963600  1
  C  C49  1  0.50072800  0.66452700  0.49944300  1
  C  C50  1  0.49864200  0.33883700  0.49930700  1
  C  C51  1  0.99963400  0.16400000  0.49862500  1
  C  C52  1  0.99938100  0.83830300  0.49968700  1
  C  C53  1  0.49910200  0.83881500  0.49813300  1
  C  C54  1  0.50081400  0.16456600  0.50153000  1
  C  C55  1  0.99782100  0.33829100  0.49685400  1
  C  C56  1  0.00182900  0.66403400  0.50240500  1
  C  C57  1  0.26995700  0.48331800  0.32175400  1
  C  C58  1  0.27035000  0.54143900  0.27028400  1
  C  C59  1  0.76977000  0.98288500  0.32187700  1
  C  C60  1  0.77017500  0.04051400  0.26919900  1
  C  C61  1  0.22860100  0.52236900  0.27919900  1
  C  C62  1  0.72844500  0.02193400  0.27854700  1
  C  C63  1  0.18863500  0.50231400  0.18873800  1
  C  C64  1  0.68844800  0.00141800  0.18849600  1
  C  C65  1  0.23011000  0.46442900  0.23112700  1
  C  C66  1  0.23037800  0.52072700  0.18119000  1
  C  C67  1  0.72988600  0.96353100  0.23162200  1
  C  C68  1  0.73017800  0.01935300  0.18054000  1
  C  C69  1  0.27117800  0.48211800  0.22119200  1
  C  C70  1  0.77095500  0.98072800  0.22130900  1
  C  C71  1  0.31016700  0.50229600  0.31104400  1
  C  C72  1  0.80997000  0.00137300  0.31074900  1
  C  C73  1  0.72889300  0.53331800  0.75293500  1
  C  C74  1  0.73048600  0.46763800  0.75931100  1
  C  C75  1  0.22869400  0.03306300  0.75316400  1
  C  C76  1  0.23028800  0.96736200  0.75883800  1
  C  C77  1  0.77029500  0.50193300  0.82747400  1
  C  C78  1  0.27008100  0.00151600  0.82737400  1
  C  C79  1  0.81043000  0.50061600  0.80896700  1
  C  C80  1  0.31024800  0.00048300  0.80890900  1
  C  C81  1  0.76998600  0.53331500  0.73639800  1
  C  C82  1  0.77171100  0.46517600  0.74307100  1
  C  C83  1  0.26982800  0.03333800  0.73669100  1
  C  C84  1  0.27153600  0.96517800  0.74262000  1
  C  C85  1  0.73023500  0.49790900  0.67161000  1
  C  C86  1  0.23008500  0.99805200  0.67151000  1
  C  C87  1  0.68826400  0.49914300  0.68611200  1
  C  C88  1  0.18808100  0.99901300  0.68596800  1
  C  C89  1  0.49864200  0.00237900  0.37836300  1
  C  C90  1  0.99844500  0.50126000  0.37807800  1
  C  C91  1  0.49903800  0.92140400  0.49830000  1
  C  C92  1  0.50043200  0.08198200  0.50061600  1
  C  C93  1  0.99825400  0.42088100  0.49740200  1
  C  C94  1  0.00096600  0.58145100  0.50110900  1
  C  C95  1  0.50081600  0.00189500  0.62051400  1
  C  C96  1  0.00071800  0.50041200  0.62033500  1
  C  C97  1  0.99787700  0.50196800  0.11810100  1
  C  C98  1  0.49786500  0.00153400  0.11816800  1
  C  C99  1  0.11916500  0.50198300  0.11948400  1
  C  C100  1  0.61898300  0.00121300  0.11929100  1
  C  C101  1  0.00051900  0.50097000  0.88071500  1
  C  C102  1  0.50030900  0.00040600  0.88057100  1
  C  C103  1  0.87963600  0.50096900  0.87808400  1
  C  C104  1  0.37945400  0.00071900  0.87804600  1
  C  C105  1  0.54075100  0.02865200  0.31088000  1
  C  C106  1  0.51138000  0.96406000  0.28196000  1
  C  C107  1  0.03848200  0.52997800  0.30893200  1
  C  C108  1  0.01422200  0.46444600  0.28422900  1
  C  C109  1  0.05455300  0.49262200  0.28391300  1
  C  C110  1  0.55381300  0.99055000  0.28332900  1
  C  C111  1  0.99800400  0.50215800  0.18785800  1
  C  C112  1  0.49803700  0.00184500  0.18797600  1
  C  C113  1  0.98194800  0.53950300  0.21175900  1
  C  C114  1  0.95763600  0.47397700  0.18704700  1
  C  C115  1  0.48499900  0.03992600  0.21444600  1
  C  C116  1  0.45556100  0.97534500  0.18544800  1
  C  C117  1  0.44251300  0.01340400  0.21301000  1
  C  C118  1  0.94156400  0.51128200  0.21204400  1
  C  C119  1  0.49830200  0.00213400  0.30838300  1
  C  C120  1  0.99813200  0.50176900  0.30812700  1
  C  C121  1  0.50247600  0.96159100  0.73076800  1
  C  C122  1  0.55126800  0.02122400  0.78037000  1
  C  C123  1  0.00397600  0.46151300  0.73287100  1
  C  C124  1  0.05048800  0.52195100  0.77910700  1
  C  C125  1  0.05170600  0.48334700  0.82069300  1
  C  C126  1  0.55097000  0.98232200  0.81980400  1
  C  C127  1  0.00164700  0.50069200  0.81209400  1
  C  C128  1  0.50151600  0.00021300  0.81202500  1
  C  C129  1  0.95251800  0.47948700  0.72304300  1
  C  C130  1  0.99885900  0.53968600  0.76912300  1
  C  C131  1  0.45165600  0.98014100  0.72184000  1
  C  C132  1  0.50027900  0.03952700  0.77122000  1
  C  C133  1  0.45040500  0.01946400  0.68034400  1
  C  C134  1  0.94970000  0.51847000  0.67933600  1
  C  C135  1  0.50124300  0.00105800  0.69056500  1
  C  C136  1  0.00118900  0.50064300  0.69044300  1
  N  N1  1  0.70463400  0.57105200  0.75747500  1
  N  N2  1  0.71051400  0.43079700  0.77369900  1
  N  N3  1  0.20441500  0.07065700  0.75807400  1
  N  N4  1  0.21031300  0.93035600  0.77282400  1
  N  N5  1  0.70886500  0.49522900  0.58603300  1
  N  N6  1  0.20876400  0.99568000  0.58593900  1
  N  N7  1  0.10936800  0.46349400  0.89842900  1
  N  N8  1  0.60785300  0.96137600  0.89651500  1
  N  N9  1  0.39785900  0.77818200  0.33156300  1
  N  N10  1  0.39457700  0.22416700  0.33650200  1
  N  N11  1  0.89646200  0.27756100  0.33041500  1
  N  N12  1  0.89563100  0.72352700  0.33725800  1
  N  N13  1  0.49537200  0.77852900  0.61617300  1
  N  N14  1  0.50326900  0.22474900  0.62602800  1
  N  N15  1  0.99419800  0.27810100  0.61512100  1
  N  N16  1  0.00423300  0.72429800  0.62675600  1
  N  N17  1  0.60303900  0.72488700  0.66760400  1
  N  N18  1  0.60605400  0.27957100  0.66623700  1
  N  N19  1  0.10186400  0.22447800  0.66652500  1
  N  N20  1  0.10695000  0.77916500  0.66686800  1
  N  N21  1  0.60864000  0.77921900  0.55251000  1
  N  N22  1  0.60560300  0.22531800  0.54490500  1
  N  N23  1  0.10725600  0.27869400  0.55110600  1
  N  N24  1  0.10665600  0.72481600  0.54577900  1
  N  N25  1  0.20866600  0.42135300  0.21062700  1
  N  N26  1  0.21044900  0.54217300  0.10481900  1
  N  N27  1  0.70837100  0.92048600  0.21192800  1
  N  N28  1  0.71019300  0.04025300  0.10367900  1
  O  O1  1  0.40786000  0.50381800  0.35441500  1
  O  O2  1  0.90767400  0.00312400  0.35416000  1
  O  O3  1  0.40874300  0.50395700  0.46295400  1
  O  O4  1  0.90851600  0.00310900  0.46265600  1
  O  O5  1  0.50208200  0.56232300  0.44724100  1
  O  O6  1  0.49983300  0.44068400  0.44596300  1
  O  O7  1  0.00157300  0.06186000  0.44684800  1
  O  O8  1  0.99999600  0.94021500  0.44593600  1
  O  O9  1  0.50271900  0.56266600  0.55575400  1
  O  O10  1  0.50104300  0.44102500  0.55482600  1
  O  O11  1  0.00212200  0.06208500  0.55527500  1
  O  O12  1  0.00120800  0.94043800  0.55480200  1
  O  O13  1  0.58946500  0.50227300  0.53423900  1
  O  O14  1  0.08928700  0.00202800  0.53406200  1
  O  O15  1  0.59040200  0.50282400  0.64298600  1
  O  O16  1  0.09018000  0.00248700  0.64276800  1
  O  O17  1  0.44490800  0.00075900  0.35404800  1
  O  O18  1  0.94480500  0.50363300  0.35390700  1
  O  O19  1  0.55261300  0.99996300  0.46115200  1
  O  O20  1  0.05251200  0.50236300  0.46097000  1
  O  O21  1  0.44525200  0.94108200  0.44214700  1
  O  O22  1  0.44642200  0.06272400  0.44447200  1
  O  O23  1  0.94475200  0.44078400  0.44148800  1
  O  O24  1  0.94668100  0.56242100  0.44474700  1
  O  O25  1  0.55313400  0.94063700  0.55497800  1
  O  O26  1  0.55410800  0.06227800  0.55617400  1
  O  O27  1  0.05238200  0.43994500  0.55415900  1
  O  O28  1  0.05460500  0.56157900  0.55656600  1
  O  O29  1  0.44680700  0.99995900  0.53767000  1
  O  O30  1  0.94672000  0.50270300  0.53754300  1
  O  O31  1  0.55450600  0.99982600  0.64476900  1
  O  O32  1  0.05442900  0.50224100  0.64461100  1
  O  O33  1  0.00009500  0.53799400  0.09091600  1
  O  O34  1  0.00179100  0.46578300  0.09326100  1
  O  O35  1  0.50012900  0.03753400  0.09097200  1
  O  O36  1  0.50153400  0.96531700  0.09312300  1
  O  O37  1  0.08983300  0.53796600  0.09325500  1
  O  O38  1  0.09048600  0.46579100  0.09359000  1
  O  O39  1  0.58983100  0.03726100  0.09324500  1
  O  O40  1  0.59013500  0.96508200  0.09326100  1
  O  O41  1  0.00265700  0.53713100  0.91175400  1
  O  O42  1  0.00229900  0.46505000  0.91204100  1
  O  O43  1  0.50263300  0.03656600  0.91176400  1
  O  O44  1  0.50184700  0.96448700  0.91169500  1
  O  O45  1  0.90818400  0.53715100  0.90921800  1
  O  O46  1  0.90885700  0.46509800  0.91153500  1
  O  O47  1  0.40817800  0.03684200  0.90926400  1
  O  O48  1  0.40850400  0.96479200  0.91139200  1
  O  O49  1  0.71795400  0.57959400  0.82866800  1
  O  O50  1  0.67028600  0.59666000  0.69077100  1
  O  O51  1  0.75213700  0.40642600  0.84045600  1
  O  O52  1  0.65168000  0.42094200  0.71821700  1
  O  O53  1  0.21771400  0.07892700  0.82933800  1
  O  O54  1  0.17005100  0.09640400  0.69161900  1
  O  O55  1  0.25193500  0.90586700  0.83932600  1
  O  O56  1  0.15147500  0.92050500  0.71727900  1
  O  O57  1  0.72218200  0.52497400  0.56010700  1
  O  O58  1  0.68012100  0.46181700  0.53794700  1
  O  O59  1  0.22209400  0.02561900  0.56036200  1
  O  O60  1  0.18011200  0.96233700  0.53754400  1
  O  O61  1  0.14883600  0.45006800  0.89627400  1
  O  O62  1  0.12178900  0.45887800  0.96987800  1
  O  O63  1  0.64679400  0.94750300  0.89366400  1
  O  O64  1  0.62026300  0.95643400  0.96789900  1
  O  O65  1  0.36048200  0.75050100  0.27004200  1
  O  O66  1  0.38606900  0.81779000  0.31259900  1
  O  O67  1  0.35518700  0.25148000  0.27535100  1
  O  O68  1  0.38325300  0.18445000  0.31863200  1
  O  O69  1  0.85907600  0.24984900  0.26897900  1
  O  O70  1  0.88461500  0.31715900  0.31137100  1
  O  O71  1  0.85621800  0.75080600  0.27602700  1
  O  O72  1  0.88437500  0.68380000  0.31947300  1
  O  O73  1  0.49327300  0.75080300  0.65847600  1
  O  O74  1  0.49544900  0.81812500  0.63013000  1
  O  O75  1  0.50317600  0.25242400  0.67045700  1
  O  O76  1  0.50508600  0.18515100  0.64158600  1
  O  O77  1  0.99218600  0.25041100  0.65756500  1
  O  O78  1  0.99421900  0.31770900  0.62894900  1
  O  O79  1  0.00406700  0.75200200  0.67107100  1
  O  O80  1  0.00614500  0.68471100  0.64246700  1
  O  O81  1  0.64022500  0.75279100  0.72866800  1
  O  O82  1  0.61491300  0.68534900  0.68730600  1
  O  O83  1  0.64521500  0.25206500  0.72704500  1
  O  O84  1  0.61766900  0.31923400  0.68460600  1
  O  O85  1  0.13904100  0.25242700  0.72747700  1
  O  O86  1  0.11378400  0.18495400  0.68636800  1
  O  O87  1  0.14615300  0.75170800  0.72778000  1
  O  O88  1  0.11849300  0.81884300  0.68509300  1
  O  O89  1  0.64829900  0.75175000  0.57129700  1
  O  O90  1  0.62092900  0.81889100  0.55948300  1
  O  O91  1  0.64328300  0.25320100  0.55939800  1
  O  O92  1  0.61849400  0.18578100  0.55172500  1
  O  O93  1  0.14690800  0.25122000  0.56989000  1
  O  O94  1  0.11950500  0.31836500  0.55793400  1
  O  O95  1  0.14431300  0.75270500  0.56022600  1
  O  O96  1  0.11960700  0.68528100  0.55274100  1
  O  O97  1  0.22173400  0.39753000  0.27115900  1
  O  O98  1  0.18149500  0.40551500  0.13455300  1
  O  O99  1  0.25218500  0.55631400  0.10776900  1
  O  O100  1  0.15147800  0.54803900  0.03429900  1
  O  O101  1  0.72141700  0.89708100  0.27290700  1
  O  O102  1  0.68114100  0.90423500  0.13613100  1
  O  O103  1  0.75188600  0.05404600  0.10626200  1
  O  O104  1  0.65120300  0.04590500  0.03300300  1
