# generated using pymatgen
data_CuH10C22(ClO2)2
_symmetry_space_group_name_H-M   'P 1'
_cell_length_a   38.39379600
_cell_length_b   32.00272800
_cell_length_c   21.61888000
_cell_angle_alpha   90.00000000
_cell_angle_beta   123.55325800
_cell_angle_gamma   90.00000000
_symmetry_Int_Tables_number   1
_chemical_formula_structural   CuH10C22(ClO2)2
_chemical_formula_sum   'Cu12 H120 C264 Cl24 O48'
_cell_volume   22137.08173320
_cell_formula_units_Z   12
loop_
 _symmetry_equiv_pos_site_id
 _symmetry_equiv_pos_as_xyz
  1  'x, y, z'
loop_
 _atom_site_type_symbol
 _atom_site_label
 _atom_site_symmetry_multiplicity
 _atom_site_fract_x
 _atom_site_fract_y
 _atom_site_fract_z
 _atom_site_occupancy
  Cu  Cu1  1  0.50029600  0.55861100  0.50021300  1
  Cu  Cu2  1  0.00310700  0.49525400  0.94148900  1
  Cu  Cu3  1  0.49747200  0.99513000  0.05894400  1
  Cu  Cu4  1  0.50310700  0.99525400  0.94148900  1
  Cu  Cu5  1  0.00029600  0.05861100  0.50021300  1
  Cu  Cu6  1  0.50032600  0.47534500  0.50039900  1
  Cu  Cu7  1  0.00032600  0.97534500  0.50039900  1
  Cu  Cu8  1  0.54029200  0.49495400  0.04344500  1
  Cu  Cu9  1  0.45889600  0.49508400  0.95598100  1
  Cu  Cu10  1  0.04029200  0.99495400  0.04344500  1
  Cu  Cu11  1  0.95889600  0.99508400  0.95598100  1
  Cu  Cu12  1  0.99747200  0.49513000  0.05894400  1
  H  H1  1  0.47619200  0.49602600  0.76837900  1
  H  H2  1  0.49703700  0.54395000  0.28671700  1
  H  H3  1  0.72676100  0.11649400  0.26972800  1
  H  H4  1  0.33254600  0.01694100  0.69020200  1
  H  H5  1  0.36828100  0.14268000  0.68923300  1
  H  H6  1  0.31715900  0.16735100  0.71573900  1
  H  H7  1  0.27426100  0.11700400  0.73094500  1
  H  H8  1  0.48621400  0.27224400  0.15001100  1
  H  H9  1  0.38061800  0.34842000  0.08636800  1
  H  H10  1  0.36253100  0.34994200  0.95786400  1
  H  H11  1  0.40604500  0.31234100  0.92543600  1
  H  H12  1  0.51285100  0.27226300  0.84948200  1
  H  H13  1  0.00510500  0.04446100  0.71518900  1
  H  H14  1  0.61823500  0.34860600  0.91247500  1
  H  H15  1  0.63636700  0.35041000  0.04100500  1
  H  H16  1  0.59301200  0.31280900  0.07378500  1
  H  H17  1  0.98621400  0.77224400  0.15001100  1
  H  H18  1  0.88061800  0.84842000  0.08636800  1
  H  H19  1  0.86253100  0.84994200  0.95786400  1
  H  H20  1  0.90604500  0.81234100  0.92543600  1
  H  H21  1  0.01285100  0.77226300  0.84948200  1
  H  H22  1  0.11823500  0.84860600  0.91247500  1
  H  H23  1  0.13636700  0.85041000  0.04100600  1
  H  H24  1  0.99703700  0.04395000  0.28671700  1
  H  H25  1  0.09301200  0.81280900  0.07378600  1
  H  H26  1  0.28283600  0.56133700  0.36467500  1
  H  H27  1  0.71802300  0.56202400  0.63570400  1
  H  H28  1  0.78283600  0.06133700  0.36467500  1
  H  H29  1  0.21802300  0.06202400  0.63570400  1
  H  H30  1  0.44852000  0.70617600  0.88667700  1
  H  H31  1  0.55145700  0.70603600  0.11269100  1
  H  H32  1  0.94852000  0.20617600  0.88667700  1
  H  H33  1  0.52310700  0.49621900  0.23099800  1
  H  H34  1  0.05145700  0.20603600  0.11269000  1
  H  H35  1  0.94865900  0.28305200  0.88675200  1
  H  H36  1  0.05160400  0.28291100  0.11276000  1
  H  H37  1  0.44865900  0.78305200  0.88675200  1
  H  H38  1  0.55160400  0.78291100  0.11276000  1
  H  H39  1  0.59848700  0.42814300  0.87951100  1
  H  H40  1  0.69326900  0.49681600  0.06666400  1
  H  H41  1  0.64713400  0.55818600  0.02522900  1
  H  H42  1  0.57663000  0.55449900  0.91164600  1
  H  H43  1  0.40088400  0.42889200  0.11955400  1
  H  H44  1  0.97619200  0.99602600  0.76837900  1
  H  H45  1  0.30614300  0.49759800  0.93239900  1
  H  H46  1  0.35213400  0.55909200  0.97428700  1
  H  H47  1  0.42255800  0.55544900  0.08811400  1
  H  H48  1  0.09848700  0.92814300  0.87951100  1
  H  H49  1  0.19326900  0.99681600  0.06666400  1
  H  H50  1  0.14713400  0.05818600  0.02522900  1
  H  H51  1  0.07663000  0.05449900  0.91164600  1
  H  H52  1  0.90088400  0.92889200  0.11955400  1
  H  H53  1  0.80614300  0.99759800  0.93239900  1
  H  H54  1  0.85213500  0.05909200  0.97428700  1
  H  H55  1  0.02310700  0.99621900  0.23099900  1
  H  H56  1  0.92255800  0.05544900  0.08811400  1
  H  H57  1  0.89172600  0.71726400  0.92799800  1
  H  H58  1  0.87502000  0.63961700  0.06963200  1
  H  H59  1  0.95089900  0.64010700  0.16228800  1
  H  H60  1  0.99722500  0.67921000  0.13796400  1
  H  H61  1  0.10784500  0.71791100  0.07184600  1
  H  H62  1  0.12489300  0.64039300  0.93048900  1
  H  H63  1  0.04899500  0.64040000  0.83797600  1
  H  H64  1  0.00248800  0.67920500  0.86222300  1
  H  H65  1  0.39172600  0.21726400  0.92799800  1
  H  H66  1  0.55155400  0.46228300  0.73886300  1
  H  H67  1  0.37502000  0.13961700  0.06963200  1
  H  H68  1  0.45089900  0.14010700  0.16228800  1
  H  H69  1  0.49722600  0.17921000  0.13796400  1
  H  H70  1  0.60784500  0.21791100  0.07184600  1
  H  H71  1  0.62489300  0.14039300  0.93048900  1
  H  H72  1  0.54899500  0.14040000  0.83797600  1
  H  H73  1  0.50248800  0.17920500  0.86222300  1
  H  H74  1  0.32329600  0.41594400  0.35313700  1
  H  H75  1  0.37651800  0.37997100  0.23279300  1
  H  H76  1  0.33547600  0.43437200  0.14021600  1
  H  H77  1  0.44619600  0.46450300  0.25965600  1
  H  H78  1  0.28832900  0.47948400  0.15346400  1
  H  H79  1  0.67732400  0.41646700  0.64758300  1
  H  H80  1  0.62345300  0.38163000  0.76736700  1
  H  H81  1  0.66440800  0.43629900  0.85942500  1
  H  H82  1  0.71185800  0.48092700  0.84623800  1
  H  H83  1  0.82329600  0.91594400  0.35313700  1
  H  H84  1  0.87651800  0.87997200  0.23279300  1
  H  H85  1  0.83547600  0.93437200  0.14021600  1
  H  H86  1  0.78832900  0.97948400  0.15346300  1
  H  H87  1  0.17732400  0.91646700  0.64758300  1
  H  H88  1  0.05155400  0.96228300  0.73886300  1
  H  H89  1  0.12345300  0.88163100  0.76736700  1
  H  H90  1  0.16440900  0.93629900  0.85942500  1
  H  H91  1  0.21185800  0.98092700  0.84623800  1
  H  H92  1  0.23318300  0.39236400  0.23675300  1
  H  H93  1  0.16553800  0.35777100  0.00864500  1
  H  H94  1  0.15937300  0.43179300  0.97343900  1
  H  H95  1  0.19043900  0.48609900  0.06974500  1
  H  H96  1  0.76712400  0.39292800  0.76351000  1
  H  H97  1  0.83443600  0.35835400  0.99160400  1
  H  H98  1  0.84076500  0.43239500  0.02678300  1
  H  H99  1  0.94619600  0.96450300  0.25965600  1
  H  H100  1  0.80995100  0.48670400  0.93046700  1
  H  H101  1  0.73318300  0.89236400  0.23675300  1
  H  H102  1  0.66553800  0.85777100  0.00864500  1
  H  H103  1  0.65937300  0.93179300  0.97343900  1
  H  H104  1  0.69043900  0.98609900  0.06974500  1
  H  H105  1  0.26712400  0.89292800  0.76351000  1
  H  H106  1  0.33443600  0.85835400  0.99160400  1
  H  H107  1  0.34076500  0.93239500  0.02678300  1
  H  H108  1  0.30995100  0.98670400  0.93046700  1
  H  H109  1  0.16823100  0.51661600  0.31032500  1
  H  H110  1  0.50510500  0.54446100  0.71518900  1
  H  H111  1  0.13298100  0.64247100  0.31191800  1
  H  H112  1  0.18410400  0.66697900  0.28530000  1
  H  H113  1  0.22676100  0.61649400  0.26972800  1
  H  H114  1  0.83254600  0.51694100  0.69020200  1
  H  H115  1  0.86828100  0.64268000  0.68923300  1
  H  H116  1  0.81715900  0.66735100  0.71573900  1
  H  H117  1  0.77426100  0.61700400  0.73094500  1
  H  H118  1  0.66823100  0.01661600  0.31032500  1
  H  H119  1  0.63298100  0.14247100  0.31191800  1
  H  H120  1  0.68410400  0.16697900  0.28530100  1
  C  C1  1  0.42068000  0.51659800  0.43637400  1
  C  C2  1  0.45854000  0.49011600  0.17830200  1
  C  C3  1  0.50014000  0.12009600  0.00032800  1
  C  C4  1  0.97125200  0.26613000  0.93638900  1
  C  C5  1  0.02895800  0.26605100  0.06308300  1
  C  C6  1  0.47125200  0.76613000  0.93638900  1
  C  C7  1  0.52895800  0.76605100  0.06308300  1
  C  C8  1  0.00014400  0.28764200  0.99975700  1
  C  C9  1  0.50014400  0.78764200  0.99975700  1
  C  C10  1  0.52887500  0.72295800  0.06304400  1
  C  C11  1  0.47117200  0.72303600  0.93634800  1
  C  C12  1  0.02887500  0.22295800  0.06304400  1
  C  C13  1  0.04066200  0.98920300  0.82125800  1
  C  C14  1  0.97117200  0.22303600  0.93634800  1
  C  C15  1  0.49998100  0.70144500  0.99967900  1
  C  C16  1  0.99998100  0.20144500  0.99967900  1
  C  C17  1  0.00020300  0.33249100  0.99982500  1
  C  C18  1  0.50020300  0.83249100  0.99982500  1
  C  C19  1  0.49988500  0.65659600  0.99965400  1
  C  C20  1  0.99988500  0.15659600  0.99965400  1
  C  C21  1  0.49980800  0.61893700  0.99964800  1
  C  C22  1  0.99980800  0.11893700  0.99964800  1
  C  C23  1  0.00024300  0.37015100  0.99990300  1
  C  C24  1  0.95854000  0.99011600  0.17830200  1
  C  C25  1  0.50024300  0.87015100  0.99990300  1
  C  C26  1  0.58285900  0.49085300  0.88910800  1
  C  C27  1  0.60910300  0.45669600  0.91151300  1
  C  C28  1  0.64867200  0.45881200  0.97570900  1
  C  C29  1  0.66225600  0.49520800  0.01654600  1
  C  C30  1  0.63640500  0.52957900  0.99339000  1
  C  C31  1  0.59682500  0.52744500  0.92969800  1
  C  C32  1  0.41637900  0.49174100  0.11038500  1
  C  C33  1  0.39023100  0.45749400  0.08769100  1
  C  C34  1  0.35072000  0.45957900  0.02335100  1
  C  C35  1  0.50602800  0.49439400  0.82127600  1
  C  C36  1  0.33710600  0.49602000  0.98264500  1
  C  C37  1  0.36287800  0.53046100  0.00605300  1
  C  C38  1  0.40240500  0.52835800  0.06988300  1
  C  C39  1  0.08285900  0.99085200  0.88910800  1
  C  C40  1  0.10910300  0.95669600  0.91151300  1
  C  C41  1  0.14867200  0.95881200  0.97570900  1
  C  C42  1  0.16225600  0.99520800  0.01654600  1
  C  C43  1  0.13640500  0.02957900  0.99339000  1
  C  C44  1  0.09682500  0.02744500  0.92969800  1
  C  C45  1  0.91637900  0.99174100  0.11038500  1
  C  C46  1  0.49320500  0.49480100  0.17819600  1
  C  C47  1  0.89023100  0.95749400  0.08769100  1
  C  C48  1  0.85072000  0.95957900  0.02335100  1
  C  C49  1  0.83710700  0.99602000  0.98264500  1
  C  C50  1  0.86287800  0.03046100  0.00605300  1
  C  C51  1  0.90240500  0.02835800  0.06988300  1
  C  C52  1  0.94734900  0.70068600  0.03145700  1
  C  C53  1  0.90476100  0.70043500  0.97961400  1
  C  C54  1  0.87881700  0.67848800  0.99328900  1
  C  C55  1  0.89537800  0.65683100  0.05891500  1
  C  C56  1  0.93791300  0.65707900  0.11082800  1
  C  C57  1  0.00602800  0.99439300  0.82127600  1
  C  C58  1  0.96389400  0.67894800  0.09711500  1
  C  C59  1  0.05228000  0.70098400  0.96855900  1
  C  C60  1  0.09487900  0.70100100  0.02032500  1
  C  C61  1  0.12092500  0.67922700  0.00668500  1
  C  C62  1  0.10445500  0.65747000  0.94117800  1
  C  C63  1  0.06191000  0.65744800  0.88934500  1
  C  C64  1  0.03582800  0.67914900  0.90301700  1
  C  C65  1  0.44734900  0.20068600  0.03145700  1
  C  C66  1  0.40476100  0.20043500  0.97961400  1
  C  C67  1  0.37881700  0.17848800  0.99328900  1
  C  C68  1  0.99320500  0.99480100  0.17819600  1
  C  C69  1  0.39537800  0.15683100  0.05891500  1
  C  C70  1  0.43791300  0.15707900  0.11082800  1
  C  C71  1  0.46389400  0.17894800  0.09711500  1
  C  C72  1  0.55228000  0.20098400  0.96855900  1
  C  C73  1  0.59487900  0.20100100  0.02032500  1
  C  C74  1  0.62092500  0.17922700  0.00668400  1
  C  C75  1  0.60445500  0.15747000  0.94117800  1
  C  C76  1  0.56191000  0.15744800  0.88934500  1
  C  C77  1  0.53582800  0.17914900  0.90301700  1
  C  C78  1  0.30267000  0.45035500  0.25388200  1
  C  C79  1  0.53620900  0.48697600  0.74954700  1
  C  C80  1  0.32580700  0.41987500  0.30608600  1
  C  C81  1  0.35222300  0.39453100  0.29841300  1
  C  C82  1  0.35566300  0.39968900  0.23870700  1
  C  C83  1  0.33259600  0.43012700  0.18664800  1
  C  C84  1  0.30607600  0.45539000  0.19407300  1
  C  C85  1  0.69775900  0.45129300  0.74635600  1
  C  C86  1  0.67466600  0.42068300  0.69442100  1
  C  C87  1  0.64809400  0.39558600  0.70208100  1
  C  C88  1  0.64444200  0.40114000  0.76148000  1
  C  C89  1  0.66746200  0.43171900  0.81325500  1
  C  C90  1  0.46289900  0.48814300  0.24999100  1
  C  C91  1  0.69415100  0.45671700  0.80586500  1
  C  C92  1  0.80267000  0.95035500  0.25388200  1
  C  C93  1  0.82580700  0.91987500  0.30608600  1
  C  C94  1  0.85222300  0.89453100  0.29841300  1
  C  C95  1  0.85566300  0.89968900  0.23870700  1
  C  C96  1  0.83259600  0.93012700  0.18664800  1
  C  C97  1  0.80607600  0.95539000  0.19407300  1
  C  C98  1  0.19775900  0.95129400  0.74635600  1
  C  C99  1  0.17466600  0.92068300  0.69442100  1
  C  C100  1  0.14809400  0.89558600  0.70208100  1
  C  C101  1  0.03620900  0.98697600  0.74954700  1
  C  C102  1  0.14444200  0.90114000  0.76148100  1
  C  C103  1  0.16746200  0.93171900  0.81325600  1
  C  C104  1  0.19415100  0.95671700  0.80586500  1
  C  C105  1  0.21352700  0.44267700  0.15932200  1
  C  C106  1  0.21697900  0.40110500  0.17893100  1
  C  C107  1  0.19978200  0.37065500  0.12484600  1
  C  C108  1  0.17901500  0.38166900  0.05103500  1
  C  C109  1  0.17553400  0.42315400  0.03130000  1
  C  C110  1  0.19283900  0.45361900  0.08535000  1
  C  C111  1  0.78683900  0.44325900  0.84091800  1
  C  C112  1  0.58000300  0.51727500  0.56425100  1
  C  C113  1  0.96289900  0.98814300  0.24999100  1
  C  C114  1  0.78329200  0.40167700  0.82132300  1
  C  C115  1  0.80034900  0.37122700  0.87541200  1
  C  C116  1  0.82106800  0.38225100  0.94921100  1
  C  C117  1  0.82464200  0.42374700  0.96893100  1
  C  C118  1  0.80747800  0.45421300  0.91487700  1
  C  C119  1  0.71352800  0.94267700  0.15932200  1
  C  C120  1  0.71697900  0.90110500  0.17893100  1
  C  C121  1  0.69978200  0.87065500  0.12484600  1
  C  C122  1  0.67901500  0.88166900  0.05103500  1
  C  C123  1  0.67553400  0.92315400  0.03130000  1
  C  C124  1  0.51598800  0.51743100  0.70029400  1
  C  C125  1  0.69283900  0.95361900  0.08535000  1
  C  C126  1  0.28683900  0.94325900  0.84091800  1
  C  C127  1  0.28329200  0.90167700  0.82132300  1
  C  C128  1  0.30034900  0.87122700  0.87541200  1
  C  C129  1  0.32106800  0.88225100  0.94921200  1
  C  C130  1  0.32464200  0.92374800  0.96893100  1
  C  C131  1  0.30747800  0.95421300  0.91487700  1
  C  C132  1  0.19973800  0.56319900  0.28755400  1
  C  C133  1  0.17148500  0.54958900  0.30380000  1
  C  C134  1  0.14744200  0.57802500  0.31222600  1
  C  C135  1  0.48466900  0.51769100  0.30042900  1
  C  C136  1  0.15186000  0.62018200  0.30534300  1
  C  C137  1  0.18053200  0.63391000  0.29047600  1
  C  C138  1  0.20458000  0.60549900  0.28197700  1
  C  C139  1  0.80114000  0.56362400  0.71300700  1
  C  C140  1  0.82939400  0.54992300  0.69682700  1
  C  C141  1  0.85357400  0.57828200  0.68861000  1
  C  C142  1  0.84929300  0.62045200  0.69564000  1
  C  C143  1  0.82062100  0.63427200  0.71044300  1
  C  C144  1  0.79643700  0.60593800  0.71873400  1
  C  C145  1  0.69973800  0.06319900  0.28755400  1
  C  C146  1  0.01598800  0.01743100  0.70029400  1
  C  C147  1  0.67148500  0.04958800  0.30380000  1
  C  C148  1  0.64744300  0.07802500  0.31222600  1
  C  C149  1  0.65186100  0.12018200  0.30534300  1
  C  C150  1  0.68053200  0.13391000  0.29047600  1
  C  C151  1  0.70458000  0.10549900  0.28197700  1
  C  C152  1  0.30114000  0.06362400  0.71300700  1
  C  C153  1  0.32939400  0.04992300  0.69682700  1
  C  C154  1  0.35357400  0.07828200  0.68861000  1
  C  C155  1  0.34929300  0.12045200  0.69563900  1
  C  C156  1  0.32062100  0.13427200  0.71044300  1
  C  C157  1  0.98466900  0.01769100  0.30042900  1
  C  C158  1  0.29643700  0.10593800  0.71873300  1
  C  C159  1  0.44892300  0.29003100  0.03573500  1
  C  C160  1  0.45902800  0.28929600  0.10771700  1
  C  C161  1  0.43452100  0.31033200  0.12582100  1
  C  C162  1  0.39986300  0.33210900  0.07204700  1
  C  C163  1  0.38975200  0.33295800  0.00014400  1
  C  C164  1  0.41423700  0.31193900  0.98197900  1
  C  C165  1  0.55014500  0.29028300  0.96363900  1
  C  C166  1  0.53998900  0.28943100  0.89163000  1
  C  C167  1  0.56441400  0.31045500  0.87333300  1
  C  C168  1  0.23256100  0.47496100  0.21677400  1
  C  C169  1  0.59903800  0.33233800  0.92694200  1
  C  C170  1  0.60917700  0.33333333  0.99885800  1
  C  C171  1  0.58477700  0.31232500  0.01721800  1
  C  C172  1  0.94892300  0.79003100  0.03573500  1
  C  C173  1  0.95902800  0.78929600  0.10771700  1
  C  C174  1  0.93452100  0.81033200  0.12582100  1
  C  C175  1  0.89986200  0.83210900  0.07204600  1
  C  C176  1  0.88975200  0.83295800  0.00014400  1
  C  C177  1  0.91423700  0.81193900  0.98197900  1
  C  C178  1  0.05014500  0.79028300  0.96363900  1
  C  C179  1  0.76795300  0.47554400  0.78346100  1
  C  C180  1  0.03998900  0.78943100  0.89163000  1
  C  C181  1  0.06441400  0.81045500  0.87333300  1
  C  C182  1  0.09903800  0.83233800  0.92694200  1
  C  C183  1  0.10917700  0.83333600  0.99885800  1
  C  C184  1  0.08477700  0.81232500  0.01721800  1
  C  C185  1  0.73256100  0.97496100  0.21677400  1
  C  C186  1  0.26795300  0.97554400  0.78346100  1
  C  C187  1  0.20746700  0.50238500  0.22482300  1
  C  C188  1  0.92068000  0.01659800  0.43637400  1
  C  C189  1  0.79315600  0.50285100  0.77550200  1
  C  C190  1  0.70746700  0.00238500  0.22482300  1
  C  C191  1  0.29315600  0.00285100  0.77550200  1
  C  C192  1  0.22555700  0.53330800  0.27865800  1
  C  C193  1  0.77519400  0.53381800  0.72172800  1
  C  C194  1  0.72555700  0.03330800  0.27865900  1
  C  C195  1  0.27519400  0.03381800  0.72172800  1
  C  C196  1  0.26855000  0.53694900  0.32327900  1
  C  C197  1  0.73221200  0.53760200  0.67704900  1
  C  C198  1  0.76855000  0.03694900  0.32327900  1
  C  C199  1  0.08000300  0.01727500  0.56425100  1
  C  C200  1  0.23221200  0.03760200  0.67704900  1
  C  C201  1  0.29351000  0.50929000  0.31589700  1
  C  C202  1  0.70714700  0.51004900  0.68435000  1
  C  C203  1  0.79351000  0.00929000  0.31589700  1
  C  C204  1  0.20714800  0.01004900  0.68435000  1
  C  C205  1  0.27562300  0.47811600  0.26311000  1
  C  C206  1  0.72491400  0.47885000  0.73709000  1
  C  C207  1  0.77562300  0.97811600  0.26311000  1
  C  C208  1  0.22491400  0.97885000  0.73709000  1
  C  C209  1  0.16268300  0.49935600  0.17578400  1
  C  C210  1  0.51062400  0.51680000  0.62806000  1
  C  C211  1  0.83792200  0.49966400  0.82460200  1
  C  C212  1  0.66268300  0.99935600  0.17578400  1
  C  C213  1  0.33792200  0.99966400  0.82460200  1
  C  C214  1  0.33822900  0.51375200  0.36072300  1
  C  C215  1  0.66244100  0.51461400  0.63953000  1
  C  C216  1  0.83822900  0.01375200  0.36072300  1
  C  C217  1  0.16244100  0.01461400  0.63953000  1
  C  C218  1  0.37586000  0.51593300  0.39636000  1
  C  C219  1  0.62481200  0.51677400  0.60400000  1
  C  C220  1  0.87586000  0.01593300  0.39636000  1
  C  C221  1  0.48999700  0.51723900  0.37264600  1
  C  C222  1  0.12481200  0.01677400  0.60400000  1
  C  C223  1  0.12512000  0.49730800  0.13486500  1
  C  C224  1  0.87547300  0.49748400  0.86556300  1
  C  C225  1  0.62512000  0.99730800  0.13486500  1
  C  C226  1  0.37547300  0.99748400  0.86556300  1
  C  C227  1  0.49946900  0.41598300  0.99974700  1
  C  C228  1  0.99946900  0.91598300  0.99974700  1
  C  C229  1  0.50473000  0.49554300  0.88782000  1
  C  C230  1  0.49446600  0.49579400  0.11161100  1
  C  C231  1  0.00473000  0.99554300  0.88782000  1
  C  C232  1  0.01062400  0.01680000  0.62806000  1
  C  C233  1  0.99446600  0.99579400  0.11161100  1
  C  C234  1  0.49972600  0.57409100  0.99965800  1
  C  C235  1  0.99972600  0.07409100  0.99965800  1
  C  C236  1  0.00027500  0.41500000  0.00002500  1
  C  C237  1  0.50027500  0.91500000  0.00002500  1
  C  C238  1  0.08033400  0.49580400  0.08634900  1
  C  C239  1  0.92025100  0.49585300  0.91408700  1
  C  C240  1  0.58033400  0.99580400  0.08634900  1
  C  C241  1  0.42025100  0.99585300  0.91408700  1
  C  C242  1  0.00026900  0.57534300  0.00037500  1
  C  C243  1  0.98999700  0.01723900  0.37264600  1
  C  C244  1  0.50026900  0.07534300  0.00037500  1
  C  C245  1  0.97476800  0.72392500  0.01661900  1
  C  C246  1  0.02475300  0.72406600  0.98332800  1
  C  C247  1  0.47476800  0.22392500  0.01661900  1
  C  C248  1  0.52475300  0.22406600  0.98332800  1
  C  C249  1  0.99984300  0.70253700  0.00007700  1
  C  C250  1  0.49984300  0.20253700  0.00007700  1
  C  C251  1  0.52466000  0.26725700  0.98322700  1
  C  C252  1  0.47458000  0.26712100  0.01639100  1
  C  C253  1  0.02466000  0.76725700  0.98322700  1
  C  C254  1  0.54066200  0.48920300  0.82125800  1
  C  C255  1  0.97458000  0.76712100  0.01639100  1
  C  C256  1  0.49956200  0.28870000  0.99975200  1
  C  C257  1  0.99956200  0.78870000  0.99975200  1
  C  C258  1  0.00000300  0.65771200  0.00023600  1
  C  C259  1  0.50000300  0.15771200  0.00023600  1
  C  C260  1  0.49947600  0.33356100  0.99970100  1
  C  C261  1  0.99947600  0.83356100  0.99970100  1
  C  C262  1  0.49944500  0.37119600  0.99970100  1
  C  C263  1  0.99944500  0.87119600  0.99970100  1
  C  C264  1  0.00014000  0.62009600  0.00032800  1
  Cl  Cl1  1  0.68197000  0.41543000  0.00594600  1
  Cl  Cl2  1  0.61869300  0.35691900  0.63600300  1
  Cl  Cl3  1  0.88167600  0.85603300  0.36483400  1
  Cl  Cl4  1  0.11869300  0.85691900  0.63600400  1
  Cl  Cl5  1  0.20442100  0.31795300  0.14994300  1
  Cl  Cl6  1  0.79559300  0.31851100  0.85033200  1
  Cl  Cl7  1  0.70442100  0.81795300  0.14994300  1
  Cl  Cl8  1  0.29559300  0.81851100  0.85033200  1
  Cl  Cl9  1  0.11131900  0.56053900  0.33180100  1
  Cl  Cl10  1  0.88970100  0.56068200  0.66912700  1
  Cl  Cl11  1  0.61131900  0.06053900  0.33180100  1
  Cl  Cl12  1  0.31756800  0.41607500  0.99269200  1
  Cl  Cl13  1  0.38970100  0.06068200  0.66912600  1
  Cl  Cl14  1  0.44732900  0.30933900  0.21710400  1
  Cl  Cl15  1  0.55156700  0.30928100  0.78203300  1
  Cl  Cl16  1  0.94732900  0.80933900  0.21710400  1
  Cl  Cl17  1  0.05156700  0.80928100  0.78203300  1
  Cl  Cl18  1  0.18197000  0.91543000  0.00594700  1
  Cl  Cl19  1  0.81756800  0.91607500  0.99269200  1
  Cl  Cl20  1  0.82484000  0.67796400  0.92707400  1
  Cl  Cl21  1  0.17491800  0.67905700  0.07278700  1
  Cl  Cl22  1  0.32484000  0.17796400  0.92707500  1
  Cl  Cl23  1  0.67491800  0.17905700  0.07278700  1
  Cl  Cl24  1  0.38167600  0.35603300  0.36483500  1
  O  O1  1  0.43969400  0.55259000  0.44742600  1
  O  O2  1  0.49576000  0.55314000  0.40608400  1
  O  O3  1  0.00817900  0.05280200  0.59707900  1
  O  O4  1  0.99576000  0.05314000  0.40608400  1
  O  O5  1  0.50738100  0.48067100  0.59666100  1
  O  O6  1  0.48989600  0.48125600  0.40161500  1
  O  O7  1  0.00738100  0.98067100  0.59666100  1
  O  O8  1  0.98989600  0.98125600  0.40161500  1
  O  O9  1  0.53313200  0.43542500  0.05333500  1
  O  O10  1  0.46585800  0.43549700  0.94616300  1
  O  O11  1  0.03313200  0.93542500  0.05333500  1
  O  O12  1  0.56061600  0.55337900  0.54771400  1
  O  O13  1  0.96585800  0.93549700  0.94616300  1
  O  O14  1  0.53755300  0.48312600  0.95224100  1
  O  O15  1  0.46159100  0.48343200  0.04720000  1
  O  O16  1  0.03755300  0.98312600  0.95224100  1
  O  O17  1  0.96159100  0.98343200  0.04720000  1
  O  O18  1  0.46900800  0.50682400  0.87848000  1
  O  O19  1  0.53022100  0.50690800  0.12093100  1
  O  O20  1  0.96900800  0.00682400  0.87848000  1
  O  O21  1  0.03022100  0.00690800  0.12093100  1
  O  O22  1  0.53478600  0.55450600  0.01994000  1
  O  O23  1  0.93969400  0.05259000  0.44742600  1
  O  O24  1  0.46460100  0.55465500  0.97940900  1
  O  O25  1  0.03478600  0.05450600  0.01994000  1
  O  O26  1  0.96460100  0.05465500  0.97940900  1
  O  O27  1  0.99617100  0.43438700  0.04913600  1
  O  O28  1  0.00439500  0.43449300  0.95101600  1
  O  O29  1  0.49617100  0.93438700  0.04913600  1
  O  O30  1  0.50439500  0.93449300  0.95101600  1
  O  O31  1  0.05848000  0.49369600  0.11613900  1
  O  O32  1  0.94210100  0.49382700  0.88428500  1
  O  O33  1  0.55848000  0.99369600  0.11613900  1
  O  O34  1  0.06061600  0.05337900  0.54771400  1
  O  O35  1  0.44210100  0.99382700  0.88428500  1
  O  O36  1  0.06340000  0.49361500  0.01458700  1
  O  O37  1  0.93717800  0.49353100  0.98583700  1
  O  O38  1  0.56340000  0.99361500  0.01458700  1
  O  O39  1  0.43717800  0.99353100  0.98583700  1
  O  O40  1  0.99608000  0.55587100  0.04920100  1
  O  O41  1  0.00450200  0.55597800  0.95150900  1
  O  O42  1  0.49608000  0.05587100  0.04920100  1
  O  O43  1  0.50450200  0.05597800  0.95150900  1
  O  O44  1  0.44040900  0.48070200  0.45679100  1
  O  O45  1  0.56067300  0.48126400  0.54939100  1
  O  O46  1  0.94040900  0.98070200  0.45679100  1
  O  O47  1  0.06067300  0.98126400  0.54939100  1
  O  O48  1  0.50817900  0.55280200  0.59707900  1
