# generated using pymatgen
data_VH7C16NO7
_symmetry_space_group_name_H-M   'P 1'
_cell_length_a   22.29671300
_cell_length_b   6.15906400
_cell_length_c   21.90097200
_cell_angle_alpha   90.00000000
_cell_angle_beta   105.01110600
_cell_angle_gamma   90.00000000
_symmetry_Int_Tables_number   1
_chemical_formula_structural   VH7C16NO7
_chemical_formula_sum   'V4 H28 C64 N4 O28'
_cell_volume   2904.96004507
_cell_formula_units_Z   4
loop_
 _symmetry_equiv_pos_site_id
 _symmetry_equiv_pos_as_xyz
  1  'x, y, z'
loop_
 _atom_site_type_symbol
 _atom_site_label
 _atom_site_symmetry_multiplicity
 _atom_site_fract_x
 _atom_site_fract_y
 _atom_site_fract_z
 _atom_site_occupancy
  V  V1  1  0.48265200  0.87579400  0.49184700  1
  V  V2  1  0.51734700  0.37579400  0.50815300  1
  V  V3  1  0.01690200  0.31143000  0.01011000  1
  V  V4  1  0.98309800  0.81143000  0.98989000  1
  H  H1  1  0.79995100  0.74298700  0.17218100  1
  H  H2  1  0.20004900  0.24298700  0.82781800  1
  H  H3  1  0.91188100  0.41425600  0.15290300  1
  H  H4  1  0.08811900  0.91425600  0.84709700  1
  H  H5  1  0.84234700  0.40260500  0.22264800  1
  H  H6  1  0.15765300  0.90260500  0.77735200  1
  H  H7  1  0.67010900  0.72862800  0.29832200  1
  H  H8  1  0.32989100  0.22862800  0.70167800  1
  H  H9  1  0.59958400  0.73770500  0.36843600  1
  H  H10  1  0.40041600  0.23770500  0.63156400  1
  H  H11  1  0.65458900  0.38968800  0.41895000  1
  H  H12  1  0.34541100  0.88968800  0.58105000  1
  H  H13  1  0.72479700  0.38053300  0.34935400  1
  H  H14  1  0.27520300  0.88053300  0.65064600  1
  H  H15  1  0.56230900  0.74300600  0.67970700  1
  H  H16  1  0.43769100  0.24300600  0.32029300  1
  H  H17  1  0.72980700  0.67388400  0.85544800  1
  H  H18  1  0.27019300  0.17388400  0.14455200  1
  H  H19  1  0.63604600  0.62894200  0.77837800  1
  H  H20  1  0.36395400  0.12894200  0.22162200  1
  H  H21  1  0.67859900  0.26778600  0.66231100  1
  H  H22  1  0.32140100  0.76778600  0.33768900  1
  H  H23  1  0.92976100  0.44617900  0.82830200  1
  H  H24  1  0.07023900  0.94617900  0.17169800  1
  H  H25  1  0.75807300  0.40531000  0.69155800  1
  H  H26  1  0.24192700  0.90531000  0.30844200  1
  H  H27  1  0.82766300  0.85758100  0.89627000  1
  H  H28  1  0.17233700  0.35758100  0.10373000  1
  C  C1  1  0.42586400  0.57423700  0.39313300  1
  C  C2  1  0.57413600  0.07423700  0.60686700  1
  C  C3  1  0.42073200  0.58441100  0.56256200  1
  C  C4  1  0.57926800  0.08441100  0.43743700  1
  C  C5  1  0.82307300  0.89285000  0.16631100  1
  C  C6  1  0.17692700  0.39285000  0.83368900  1
  C  C7  1  0.86298400  0.89825400  0.12766000  1
  C  C8  1  0.13701600  0.39825400  0.87234000  1
  C  C9  1  0.89229100  0.09045700  0.11910400  1
  C  C10  1  0.10770900  0.59045700  0.88089600  1
  C  C11  1  0.88583900  0.26944200  0.15478600  1
  C  C12  1  0.11416100  0.76944200  0.84521400  1
  C  C13  1  0.84717200  0.26159700  0.19491700  1
  C  C14  1  0.15282800  0.76159700  0.80508300  1
  C  C15  1  0.81489100  0.07419000  0.19985700  1
  C  C16  1  0.18510900  0.57419000  0.80014300  1
  C  C17  1  0.77498600  0.06382800  0.24190000  1
  C  C18  1  0.22501300  0.56382800  0.75810000  1
  C  C19  1  0.74155200  0.05619700  0.27725100  1
  C  C20  1  0.25844800  0.55619700  0.72274900  1
  C  C21  1  0.66708200  0.87324500  0.32533200  1
  C  C22  1  0.33291700  0.37324500  0.67466800  1
  C  C23  1  0.62759200  0.87799600  0.36480400  1
  C  C24  1  0.37240800  0.37799600  0.63519600  1
  C  C25  1  0.62306000  0.06433400  0.39836700  1
  C  C26  1  0.37694000  0.56433400  0.60163300  1
  C  C27  1  0.65847300  0.24333200  0.39300100  1
  C  C28  1  0.34152700  0.74333200  0.60699900  1
  C  C29  1  0.69777900  0.23851500  0.35387000  1
  C  C30  1  0.30222100  0.73851500  0.64613000  1
  C  C31  1  0.70188500  0.05439500  0.31960000  1
  C  C32  1  0.29811500  0.55439500  0.68040000  1
  C  C33  1  0.64597600  0.76970600  0.75318000  1
  C  C34  1  0.35402400  0.26970600  0.24682000  1
  C  C35  1  0.61682000  0.01553100  0.66688300  1
  C  C36  1  0.38318000  0.51553100  0.33311700  1
  C  C37  1  0.88561400  0.36557600  0.81047900  1
  C  C38  1  0.11438600  0.86557600  0.18952100  1
  C  C39  1  0.84459800  0.44079300  0.75666200  1
  C  C40  1  0.15540200  0.94079300  0.24333800  1
  C  C41  1  0.78828800  0.33957000  0.73386600  1
  C  C42  1  0.21171200  0.83957000  0.26613400  1
  C  C43  1  0.77211800  0.16182200  0.76519100  1
  C  C44  1  0.22788200  0.66182200  0.23480900  1
  C  C45  1  0.81413400  0.08489800  0.81933700  1
  C  C46  1  0.18586600  0.58489800  0.18066300  1
  C  C47  1  0.71474900  0.05960600  0.74329300  1
  C  C48  1  0.28525100  0.55960600  0.25670700  1
  C  C49  1  0.70086700  0.88089700  0.77539200  1
  C  C50  1  0.29913200  0.38089700  0.22460800  1
  C  C51  1  0.74177200  0.81061200  0.82998000  1
  C  C52  1  0.25822800  0.31061200  0.17002000  1
  C  C53  1  0.79775900  0.91331000  0.85235400  1
  C  C54  1  0.20224100  0.41331000  0.14764600  1
  C  C55  1  0.67110100  0.12997500  0.68946500  1
  C  C56  1  0.32889900  0.62997500  0.31053500  1
  C  C57  1  0.60460800  0.83390800  0.69814000  1
  C  C58  1  0.39539200  0.33390800  0.30186000  1
  C  C59  1  0.87133800  0.18579800  0.84127900  1
  C  C60  1  0.12866200  0.68579800  0.15872100  1
  C  C61  1  0.07015700  0.59418500  0.92710100  1
  C  C62  1  0.92984300  0.09418500  0.07289800  1
  C  C63  1  0.08292100  0.61710100  0.10132200  1
  C  C64  1  0.91707900  0.11710100  0.89867800  1
  N  N1  1  0.86039100  0.62363300  0.72434700  1
  N  N2  1  0.13960900  0.12363300  0.27565300  1
  N  N3  1  0.87587000  0.70084600  0.09957400  1
  N  N4  1  0.12413000  0.20084600  0.90042600  1
  O  O1  1  0.45372900  0.41003400  0.55552000  1
  O  O2  1  0.54627100  0.91003400  0.44448000  1
  O  O3  1  0.42452000  0.77668700  0.41270600  1
  O  O4  1  0.57547900  0.27668700  0.58729400  1
  O  O5  1  0.42131500  0.77825700  0.53673500  1
  O  O6  1  0.57868500  0.27825700  0.46326500  1
  O  O7  1  0.54186300  0.91085200  0.57534800  1
  O  O8  1  0.45813700  0.41085200  0.42465200  1
  O  O9  1  0.53980900  0.63488700  0.51510400  1
  O  O10  1  0.46019100  0.13488700  0.48489600  1
  O  O11  1  0.04844200  0.77500500  0.06937700  1
  O  O12  1  0.95155800  0.27500500  0.93062300  1
  O  O13  1  0.07175700  0.40958900  0.95791400  1
  O  O14  1  0.92824300  0.90958900  0.04208600  1
  O  O15  1  0.08101700  0.41101500  0.08489800  1
  O  O16  1  0.91898300  0.91101500  0.91510200  1
  O  O17  1  0.95970700  0.27557800  0.06475500  1
  O  O18  1  0.04029300  0.77557800  0.93524500  1
  O  O19  1  0.96032200  0.55269000  0.98486400  1
  O  O20  1  0.03967800  0.05269000  0.01513600  1
  O  O21  1  0.91378100  0.71871900  0.74563600  1
  O  O22  1  0.82168500  0.69438400  0.67316700  1
  O  O23  1  0.08621900  0.21871900  0.25436400  1
  O  O24  1  0.17831500  0.19438400  0.32683300  1
  O  O25  1  0.93303000  0.65376200  0.10058800  1
  O  O26  1  0.83519200  0.54514000  0.09139000  1
  O  O27  1  0.06697000  0.15376200  0.89941200  1
  O  O28  1  0.16480800  0.04514000  0.90861000  1
