# generated using pymatgen
data_Zn2H32C45O16
_symmetry_space_group_name_H-M   'P 1'
_cell_length_a   16.11653900
_cell_length_b   16.25549800
_cell_length_c   29.52737100
_cell_angle_alpha   90.52793900
_cell_angle_beta   90.32012500
_cell_angle_gamma   90.57490800
_symmetry_Int_Tables_number   1
_chemical_formula_structural   Zn2H32C45O16
_chemical_formula_sum   'Zn4 H64 C90 O32'
_cell_volume   7734.80798986
_cell_formula_units_Z   2
loop_
 _symmetry_equiv_pos_site_id
 _symmetry_equiv_pos_as_xyz
  1  'x, y, z'
loop_
 _atom_site_type_symbol
 _atom_site_label
 _atom_site_symmetry_multiplicity
 _atom_site_fract_x
 _atom_site_fract_y
 _atom_site_fract_z
 _atom_site_occupancy
  Zn  Zn1  1  0.50456000  0.09281400  0.50030400  1
  Zn  Zn2  1  0.49544000  0.90718700  0.49969700  1
  Zn  Zn3  1  0.09363900  0.50029500  0.00261400  1
  Zn  Zn4  1  0.90636100  0.49970500  0.99738800  1
  H  H1  1  0.12239900  0.32776600  0.10838300  1
  H  H2  1  0.87760100  0.67223400  0.89161800  1
  H  H3  1  0.12789100  0.69975700  0.09653500  1
  H  H4  1  0.87210900  0.30024300  0.90346700  1
  H  H5  1  0.66602900  0.12205800  0.38800800  1
  H  H6  1  0.33397100  0.87794300  0.61199400  1
  H  H7  1  0.17498500  0.13130100  0.35598600  1
  H  H8  1  0.82500900  0.86869600  0.64402000  1
  H  H9  1  0.81365400  0.86903900  0.34774800  1
  H  H10  1  0.18634500  0.13096100  0.65225400  1
  H  H11  1  0.12803400  0.80870600  0.15337500  1
  H  H12  1  0.87196500  0.19129400  0.84662700  1
  H  H13  1  0.86157600  0.19340000  0.15333600  1
  H  H14  1  0.13842400  0.80660000  0.84666600  1
  H  H15  1  0.77364100  0.12483300  0.33067800  1
  H  H16  1  0.22635900  0.87516700  0.66932400  1
  H  H17  1  0.28606900  0.24372800  0.37409500  1
  H  H18  1  0.36666300  0.16793400  0.36585300  1
  H  H19  1  0.37349300  0.23966300  0.41265400  1
  H  H20  1  0.63332900  0.83207300  0.63415300  1
  H  H21  1  0.71391800  0.75627300  0.62591300  1
  H  H22  1  0.62649500  0.76034000  0.58735400  1
  H  H23  1  0.22155100  0.19439700  0.11763800  1
  H  H24  1  0.12653300  0.13395700  0.11531100  1
  H  H25  1  0.20528200  0.11055400  0.15666300  1
  H  H26  1  0.87346600  0.86604300  0.88469100  1
  H  H27  1  0.77844900  0.80560300  0.88236400  1
  H  H28  1  0.79471800  0.88944600  0.84333900  1
  H  H29  1  0.76144800  0.82782600  0.12186800  1
  H  H30  1  0.86460900  0.86823200  0.11188000  1
  H  H31  1  0.80318100  0.91012800  0.15728600  1
  H  H32  1  0.13539100  0.13176800  0.88812200  1
  H  H33  1  0.23855200  0.17217400  0.87813400  1
  H  H34  1  0.19681900  0.08987200  0.84271500  1
  H  H35  1  0.15154600  0.85553900  0.37136300  1
  H  H36  1  0.20611100  0.76494700  0.35247000  1
  H  H37  1  0.11881500  0.80293600  0.32016000  1
  H  H38  1  0.79390200  0.23505200  0.64752500  1
  H  H39  1  0.84846100  0.14445600  0.62863500  1
  H  H40  1  0.88119600  0.19706200  0.67983700  1
  H  H41  1  0.69504400  0.75609600  0.36112800  1
  H  H42  1  0.62658700  0.84243800  0.35270100  1
  H  H43  1  0.60431500  0.76869400  0.39630700  1
  H  H44  1  0.37341400  0.15756200  0.64730000  1
  H  H45  1  0.30495500  0.24390400  0.63887500  1
  H  H46  1  0.39568400  0.23130900  0.60369500  1
  H  H47  1  0.78747800  0.63212100  0.16433200  1
  H  H48  1  0.89222500  0.59478300  0.15750800  1
  H  H49  1  0.80931500  0.55233500  0.12309000  1
  H  H50  1  0.10777500  0.40521700  0.84249400  1
  H  H51  1  0.21252200  0.36788000  0.83567000  1
  H  H52  1  0.19068500  0.44766500  0.87691200  1
  H  H53  1  0.85158300  0.39129700  0.14421200  1
  H  H54  1  0.76447900  0.31993800  0.14711100  1
  H  H55  1  0.76459100  0.40186000  0.10612900  1
  H  H56  1  0.23552100  0.68006200  0.85289100  1
  H  H57  1  0.14841700  0.60870300  0.85579000  1
  H  H58  1  0.23540900  0.59814000  0.89387300  1
  H  H59  1  0.41441200  0.93748100  0.32961400  1
  H  H60  1  0.41200500  0.82730700  0.32062000  1
  H  H61  1  0.47753200  0.87238100  0.36452500  1
  H  H62  1  0.58801900  0.17270100  0.67938300  1
  H  H63  1  0.58558600  0.06252900  0.67038300  1
  H  H64  1  0.52247700  0.12764900  0.63547700  1
  C  C1  1  0.61447700  0.99406500  0.56358300  1
  C  C2  1  0.38552200  0.00593600  0.43641900  1
  C  C3  1  0.61344700  0.99359700  0.43667500  1
  C  C4  1  0.38655200  0.00640400  0.56332700  1
  C  C5  1  0.21269900  0.07739600  0.36068600  1
  C  C6  1  0.78729800  0.92260300  0.63931800  1
  C  C7  1  0.27508100  0.07809900  0.39290000  1
  C  C8  1  0.72491600  0.92190100  0.60710300  1
  C  C9  1  0.77966500  0.92397400  0.35631300  1
  C  C10  1  0.22033400  0.07602600  0.64368900  1
  C  C11  1  0.71778800  0.92088600  0.38846200  1
  C  C12  1  0.28221100  0.07911400  0.61154000  1
  C  C13  1  0.06536300  0.23802200  0.14979300  1
  C  C14  1  0.93463700  0.76197800  0.85020900  1
  C  C15  1  0.06423100  0.29928400  0.11778300  1
  C  C16  1  0.93576900  0.70071600  0.88221800  1
  C  C17  1  0.92289100  0.76917500  0.14924700  1
  C  C18  1  0.07710900  0.23082500  0.85075500  1
  C  C19  1  0.92198600  0.70507500  0.11806000  1
  C  C20  1  0.07801400  0.29492500  0.88194100  1
  C  C21  1  0.07009900  0.77950000  0.14347500  1
  C  C22  1  0.92990100  0.22050000  0.85652700  1
  C  C23  1  0.06953400  0.71765000  0.11128900  1
  C  C24  1  0.93046600  0.28235000  0.88871300  1
  C  C25  1  0.91844200  0.22411200  0.14358500  1
  C  C26  1  0.08155800  0.77588800  0.85641700  1
  C  C27  1  0.91658700  0.28543400  0.11154400  1
  C  C28  1  0.08341300  0.71456700  0.88845800  1
  C  C29  1  0.24280400  0.93830500  0.34157100  1
  C  C30  1  0.75719900  0.06169700  0.65842900  1
  C  C31  1  0.30644700  0.93839100  0.37317900  1
  C  C32  1  0.69355700  0.06161200  0.62682100  1
  C  C33  1  0.75770900  0.06742500  0.34680300  1
  C  C34  1  0.24229000  0.93257600  0.65319800  1
  C  C35  1  0.69705000  0.06544200  0.37947300  1
  C  C36  1  0.30294900  0.93455900  0.62052800  1
  C  C37  1  0.99677600  0.00417300  0.24872100  1
  C  C38  1  0.00322400  0.99582700  0.75128100  1
  C  C39  1  0.19670900  0.00804500  0.33504700  1
  C  C40  1  0.80329000  0.99195500  0.66495500  1
  C  C41  1  0.32160900  0.00763600  0.40029300  1
  C  C42  1  0.67839100  0.99236500  0.59970900  1
  C  C43  1  0.79927900  0.99684000  0.33539100  1
  C  C44  1  0.20072100  0.00316000  0.66461100  1
  C  C45  1  0.67672900  0.99251100  0.40086900  1
  C  C46  1  0.32327100  0.00749000  0.59913300  1
  C  C47  1  0.99234700  0.20074900  0.16284500  1
  C  C48  1  0.00765300  0.79925100  0.83715700  1
  C  C49  1  0.99026500  0.32289100  0.09783000  1
  C  C50  1  0.00973500  0.67710900  0.90217200  1
  C  C51  1  0.99698900  0.80542200  0.16234900  1
  C  C52  1  0.00301100  0.19457800  0.83765300  1
  C  C53  1  0.99566100  0.68030800  0.09786600  1
  C  C54  1  0.00433900  0.31969200  0.90213600  1
  C  C55  1  0.07066000  0.00621300  0.27765000  1
  C  C56  1  0.92933900  0.99378700  0.72235200  1
  C  C57  1  0.99497800  0.07684200  0.21993100  1
  C  C58  1  0.00502200  0.92315800  0.78007100  1
  C  C59  1  0.92379800  0.00205800  0.27786700  1
  C  C60  1  0.07620200  0.99794200  0.72213500  1
  C  C61  1  0.99753100  0.93108000  0.21953700  1
  C  C62  1  0.00246800  0.06892000  0.78046500  1
  C  C63  1  0.12921600  0.00735500  0.30316800  1
  C  C64  1  0.87078300  0.99264500  0.69683400  1
  C  C65  1  0.99760500  0.87282200  0.19405000  1
  C  C66  1  0.00239500  0.12717800  0.80595200  1
  C  C67  1  0.99364900  0.13443100  0.19456500  1
  C  C68  1  0.00635000  0.86556900  0.80543700  1
  C  C69  1  0.86595900  0.99984300  0.30348600  1
  C  C70  1  0.13404100  0.00015700  0.69651500  1
  C  C71  1  0.99748800  0.61555800  0.06263100  1
  C  C72  1  0.00251200  0.38444300  0.93737100  1
  C  C73  1  0.99218900  0.38635800  0.06247500  1
  C  C74  1  0.00781100  0.61364200  0.93752700  1
  C  C75  1  0.33017700  0.20235000  0.39137600  1
  C  C76  1  0.66981300  0.79765300  0.60863100  1
  C  C77  1  0.17475700  0.16099100  0.13805300  1
  C  C78  1  0.82524300  0.83901000  0.86194900  1
  C  C79  1  0.81837300  0.85312900  0.13828500  1
  C  C80  1  0.18162700  0.14687100  0.86171600  1
  C  C81  1  0.17332700  0.82089700  0.34123600  1
  C  C82  1  0.82668200  0.17910200  0.65876100  1
  C  C83  1  0.65471700  0.80151000  0.37826600  1
  C  C84  1  0.34528300  0.19849100  0.62173600  1
  C  C85  1  0.83355600  0.60922400  0.13960800  1
  C  C86  1  0.16644300  0.39077700  0.86039400  1
  C  C87  1  0.80389500  0.35704800  0.12419600  1
  C  C88  1  0.19610500  0.64295200  0.87580600  1
  C  C89  1  0.41729000  0.87693800  0.34652000  1
  C  C90  1  0.58272000  0.12307500  0.65348000  1
  O  O1  1  0.58891800  0.06550500  0.54889300  1
  O  O2  1  0.41108200  0.93449600  0.45110900  1
  O  O3  1  0.58454300  0.92387900  0.45244700  1
  O  O4  1  0.41545600  0.07612200  0.54755500  1
  O  O5  1  0.58788700  0.06530900  0.45146400  1
  O  O6  1  0.41211300  0.93469200  0.54853700  1
  O  O7  1  0.58512100  0.92426600  0.54728600  1
  O  O8  1  0.41487900  0.07573500  0.45271600  1
  O  O9  1  0.07001000  0.58990600  0.04874900  1
  O  O10  1  0.92999000  0.41009400  0.95125300  1
  O  O11  1  0.92233200  0.41158700  0.04462300  1
  O  O12  1  0.07766800  0.58841300  0.95537900  1
  O  O13  1  0.06471000  0.41546000  0.04998700  1
  O  O14  1  0.93529000  0.58454000  0.95001500  1
  O  O15  1  0.92740200  0.58615700  0.04608600  1
  O  O16  1  0.07259800  0.41384300  0.95391600  1
  O  O17  1  0.28662000  0.14750600  0.41885400  1
  O  O18  1  0.71337300  0.85249100  0.58115200  1
  O  O19  1  0.13886900  0.21516800  0.16909400  1
  O  O20  1  0.86113100  0.78483200  0.83090800  1
  O  O21  1  0.85036100  0.79525400  0.16823100  1
  O  O22  1  0.14963900  0.20474600  0.83177100  1
  O  O23  1  0.22714700  0.86957600  0.31567300  1
  O  O24  1  0.77286000  0.13042800  0.68432600  1
  O  O25  1  0.70160400  0.84778200  0.40942900  1
  O  O26  1  0.29839500  0.15221900  0.59057300  1
  O  O27  1  0.84765100  0.66882100  0.10664400  1
  O  O28  1  0.15234900  0.33117900  0.89335800  1
  O  O29  1  0.84194900  0.30558100  0.09255000  1
  O  O30  1  0.15805100  0.69442000  0.90745200  1
  O  O31  1  0.35286500  0.86887500  0.37768600  1
  O  O32  1  0.64714300  0.13113000  0.62231200  1
