# Generated by REPEAT Assigner based on pymatgen
data_DB0-m2_o8_o23_f0_pcu.sym.80
_audit_creation_date              2022-05-24
_audit_creation_method            REPEAT_Assigner
_cell_length_a                    15.555103
_cell_length_b                    15.858508
_cell_length_c                    17.006901
_cell_angle_alpha                 89.992924
_cell_angle_beta                  96.359914
_cell_angle_gamma                 92.799077
_cell_volume                      4164.422235
_symmetry_space_group_name_H-M    P1
_symmetry_Int_Tables_number       1
loop_
    _symmetry_equiv_pos_site_id
    _symmetry_equiv_pos_as_xyz
    1  x,y,z
loop_
    _atom_site_type_symbol
    _atom_site_label
    _atom_site_fract_x
    _atom_site_fract_y
    _atom_site_fract_z
    _atom_type_partial_charge
    O   O1   0.581642  0.505656  0.614129  -0.627302
    O   O2   0.433075  0.499402  0.606830  -0.612447
    C   C1   0.509709  0.500549  0.647559  0.745632
    O   O3   0.575254  0.625099  0.502001  -0.657748
    O   O4   0.426033  0.618816  0.489178  -0.648728
    C   C2   0.500854  0.661218  0.495698  0.949562
    Cu  Cu1  0.586318  0.502985  0.499898  0.912997
    Cu  Cu2  0.413319  0.495754  0.491426  0.913501
    O   O5   0.566563  0.504589  0.384491  -0.593213
    O   O6   0.418035  0.498525  0.377195  -0.608818
    O   O7   0.573496  0.379943  0.502313  -0.645918
    O   O8   0.424546  0.373666  0.489345  -0.656576
    C   C3   0.489917  0.499191  0.343763  0.693765
    C   C4   0.498816  0.337501  0.495966  0.868623
    C   C5   0.586205  0.955967  0.549445  -0.304860
    C   C6   0.423799  0.947976  0.554539  0.487137
    C   C7   0.417445  0.042863  0.538598  -0.291578
    H   H1   0.605394  0.919802  0.603289  0.099845
    H   H2   0.363616  0.914658  0.526912  -0.071359
    H   H3   0.402896  0.079120  0.590324  0.091491
    H   H4   0.363738  0.051959  0.491241  0.065288
    C   C8   0.498674  0.247136  0.499383  -0.280482
    C   C9   0.499501  0.919458  0.510887  0.163108
    C   C10  0.581232  0.050882  0.564830  0.509913
    C   C11  0.501243  0.079304  0.511151  0.245238
    C   C12  0.505955  0.046384  0.428274  -0.087872
    C   C13  0.487450  0.952233  0.426987  -0.046027
    C   C14  0.499568  0.171356  0.504198  -0.152323
    C   C15  0.500588  0.827387  0.503954  -0.068340
    C   C16  0.501143  0.751596  0.499159  -0.365645
    H   H5   0.532721  0.922091  0.390899  0.058960
    H   H6   0.420160  0.937164  0.400195  -0.008680
    H   H7   0.571269  0.061419  0.410105  -0.003694
    H   H8   0.636041  0.946793  0.508783  0.066709
    H   H9   0.639319  0.084159  0.544928  -0.078382
    H   H10  0.457233  0.076448  0.386153  0.060418
    C   C17  0.515372  0.501692  0.734182  -0.189053
    C   C18  0.440983  0.498303  0.771863  -0.086791
    C   C19  0.446104  0.498886  0.853371  -0.138587
    C   C20  0.526438  0.502957  0.898158  0.463485
    C   C21  0.600426  0.506534  0.860324  -0.358274
    C   C22  0.595228  0.505897  0.778929  0.062034
    C   C23  0.553528  0.503552  0.137945  -0.142406
    C   C24  0.558645  0.503340  0.219453  -0.087943
    C   C25  0.473191  0.499862  0.093167  0.466329
    N   N1   0.535225  0.503344  0.981853  -0.239370
    N   N2   0.464399  0.499670  0.009469  -0.239591
    C   C26  0.484255  0.499540  0.257138  -0.162042
    H   H11  0.621861  0.506132  0.253098  0.132385
    H   H12  0.613749  0.506575  0.111642  0.063872
    H   H13  0.663152  0.509715  0.894899  0.138655
    H   H14  0.654479  0.508622  0.751126  0.097274
    C   C27  0.404397  0.495872  0.212391  0.062949
    C   C28  0.399206  0.496053  0.131005  -0.364521
    H   H15  0.345137  0.492680  0.240184  0.098664
    H   H16  0.385888  0.495978  0.879668  0.063192
    H   H17  0.336473  0.493091  0.096445  0.140120
    H   H18  0.377765  0.494965  0.738220  0.129529
    N   N3   0.284052  0.490507  0.485110  -0.119973
    C   C29  0.244706  0.538165  0.534600  -0.020428
    C   C30  0.155679  0.534421  0.532467  -0.172259
    C   C31  0.106537  0.479826  0.479755  0.496078
    C   C32  0.148436  0.429515  0.431774  -0.398398
    C   C33  0.237492  0.435022  0.435546  0.149140
    C   C34  0.843986  0.464142  0.458960  -0.180618
    C   C35  0.754927  0.460835  0.456503  0.001579
    C   C36  0.893216  0.518052  0.512255  0.493893
    N   N4   0.014983  0.473894  0.473610  -0.232307
    N   N5   0.984767  0.523852  0.518470  -0.225073
    N   N6   0.715645  0.508363  0.506142  -0.121669
    H   H19  0.716612  0.418711  0.414984  0.134394
    H   H20  0.872303  0.423970  0.418488  0.076000
    H   H21  0.111358  0.385890  0.390829  0.150133
    H   H22  0.269775  0.395436  0.397496  0.112161
    C   C37  0.762359  0.562768  0.556693  0.128704
    C   C38  0.851419  0.567928  0.560684  -0.390537
    H   H23  0.730205  0.602051  0.595098  0.127153
    H   H24  0.127334  0.574891  0.572674  0.070449
    H   H25  0.888586  0.610964  0.602138  0.146194
    H   H26  0.282891  0.580871  0.575649  0.150176
    N   N7   0.580665  0.066753  0.649724  -0.349504
    C   C39  0.658631  0.039900  0.695531  0.036761
    C   C40  0.565266  0.151854  0.673415  -0.134498
    H   H27  0.707351  0.021524  0.656666  -0.016829
    H   H28  0.642086  0.985930  0.733478  0.013670
    H   H29  0.689888  0.091815  0.733747  0.035694
    H   H30  0.498156  0.168756  0.654849  0.080984
    H   H31  0.612408  0.197345  0.649918  0.045176
    H   H32  0.571615  0.156591  0.738913  0.083091
    N   N8   0.431875  0.932257  0.639965  -0.326904
    C   C41  0.449454  0.847198  0.665621  -0.152758
    C   C42  0.357510  0.959162  0.675961  0.033689
    H   H33  0.515313  0.830297  0.655655  0.078001
    H   H34  0.399987  0.801654  0.635746  0.045474
    H   H35  0.448847  0.842551  0.730658  0.087810
    H   H36  0.305072  0.977470  0.630586  -0.016462
    H   H37  0.377495  0.013192  0.716398  0.011992
    H   H38  0.329451  0.907288  0.710210  0.037710
