# Generated by REPEAT Assigner based on pymatgen
data_DB0-m3_o2_o9_f0_pcu.sym.83_sqe
_audit_creation_date              2022-05-24
_audit_creation_method            REPEAT_Assigner
_cell_length_a                    11.142247
_cell_length_b                    15.246354
_cell_length_c                    14.017775
_cell_angle_alpha                 90.004959
_cell_angle_beta                  90.000293
_cell_angle_gamma                 89.993564
_cell_volume                      2381.320536
_symmetry_space_group_name_H-M    P1
_symmetry_Int_Tables_number       1
loop_
    _symmetry_equiv_pos_site_id
    _symmetry_equiv_pos_as_xyz
    1  x,y,z
loop_
    _atom_site_type_symbol
    _atom_site_label
    _atom_site_fract_x
    _atom_site_fract_y
    _atom_site_fract_z
    _atom_type_partial_charge
    O   O1   0.507264  0.378234  0.579603  -0.657848
    O   O2   0.499244  0.642910  0.420516  -0.683934
    O   O3   0.508446  0.381562  0.416182  -0.665730
    O   O4   0.498202  0.639587  0.584333  -0.623811
    C   C1   0.509191  0.338160  0.496816  0.776693
    C   C2   0.496669  0.682568  0.503449  0.705603
    O   O5   0.324150  0.505710  0.579012  -0.676979
    O   O6   0.682207  0.515728  0.421488  -0.640700
    O   O7   0.324612  0.509020  0.415854  -0.705062
    O   O8   0.681742  0.512146  0.584388  -0.643153
    C   C3   0.266054  0.505594  0.497291  0.858097
    C   C4   0.740439  0.514798  0.503068  0.803207
    Zn  Zn1  0.502283  0.508515  0.608090  0.998504
    Zn  Zn2  0.504129  0.512611  0.392278  1.056151
    H   H1   0.207813  0.458188  0.057813  0.138815
    H   H2   0.776039  0.524230  0.940180  0.117847
    C   C5   0.166963  0.551755  0.165785  -0.034173
    C   C6   0.825281  0.441330  0.824185  -0.101941
    H   H3   0.177817  0.607186  0.118486  0.095964
    H   H4   0.809165  0.381572  0.863657  0.111807
    C   C7   0.133789  0.565064  0.259333  -0.319224
    C   C8   0.865189  0.437173  0.731293  -0.206109
    H   H5   0.116094  0.630765  0.284728  0.121250
    H   H6   0.881407  0.374143  0.698407  0.129722
    C   C9   0.118191  0.494202  0.319348  0.453759
    C   C10  0.887446  0.513415  0.681218  0.345447
    C   C11  0.140250  0.410303  0.286312  -0.346038
    C   C12  0.867331  0.593776  0.723829  -0.332555
    H   H7   0.130942  0.355586  0.334784  0.188795
    H   H8   0.884151  0.653276  0.684057  0.150797
    C   C13  0.169708  0.396410  0.191506  0.448145
    C   C14  0.828146  0.598063  0.817358  0.351028
    C   C15  0.183321  0.467762  0.131704  -0.398645
    C   C16  0.806589  0.521561  0.867061  -0.301940
    C   C17  0.938572  0.511038  0.416064  0.220926
    C   C18  0.067845  0.503322  0.584239  0.318644
    C   C19  0.875638  0.512899  0.502407  -0.230928
    C   C20  0.130922  0.503915  0.497903  -0.262177
    C   C21  0.943101  0.509549  0.586585  -0.092665
    C   C22  0.063506  0.505926  0.413692  -0.117520
    C   C23  0.519400  0.105992  0.584377  -0.212412
    C   C24  0.563248  0.913279  0.432682  -0.147265
    H   H9   0.528749  0.073544  0.652506  0.153856
    H   H10  0.613638  0.945464  0.376905  0.126065
    C   C25  0.519834  0.196482  0.581603  -0.102504
    C   C26  0.557346  0.823038  0.432956  -0.204216
    H   H11  0.527628  0.231604  0.648228  0.121296
    H   H12  0.602466  0.786981  0.377090  0.152537
    C   C27  0.511288  0.241067  0.495704  -0.169970
    C   C28  0.498119  0.779018  0.505040  -0.102278
    C   C29  0.502985  0.192221  0.411851  0.373150
    C   C30  0.443225  0.826717  0.577377  0.338393
    C   C31  0.500055  0.101775  0.415645  -0.334380
    C   C32  0.445692  0.917638  0.574520  -0.308431
    H   H13  0.488009  0.065591  0.350050  0.105139
    H   H14  0.395001  0.955051  0.626126  0.118823
    C   C33  0.509204  0.057879  0.501280  0.174557
    C   C34  0.507052  0.961340  0.503339  0.137931
    C   C35  0.470754  0.439529  0.104659  -0.107665
    C   C36  0.476050  0.583549  0.896559  -0.104644
    H   H15  0.437105  0.381626  0.069456  0.072265
    H   H16  0.453251  0.644097  0.932265  0.089566
    C   C37  0.469292  0.442815  0.202790  0.154521
    C   C38  0.473422  0.580850  0.798320  0.013111
    H   H17  0.435239  0.387486  0.242104  0.049195
    H   H18  0.451006  0.639437  0.759575  0.098189
    N   N1   0.507568  0.514577  0.249553  -0.075288
    N   N2   0.499146  0.506415  0.750858  -0.063591
    C   C39  0.547606  0.584752  0.200605  -0.020189
    C   C40  0.526124  0.432762  0.799355  0.108746
    H   H19  0.579563  0.641941  0.238376  0.127702
    H   H20  0.548150  0.373255  0.761465  0.094909
    C   C41  0.547887  0.584375  0.101991  -0.158774
    C   C42  0.528935  0.432921  0.897813  -0.139732
    H   H21  0.581328  0.641260  0.064512  0.120025
    H   H22  0.554518  0.373453  0.934444  0.093432
    C   C43  0.508674  0.511089  0.052781  0.098290
    C   C44  0.504961  0.509221  0.947719  0.082175
    N   N3   0.196199  0.311283  0.156812  -0.564726
    C   C45  0.108309  0.250204  0.162397  0.712929
    O   O9   0.019982  0.262268  0.211908  -0.520108
    C   C46  0.117821  0.167215  0.106398  -0.513579
    H   H23  0.248386  0.307620  0.096464  0.290389
    H   H24  0.203805  0.164522  0.066696  0.093220
    H   H25  0.042110  0.163388  0.055212  0.152296
    H   H26  0.113254  0.110521  0.155821  0.156074
    N   N4   0.804546  0.679791  0.861053  -0.488758
    C   C47  0.902110  0.729889  0.878836  0.677010
    O   O10  0.997925  0.713432  0.840874  -0.542275
    C   C48  0.894199  0.804988  0.946843  -0.518007
    H   H27  0.740815  0.680212  0.914156  0.268564
    H   H28  0.801269  0.812739  0.973841  0.113736
    H   H29  0.921322  0.866104  0.909772  0.176056
    H   H30  0.955640  0.793209  0.007752  0.143109
    N   N5   0.876432  0.517293  0.328285  -0.508510
    C   C49  0.851511  0.440148  0.285291  0.645435
    O   O11  0.854538  0.372209  0.331084  -0.428873
    C   C50  0.818839  0.437687  0.182072  -0.322577
    H   H31  0.894379  0.569719  0.284385  0.271381
    H   H32  0.815559  0.504843  0.151875  0.020711
    H   H33  0.729630  0.406669  0.174042  0.072979
    H   H34  0.886141  0.398642  0.142293  0.097191
    N   N6   0.129787  0.495897  0.672037  -0.534247
    C   C51  0.149036  0.412561  0.701198  0.853016
    O   O12  0.138621  0.352077  0.644888  -0.605578
    C   C52  0.182564  0.393636  0.802191  -0.585439
    H   H35  0.113991  0.541449  0.724730  0.260039
    H   H36  0.192270  0.455290  0.843419  0.098879
    H   H37  0.268920  0.357534  0.803531  0.125969
    H   H38  0.112031  0.352418  0.835431  0.142279
    N   N7   0.492756  0.232326  0.321692  -0.431489
    C   C53  0.590001  0.218262  0.266276  0.780472
    O   O13  0.687880  0.206537  0.303026  -0.553695
    C   C54  0.578749  0.214901  0.160172  -0.612697
    H   H39  0.412782  0.220499  0.287346  0.210818
    H   H40  0.638431  0.264846  0.127843  0.174118
    H   H41  0.485092  0.227584  0.137387  0.104752
    H   H42  0.606327  0.149042  0.134719  0.160065
    N   N8   0.372126  0.783617  0.646536  -0.500710
    C   C55  0.381762  0.813736  0.736842  0.785124
    O   O14  0.474520  0.848081  0.764064  -0.610358
    C   C56  0.281023  0.800781  0.805248  -0.448228
    H   H43  0.287586  0.764399  0.625609  0.252409
    H   H44  0.260880  0.729827  0.811867  0.127975
    H   H45  0.200296  0.835903  0.779101  0.111923
    H   H46  0.306868  0.827200  0.876040  0.108334
