# generated using pymatgen
data_ZnH4C13N(O2F)2
_symmetry_space_group_name_H-M   'P 1'
_cell_length_a   16.13553500
_cell_length_b   14.98565500
_cell_length_c   11.16997300
_cell_angle_alpha   90.00000000
_cell_angle_beta   89.99092400
_cell_angle_gamma   90.00000000
_symmetry_Int_Tables_number   1
_chemical_formula_structural   ZnH4C13N(O2F)2
_chemical_formula_sum   'Zn2 H8 C26 N2 O8 F4'
_cell_volume   2700.91687105
_cell_formula_units_Z   2
loop_
 _symmetry_equiv_pos_site_id
 _symmetry_equiv_pos_as_xyz
  1  'x, y, z'
loop_
 _atom_site_type_symbol
 _atom_site_label
 _atom_site_symmetry_multiplicity
 _atom_site_fract_x
 _atom_site_fract_y
 _atom_site_fract_z
 _atom_site_occupancy
  Zn  Zn1  1  0.50000000  0.60063900  0.50000000  1
  Zn  Zn2  1  0.50000000  0.39754000  0.50000000  1
  H  H1  1  0.49935300  0.56704200  0.90559300  1
  H  H2  1  0.50064700  0.56704200  0.09440700  1
  H  H3  1  0.92377800  0.35695700  0.50003600  1
  H  H4  1  0.07622100  0.35695700  0.49996500  1
  H  H5  1  0.40788400  0.08116500  0.36337600  1
  H  H6  1  0.59211600  0.08116500  0.63662400  1
  H  H7  1  0.40788400  0.91701400  0.36337600  1
  H  H8  1  0.59211600  0.91701400  0.63662400  1
  C  C1  1  0.33802500  0.49907700  0.49991700  1
  C  C2  1  0.66197500  0.49907700  0.50008300  1
  C  C3  1  0.50012100  0.49909800  0.26551800  1
  C  C4  1  0.49987800  0.49909800  0.73448200  1
  C  C5  1  0.50007400  0.42712900  0.93364800  1
  C  C6  1  0.49992500  0.42712900  0.06635200  1
  C  C7  1  0.49976300  0.50136200  0.86612400  1
  C  C8  1  0.50023700  0.50136200  0.13387600  1
  C  C9  1  0.95726800  0.57882000  0.50002100  1
  C  C10  1  0.04273200  0.57882000  0.49997900  1
  C  C11  1  0.91453100  0.49912500  0.50004300  1
  C  C12  1  0.08546900  0.49912500  0.49995800  1
  C  C13  1  0.95726800  0.41943400  0.50002100  1
  C  C14  1  0.04273200  0.41943400  0.49997900  1
  C  C15  1  0.82559200  0.49910900  0.50007300  1
  C  C16  1  0.17440800  0.49910900  0.49992700  1
  C  C17  1  0.24909100  0.49908600  0.49991300  1
  C  C18  1  0.75090900  0.49908600  0.50008700  1
  C  C19  1  0.44836300  0.95307900  0.42341400  1
  C  C20  1  0.55163600  0.95307900  0.57658600  1
  C  C21  1  0.50000000  0.90706700  0.50000000  1
  C  C22  1  0.55163600  0.04510000  0.57658600  1
  C  C23  1  0.44836300  0.04510000  0.42341400  1
  C  C24  1  0.50000000  0.09111200  0.50000000  1
  C  C25  1  0.50000000  0.81130700  0.50000000  1
  C  C26  1  0.50000000  0.18687100  0.50000000  1
  N  N1  1  0.50000000  0.26407800  0.50000000  1
  N  N2  1  0.50000000  0.73410000  0.50000000  1
  O  O1  1  0.37651900  0.57614500  0.49991400  1
  O  O2  1  0.62348100  0.57614500  0.50008700  1
  O  O3  1  0.37651300  0.42200500  0.49995200  1
  O  O4  1  0.62348600  0.42200500  0.50004800  1
  O  O5  1  0.50009100  0.57604900  0.32164800  1
  O  O6  1  0.49990900  0.57604900  0.67835200  1
  O  O7  1  0.50009800  0.42210500  0.32162500  1
  O  O8  1  0.49990200  0.42210500  0.67837600  1
  F  F1  1  0.50045300  0.34584700  0.88007600  1
  F  F2  1  0.49954700  0.34584700  0.11992500  1
  F  F3  1  0.08470200  0.65713800  0.49996100  1
  F  F4  1  0.91529800  0.65713800  0.50003900  1
