# generated using pymatgen
data_ZnH7C17N3O5
_symmetry_space_group_name_H-M   'P 1'
_cell_length_a   14.37050100
_cell_length_b   8.54888600
_cell_length_c   14.95481200
_cell_angle_alpha   90.00000000
_cell_angle_beta   90.97574800
_cell_angle_gamma   90.00000000
_symmetry_Int_Tables_number   1
_chemical_formula_structural   ZnH7C17N3O5
_chemical_formula_sum   'Zn2 H14 C34 N6 O10'
_cell_volume   1836.95878529
_cell_formula_units_Z   2
loop_
 _symmetry_equiv_pos_site_id
 _symmetry_equiv_pos_as_xyz
  1  'x, y, z'
loop_
 _atom_site_type_symbol
 _atom_site_label
 _atom_site_symmetry_multiplicity
 _atom_site_fract_x
 _atom_site_fract_y
 _atom_site_fract_z
 _atom_site_occupancy
  Zn  Zn1  1  0.89714000  0.50138900  0.51129000  1
  Zn  Zn2  1  0.10285900  0.50138900  0.48871000  1
  H  H1  1  0.04501500  0.00138800  0.56052900  1
  H  H2  1  0.95498500  0.00138800  0.43947100  1
  H  H3  1  0.00063100  0.25219400  0.80054200  1
  H  H4  1  0.99936900  0.75058700  0.19945700  1
  H  H5  1  0.99936900  0.25219400  0.19945800  1
  H  H6  1  0.00063100  0.75058700  0.80054400  1
  H  H7  1  0.60149400  0.50399300  0.37002300  1
  H  H8  1  0.39850600  0.50399300  0.62997800  1
  H  H9  1  0.53973100  0.45082600  0.23798000  1
  H  H10  1  0.41402800  0.47312900  0.10800500  1
  H  H11  1  0.25391600  0.53314800  0.18429900  1
  H  H12  1  0.46026900  0.45082600  0.76202000  1
  H  H13  1  0.58597200  0.47312900  0.89199500  1
  H  H14  1  0.74608400  0.53314800  0.81570100  1
  C  C1  1  0.02188100  0.14090100  0.67531500  1
  C  C2  1  0.97811900  0.86187700  0.32468400  1
  C  C3  1  0.97811900  0.14090100  0.32468500  1
  C  C4  1  0.02188100  0.86187700  0.67531600  1
  C  C5  1  0.00823000  0.14169800  0.76634900  1
  C  C6  1  0.99176900  0.86108300  0.23365000  1
  C  C7  1  0.99176900  0.14169800  0.23365100  1
  C  C8  1  0.00823100  0.86108300  0.76635000  1
  C  C9  1  0.00588000  0.00139100  0.81283600  1
  C  C10  1  0.99412000  0.00139100  0.18716400  1
  C  C11  1  0.46014200  0.50154500  0.41426200  1
  C  C12  1  0.53985800  0.50154500  0.58573800  1
  C  C13  1  0.03371700  0.00138800  0.63150200  1
  C  C14  1  0.96628300  0.00138800  0.36849800  1
  C  C15  1  0.44423700  0.50191000  0.57362000  1
  C  C16  1  0.55576300  0.50191000  0.42638000  1
  C  C17  1  0.99901900  0.00139100  0.08938700  1
  C  C18  1  0.00098100  0.00139100  0.91061300  1
  C  C19  1  0.30479300  0.50170600  0.48121100  1
  C  C20  1  0.69520700  0.50170600  0.51878900  1
  C  C21  1  0.40451900  0.50221200  0.48894800  1
  C  C22  1  0.59548100  0.50221200  0.51105200  1
  C  C23  1  0.01502400  0.71987300  0.62143000  1
  C  C24  1  0.98497700  0.28290300  0.37857200  1
  C  C25  1  0.98497600  0.71987300  0.37857000  1
  C  C26  1  0.01502300  0.28290300  0.62142800  1
  C  C27  1  0.41860800  0.50186000  0.32353300  1
  C  C28  1  0.46680800  0.47650500  0.24601000  1
  C  C29  1  0.40248500  0.48704400  0.17880100  1
  C  C30  1  0.31964300  0.51802100  0.21946300  1
  C  C31  1  0.58139200  0.50186000  0.67646700  1
  C  C32  1  0.53319200  0.47650500  0.75399000  1
  C  C33  1  0.59751500  0.48704400  0.82119900  1
  C  C34  1  0.68035700  0.51802100  0.78053700  1
  N  N1  1  0.00065800  0.86534400  0.95581600  1
  N  N2  1  0.99934200  0.13743800  0.04418400  1
  N  N3  1  0.99934200  0.86534400  0.04418400  1
  N  N4  1  0.00065800  0.13743800  0.95581600  1
  N  N5  1  0.77569700  0.50139900  0.52243600  1
  N  N6  1  0.22430300  0.50139900  0.47756400  1
  O  O1  1  0.09011000  0.67066700  0.58147700  1
  O  O2  1  0.90988700  0.33211000  0.41852300  1
  O  O3  1  0.90989000  0.67066700  0.41852300  1
  O  O4  1  0.09011300  0.33211000  0.58147700  1
  O  O5  1  0.93155500  0.66467500  0.60334600  1
  O  O6  1  0.06844800  0.33810100  0.39665400  1
  O  O7  1  0.06844500  0.66467500  0.39665400  1
  O  O8  1  0.93155200  0.33810100  0.60334600  1
  O  O9  1  0.32886200  0.52711100  0.30754400  1
  O  O10  1  0.67113800  0.52711100  0.69245600  1
