# generated using pymatgen
data_Cu3H24C38O17
_symmetry_space_group_name_H-M   'P 1'
_cell_length_a   21.56979300
_cell_length_b   21.53209000
_cell_length_c   21.96884800
_cell_angle_alpha   119.33060800
_cell_angle_beta   119.39062900
_cell_angle_gamma   90.01202400
_symmetry_Int_Tables_number   1
_chemical_formula_structural   Cu3H24C38O17
_chemical_formula_sum   'Cu6 H48 C76 O34'
_cell_volume   7351.32186922
_cell_formula_units_Z   2
loop_
 _symmetry_equiv_pos_site_id
 _symmetry_equiv_pos_as_xyz
  1  'x, y, z'
loop_
 _atom_site_type_symbol
 _atom_site_label
 _atom_site_symmetry_multiplicity
 _atom_site_fract_x
 _atom_site_fract_y
 _atom_site_fract_z
 _atom_site_occupancy
  Cu  Cu1  1  0.44772100  0.99261600  0.49782000  1
  Cu  Cu2  1  0.57289300  0.99470900  0.50116400  1
  Cu  Cu3  1  0.00940300  0.55664200  0.50367900  1
  Cu  Cu4  1  0.00515400  0.42880600  0.49517700  1
  Cu  Cu5  1  0.54506000  0.52998000  0.58199000  1
  Cu  Cu6  1  0.46980800  0.45784000  0.41760400  1
  H  H1  1  0.82622200  0.73913100  0.75211700  1
  H  H2  1  0.20424700  0.53289600  0.27912600  1
  H  H3  1  0.71309000  0.63406800  0.63880300  1
  H  H4  1  0.31096400  0.52098400  0.37934500  1
  H  H5  1  0.74286900  0.38144600  0.06629900  1
  H  H6  1  0.28318600  0.60937700  0.93248800  1
  H  H7  1  0.65702600  0.30443300  0.92337200  1
  H  H8  1  0.36945300  0.68833000  0.07509000  1
  H  H9  1  0.81809200  0.22242800  0.93030800  1
  H  H10  1  0.20161300  0.75506800  0.07036300  1
  H  H11  1  0.88440900  0.28076900  0.06894900  1
  H  H12  1  0.13274000  0.69588200  0.93151800  1
  H  H13  1  0.66623400  0.13111900  0.91911800  1
  H  H14  1  0.34249100  0.85901900  0.07818100  1
  H  H15  1  0.75480700  0.13188600  0.93016200  1
  H  H16  1  0.25460200  0.85066700  0.06884800  1
  H  H17  1  0.72399200  0.20661700  0.06071300  1
  H  H18  1  0.28351200  0.78417200  0.93641500  1
  H  H19  1  0.62134400  0.23675800  0.93282000  1
  H  H20  1  0.39691600  0.75906700  0.06442300  1
  H  H21  1  0.69198800  0.32191700  0.07360800  1
  H  H22  1  0.32651200  0.67344800  0.92377400  1
  H  H23  1  0.81100600  0.19546700  0.07135500  1
  H  H24  1  0.19589300  0.78749300  0.92729400  1
  H  H25  1  0.60037800  0.23292600  0.59233900  1
  H  H26  1  0.52760300  0.75950800  0.41806800  1
  H  H27  1  0.26733900  0.16985100  0.22717000  1
  H  H28  1  0.49910800  0.80702300  0.74630100  1
  H  H29  1  0.36578000  0.28468200  0.35054600  1
  H  H30  1  0.49444900  0.69648100  0.63400600  1
  H  H31  1  0.59973800  0.34822400  0.59728500  1
  H  H32  1  0.52178800  0.64415300  0.41322900  1
  H  H33  1  0.76608400  0.38969800  0.40499300  1
  H  H34  1  0.24134100  0.46534900  0.57948700  1
  H  H35  1  0.94758700  0.62409300  0.65536800  1
  H  H36  1  0.07461600  0.49492000  0.35920600  1
  H  H37  1  0.94374100  0.73379400  0.76102500  1
  H  H38  1  0.08573500  0.51889700  0.26827400  1
  H  H39  1  0.33887100  0.01211000  0.31708200  1
  H  H40  1  0.59993100  0.97406700  0.71320700  1
  H  H41  1  0.22468400  0.03194900  0.20620500  1
  H  H42  1  0.57780800  0.96167100  0.82558700  1
  H  H43  1  0.64541300  0.34540300  0.41226300  1
  H  H44  1  0.35684400  0.41035800  0.56103400  1
  H  H45  1  0.76901300  0.35040900  0.95299700  1
  H  H46  1  0.26203300  0.63374000  0.04787600  1
  H  H47  1  0.92653000  0.38832000  0.11528700  1
  H  H48  1  0.10021900  0.58776400  0.88958400  1
  C  C1  1  0.49977500  0.10198900  0.47934600  1
  C  C2  1  0.52066300  0.88509500  0.51923700  1
  C  C3  1  0.58882300  0.08760300  0.66052800  1
  C  C4  1  0.43179400  0.89963200  0.33841900  1
  C  C5  1  0.76322500  0.62876500  0.63986100  1
  C  C6  1  0.26018200  0.51419100  0.37700500  1
  C  C7  1  0.70159400  0.43930900  0.45278900  1
  C  C8  1  0.30931400  0.47670700  0.53871100  1
  C  C9  1  0.69986800  0.50167100  0.51427600  1
  C  C10  1  0.31519500  0.48930100  0.48568400  1
  C  C11  1  0.82945500  0.56309200  0.58070700  1
  C  C12  1  0.18936100  0.49588400  0.42683100  1
  C  C13  1  0.67328500  0.27132400  0.95137100  1
  C  C14  1  0.34804800  0.72069500  0.04681000  1
  C  C15  1  0.79157500  0.26350800  0.95445700  1
  C  C16  1  0.23041800  0.71765800  0.04581100  1
  C  C17  1  0.83923900  0.30567000  0.05015300  1
  C  C18  1  0.18128900  0.67486000  0.95006400  1
  C  C19  1  0.87326900  0.37580000  0.24730000  1
  C  C20  1  0.14188500  0.60977500  0.75157300  1
  C  C21  1  0.71355200  0.21988300  0.91937800  1
  C  C22  1  0.30516600  0.76678300  0.07955800  1
  C  C23  1  0.72383500  0.32316000  0.04686000  1
  C  C24  1  0.29710400  0.66820300  0.95142300  1
  C  C25  1  0.79073500  0.29660700  0.07898400  1
  C  C26  1  0.22611900  0.68945600  0.91991800  1
  C  C27  1  0.76290000  0.21429700  0.04396300  1
  C  C28  1  0.24722800  0.77231600  0.95424100  1
  C  C29  1  0.72220600  0.16775600  0.94866900  1
  C  C30  1  0.28912900  0.81871600  0.04966400  1
  C  C31  1  0.83543100  0.34035100  0.17127800  1
  C  C32  1  0.18038000  0.64540800  0.82760000  1
  C  C33  1  0.66897300  0.17494200  0.82705700  1
  C  C34  1  0.35078000  0.81203300  0.17189600  1
  C  C35  1  0.63238600  0.13615000  0.75099700  1
  C  C36  1  0.38797500  0.85099500  0.24796200  1
  C  C37  1  0.37854400  0.09909000  0.33088100  1
  C  C38  1  0.52712400  0.88360800  0.65674400  1
  C  C39  1  0.31907200  0.10129700  0.26753800  1
  C  C40  1  0.51920000  0.87849800  0.71274000  1
  C  C41  1  0.31502600  0.16836400  0.27630300  1
  C  C42  1  0.50647200  0.81084500  0.70286500  1
  C  C43  1  0.37225300  0.23347700  0.34657300  1
  C  C44  1  0.50492500  0.74828900  0.63909500  1
  C  C45  1  0.43460300  0.23241500  0.40962900  1
  C  C46  1  0.51502400  0.75241900  0.58323800  1
  C  C47  1  0.43614500  0.16528400  0.40455300  1
  C  C48  1  0.52185600  0.81969900  0.58875900  1
  C  C49  1  0.49620400  0.16630000  0.47224300  1
  C  C50  1  0.52485900  0.82134600  0.52727300  1
  C  C51  1  0.55425300  0.23209900  0.54003200  1
  C  C52  1  0.52570400  0.75834100  0.46576900  1
  C  C53  1  0.55331300  0.29738100  0.54350300  1
  C  C54  1  0.52111700  0.69296600  0.46214000  1
  C  C55  1  0.49433700  0.29820600  0.47880500  1
  C  C56  1  0.51600700  0.68937500  0.52036500  1
  C  C57  1  0.76608800  0.43857300  0.45447500  1
  C  C58  1  0.24459600  0.47408600  0.53656300  1
  C  C59  1  0.82959000  0.50035400  0.51681300  1
  C  C60  1  0.18513200  0.48503400  0.48237300  1
  C  C61  1  0.89453600  0.49809000  0.51113200  1
  C  C62  1  0.12012300  0.48742500  0.48788600  1
  C  C63  1  0.91969800  0.41753400  0.33777400  1
  C  C64  1  0.09495200  0.56793300  0.66111100  1
  C  C65  1  0.62962300  0.49923200  0.50947100  1
  C  C66  1  0.38537500  0.49110600  0.49038800  1
  C  C67  1  0.49824500  0.36953800  0.48567500  1
  C  C68  1  0.51261000  0.61811700  0.51355400  1
  C  C69  1  0.76401500  0.56423700  0.57863300  1
  C  C70  1  0.25503700  0.49918700  0.42939900  1
  C  C71  1  0.89431100  0.62401800  0.64790200  1
  C  C72  1  0.12819500  0.50156600  0.36721400  1
  C  C73  1  0.89303900  0.68661300  0.70926100  1
  C  C74  1  0.13358300  0.51432500  0.31421300  1
  C  C75  1  0.82737300  0.68944200  0.70451500  1
  C  C76  1  0.19977900  0.52177100  0.31999200  1
  O  O1  1  0.44649900  0.07286300  0.47958300  1
  O  O2  1  0.57310500  0.91313600  0.51722000  1
  O  O3  1  0.55902100  0.07984300  0.49145800  1
  O  O4  1  0.46244300  0.90862600  0.50955400  1
  O  O5  1  0.51549600  0.06692900  0.61946900  1
  O  O6  1  0.50506400  0.92172900  0.37921500  1
  O  O7  1  0.62428000  0.06271600  0.62346900  1
  O  O8  1  0.39638100  0.92316200  0.37569800  1
  O  O9  1  0.92523500  0.55350500  0.51481200  1
  O  O10  1  0.09019100  0.43257100  0.48551500  1
  O  O11  1  0.91736800  0.43916700  0.49911600  1
  O  O12  1  0.09644100  0.54571100  0.49836800  1
  O  O13  1  0.93968700  0.49106600  0.38094300  1
  O  O14  1  0.07395900  0.49438300  0.61803300  1
  O  O15  1  0.94191600  0.38023900  0.37301300  1
  O  O16  1  0.07363100  0.60523400  0.62580600  1
  O  O17  1  0.63010900  0.50978000  0.57427900  1
  O  O18  1  0.38286300  0.44299900  0.42160900  1
  O  O19  1  0.56835800  0.48407700  0.43905300  1
  O  O20  1  0.44843200  0.53924100  0.56428100  1
  O  O21  1  0.51660700  0.43054100  0.55801500  1
  O  O22  1  0.46321300  0.55617600  0.43897800  1
  O  O23  1  0.48771200  0.37060800  0.42167000  1
  O  O24  1  0.56147700  0.61830000  0.58048400  1
  O  O25  1  0.38076200  0.03015900  0.31661000  1
  O  O26  1  0.54462900  0.95341800  0.67332300  1
  O  O27  1  0.26352600  0.03629100  0.19552400  1
  O  O28  1  0.52415200  0.94127800  0.77866000  1
  O  O29  1  0.63932600  0.37723200  0.39033800  1
  O  O30  1  0.36753800  0.46550800  0.59291100  1
  O  O31  1  0.78874300  0.31122300  0.92762700  1
  O  O32  1  0.24005800  0.66975300  0.07342500  1
  O  O33  1  0.87220400  0.38155900  0.08861500  1
  O  O34  1  0.15434500  0.59802300  0.91242600  1
