# generated using pymatgen
data_Zn6H33C70(NO10)3
_symmetry_space_group_name_H-M   'P 1'
_cell_length_a   18.61824400
_cell_length_b   18.86751400
_cell_length_c   18.97801000
_cell_angle_alpha   109.51067000
_cell_angle_beta   109.58572500
_cell_angle_gamma   108.79728600
_symmetry_Int_Tables_number   1
_chemical_formula_structural   Zn6H33C70(NO10)3
_chemical_formula_sum   'Zn6 H33 C70 N3 O30'
_cell_volume   5164.39424215
_cell_formula_units_Z   1
loop_
 _symmetry_equiv_pos_site_id
 _symmetry_equiv_pos_as_xyz
  1  'x, y, z'
loop_
 _atom_site_type_symbol
 _atom_site_label
 _atom_site_symmetry_multiplicity
 _atom_site_fract_x
 _atom_site_fract_y
 _atom_site_fract_z
 _atom_site_occupancy
  Zn  Zn1  1  0.49903100  0.41745400  0.42222800  1
  Zn  Zn2  1  0.49814900  0.55525200  0.56072300  1
  Zn  Zn3  1  0.93688900  0.41867100  0.00214700  1
  Zn  Zn4  1  0.06512300  0.55593100  0.99109100  1
  Zn  Zn5  1  0.92048300  0.98889400  0.42971300  1
  Zn  Zn6  1  0.07143500  0.98648700  0.55282400  1
  H  H1  1  0.20011800  0.58257600  0.31352200  1
  H  H2  1  0.37857500  0.65313900  0.35510900  1
  H  H3  1  0.32336100  0.57324100  0.17796500  1
  H  H4  1  0.32651200  0.42703700  0.18331200  1
  H  H5  1  0.14907400  0.35711300  0.14253400  1
  H  H6  1  0.65411200  0.60113500  0.37404700  1
  H  H7  1  0.85179300  0.84813200  0.80317500  1
  H  H8  1  0.92366900  0.97121200  0.78932000  1
  H  H9  1  0.91421900  0.95143600  0.65344200  1
  H  H10  1  0.75980700  0.71514200  0.37136300  1
  H  H11  1  0.73849000  0.44930900  0.60872000  1
  H  H12  1  0.53091800  0.45168500  0.70275900  1
  H  H13  1  0.53106100  0.47771800  0.83462400  1
  H  H14  1  0.78563600  0.50831700  0.94855500  1
  H  H15  1  0.85405600  0.45513300  0.72289500  1
  H  H16  1  0.35491800  0.36281900  0.61178500  1
  H  H17  1  0.25067500  0.27901800  0.31495000  1
  H  H18  1  0.13258100  0.15204400  0.18197500  1
  H  H19  1  0.03304800  0.03036600  0.18289300  1
  H  H20  1  0.05045700  0.03719300  0.31692900  1
  H  H21  1  0.24668000  0.24928800  0.61273000  1
  H  H22  1  0.02375200  0.63701500  0.26439200  1
  H  H23  1  0.92146800  0.65805300  0.01123400  1
  H  H24  1  0.87923000  0.75387300  0.97445600  1
  H  H25  1  0.88607200  0.87554900  0.08294600  1
  H  H26  1  0.93257900  0.89995100  0.22610800  1
  H  H27  1  0.02058500  0.74952100  0.37012900  1
  H  H28  1  0.97082000  0.33863200  0.72718200  1
  H  H29  1  0.08216300  0.31448900  0.97708500  1
  H  H30  1  0.12270800  0.21548500  0.00883300  1
  H  H31  1  0.10839200  0.09196400  0.89532800  1
  H  H32  1  0.05602500  0.06850400  0.75222200  1
  H  H33  1  0.96875300  0.22545900  0.61651300  1
  C  C1  1  0.63307500  0.60339100  0.50424000  1
  C  C2  1  0.39147300  0.50270500  0.37514700  1
  C  C3  1  0.36440900  0.36935200  0.47891000  1
  C  C4  1  0.60412600  0.46835200  0.60780700  1
  C  C5  1  0.32576700  0.58607300  0.30647700  1
  C  C6  1  0.23010800  0.54850700  0.28448300  1
  C  C7  1  0.20268600  0.50461000  0.18987800  1
  C  C8  1  0.29690500  0.54232500  0.21066500  1
  C  C9  1  0.29738600  0.46220000  0.21254600  1
  C  C10  1  0.20193800  0.42434200  0.19042300  1
  C  C11  1  0.23165000  0.46951600  0.28489900  1
  C  C12  1  0.32529600  0.50596900  0.30730600  1
  C  C13  1  0.78795500  0.75703200  0.66867200  1
  C  C14  1  0.84024700  0.83841600  0.74011900  1
  C  C15  1  0.88275400  0.90777000  0.73304600  1
  C  C16  1  0.87810100  0.89563800  0.65587400  1
  C  C17  1  0.82529600  0.81466900  0.58317800  1
  C  C18  1  0.77272400  0.74631900  0.58742400  1
  C  C19  1  0.70711100  0.66992000  0.51043300  1
  C  C20  1  0.70431700  0.65963500  0.43388400  1
  C  C21  1  0.76255200  0.72466500  0.43182100  1
  C  C22  1  0.82270500  0.80239200  0.50579600  1
  C  C23  1  0.58936300  0.46626600  0.75583100  1
  C  C24  1  0.58832300  0.47950300  0.83115400  1
  C  C25  1  0.65975100  0.49607900  0.90091000  1
  C  C26  1  0.73023100  0.49426500  0.89287200  1
  C  C27  1  0.73038700  0.47701300  0.81568700  1
  C  C28  1  0.66185100  0.46896400  0.74850400  1
  C  C29  1  0.66599800  0.46178200  0.67449400  1
  C  C30  1  0.73443700  0.45504900  0.66568100  1
  C  C31  1  0.80061600  0.45984400  0.73080400  1
  C  C32  1  0.79952800  0.47090300  0.80582200  1
  C  C33  1  0.20935100  0.22692200  0.31882500  1
  C  C34  1  0.14136300  0.15525800  0.24243600  1
  C  C35  1  0.08534600  0.08745500  0.24296100  1
  C  C36  1  0.09509000  0.09247700  0.31985800  1
  C  C37  1  0.16130100  0.16566800  0.39764500  1
  C  C38  1  0.22176100  0.23182900  0.39709500  1
  C  C39  1  0.29269200  0.30257600  0.47468900  1
  C  C40  1  0.29983400  0.30842000  0.55130900  1
  C  C41  1  0.23941400  0.24368000  0.55186000  1
  C  C42  1  0.16984500  0.17232300  0.47585100  1
  C  C43  1  0.98980400  0.60401100  0.10789700  1
  C  C44  1  0.12946700  0.49996100  0.12139000  1
  C  C45  1  0.01167100  0.37059300  0.88478400  1
  C  C46  1  0.87235600  0.47555900  0.87265600  1
  C  C47  1  0.00841200  0.10620600  0.62364300  1
  C  C48  1  0.88402200  0.86934500  0.50034200  1
  C  C49  1  0.98336400  0.86872200  0.35905400  1
  C  C50  1  0.10793000  0.10578100  0.48163500  1
  C  C51  1  0.92614600  0.71078800  0.06147400  1
  C  C52  1  0.90103300  0.76458600  0.03936000  1
  C  C53  1  0.90450600  0.83233300  0.09993000  1
  C  C54  1  0.93071100  0.84517300  0.18211700  1
  C  C55  1  0.95377900  0.78985500  0.20543100  1
  C  C56  1  0.95447800  0.72376400  0.14472300  1
  C  C57  1  0.98180800  0.67014800  0.16708600  1
  C  C58  1  0.00339600  0.67926300  0.24734200  1
  C  C59  1  0.00248200  0.74380400  0.30731900  1
  C  C60  1  0.97852600  0.80001800  0.28817100  1
  C  C61  1  0.07446100  0.26107500  0.92487500  1
  C  C62  1  0.09870700  0.20555600  0.94409700  1
  C  C63  1  0.09122200  0.13686700  0.88075200  1
  C  C64  1  0.06204700  0.12484300  0.79864800  1
  C  C65  1  0.04017200  0.18213300  0.77822700  1
  C  C66  1  0.04312100  0.24888500  0.84180100  1
  C  C67  1  0.01638800  0.30400900  0.82245100  1
  C  C68  1  0.99114300  0.29537900  0.74196100  1
  C  C69  1  0.98892300  0.23046300  0.67919000  1
  C  C70  1  0.01303900  0.17329900  0.69572500  1
  N  N1  1  0.66022700  0.51371400  0.98045300  1
  N  N2  1  0.19588800  0.42898600  0.32703000  1
  N  N3  1  0.76262700  0.68518000  0.68246600  1
  O  O1  1  0.60233700  0.52255300  0.44898400  1
  O  O2  1  0.59838000  0.62733700  0.55134600  1
  O  O3  1  0.41953700  0.44845700  0.35092200  1
  O  O4  1  0.41473300  0.55037500  0.45568700  1
  O  O5  1  0.39881700  0.34531300  0.43151400  1
  O  O6  1  0.39508500  0.45016500  0.53433700  1
  O  O7  1  0.58224400  0.42219100  0.52732500  1
  O  O8  1  0.57771700  0.52422500  0.63178500  1
  O  O9  1  0.94562500  0.52398400  0.08862200  1
  O  O10  1  0.03998000  0.62756200  0.07606900  1
  O  O11  1  0.04975300  0.44628200  0.09814600  1
  O  O12  1  0.14730700  0.54707000  0.08559700  1
  O  O13  1  0.96222100  0.34714500  0.91728900  1
  O  O14  1  0.05593500  0.45058900  0.90420500  1
  O  O15  1  0.85488500  0.42721400  0.90735000  1
  O  O16  1  0.95221000  0.52851700  0.89519700  1
  O  O17  1  0.94743500  0.07714300  0.54511100  1
  O  O18  1  0.06638700  0.08024200  0.63921700  1
  O  O19  1  0.85186600  0.89566100  0.44796600  1
  O  O20  1  0.96824800  0.89879200  0.54655900  1
  O  O21  1  0.92585700  0.89541300  0.34322300  1
  O  O22  1  0.04412000  0.89782500  0.43755100  1
  O  O23  1  0.02377700  0.07707600  0.43648900  1
  O  O24  1  0.13989800  0.07931300  0.53401400  1
  O  O25  1  0.59341700  0.51472300  0.98749600  1
  O  O26  1  0.72780200  0.53005900  0.04677100  1
  O  O27  1  0.13122400  0.35045600  0.28171500  1
  O  O28  1  0.22332700  0.47345600  0.40866300  1
  O  O29  1  0.77485000  0.62201100  0.64527200  1
  O  O30  1  0.75214100  0.69381700  0.74865900  1
