# generated using pymatgen
data_Fe2H9C34I5(NO8)2
_symmetry_space_group_name_H-M   'P 1'
_cell_length_a   15.27933700
_cell_length_b   9.36469000
_cell_length_c   18.03439700
_cell_angle_alpha   90.19605800
_cell_angle_beta   104.17728100
_cell_angle_gamma   107.67644400
_symmetry_Int_Tables_number   1
_chemical_formula_structural   Fe2H9C34I5(NO8)2
_chemical_formula_sum   'Fe2 H9 C34 I5 N2 O16'
_cell_volume   2375.28981000
_cell_formula_units_Z   1
loop_
 _symmetry_equiv_pos_site_id
 _symmetry_equiv_pos_as_xyz
  1  'x, y, z'
loop_
 _atom_site_type_symbol
 _atom_site_label
 _atom_site_symmetry_multiplicity
 _atom_site_fract_x
 _atom_site_fract_y
 _atom_site_fract_z
 _atom_site_occupancy
  Fe  Fe1  1  0.49197200  0.01100700  0.83373900  1
  Fe  Fe2  1  0.50467700  0.99259400  0.16845900  1
  H  H1  1  0.82091900  0.96395600  0.92694400  1
  H  H2  1  0.02759100  0.93355800  0.07607700  1
  H  H3  1  0.96777300  0.05966600  0.92249600  1
  H  H4  1  0.19374800  0.94908400  0.81065300  1
  H  H5  1  0.17541700  0.04468400  0.07318400  1
  H  H6  1  0.48667400  0.29309800  0.58560600  1
  H  H7  1  0.50266800  0.25198800  0.37649800  1
  H  H8  1  0.51241100  0.70895800  0.41267800  1
  H  H9  1  0.49796100  0.47228000  0.80448100  1
  C  C1  1  0.80571900  0.01896000  0.13315300  1
  C  C2  1  0.88971700  0.01450500  0.11953600  1
  C  C3  1  0.89606800  0.99482700  0.04530200  1
  C  C4  1  0.81761500  0.98317800  0.98496300  1
  C  C5  1  0.73312900  0.98957800  0.99792800  1
  C  C6  1  0.72641900  0.00336700  0.07302100  1
  C  C7  1  0.98431400  0.97912300  0.03202700  1
  C  C8  1  0.01065500  0.01473800  0.96717700  1
  C  C9  1  0.10502400  0.97069300  0.88138300  1
  C  C10  1  0.18944200  0.96559700  0.86884100  1
  C  C11  1  0.26950300  0.99084500  0.92905300  1
  C  C12  1  0.26351000  0.01344900  0.00361500  1
  C  C13  1  0.17862500  0.01949500  0.01573200  1
  C  C14  1  0.09931300  0.99927500  0.95496600  1
  C  C15  1  0.48585100  0.22306700  0.72706400  1
  C  C16  1  0.36058500  0.01139900  0.91097000  1
  C  C17  1  0.65453400  0.98591900  0.93078500  1
  C  C18  1  0.49548000  0.74806400  0.76920000  1
  C  C19  1  0.51253500  0.26000900  0.23057600  1
  C  C20  1  0.34318300  0.02414600  0.07091800  1
  C  C21  1  0.63530500  0.98458500  0.09086600  1
  C  C22  1  0.51801200  0.78447900  0.27382300  1
  C  C23  1  0.49770800  0.62766700  0.71725400  1
  C  C24  1  0.49804700  0.64651900  0.64091300  1
  C  C25  1  0.49589200  0.52855200  0.59346800  1
  C  C26  1  0.49085400  0.38907000  0.62134000  1
  C  C27  1  0.49348400  0.37091700  0.69756600  1
  C  C28  1  0.49817400  0.49013100  0.74537300  1
  C  C29  1  0.50605900  0.36045100  0.35485200  1
  C  C30  1  0.51118200  0.38410500  0.28003500  1
  C  C31  1  0.51470200  0.52439900  0.25356300  1
  C  C32  1  0.51368500  0.63772600  0.30219000  1
  C  C33  1  0.51150800  0.61505000  0.37715800  1
  C  C34  1  0.50633500  0.47468200  0.40363600  1
  I  I1  1  0.79884700  0.03391000  0.24811500  1
  I  I2  1  0.53138000  0.58079600  0.14280300  1
  I  I3  1  0.00642500  0.03613300  0.21476300  1
  I  I4  1  0.98645000  0.93581600  0.78632100  1
  I  I5  1  0.50242400  0.85134000  0.59091900  1
  N  N1  1  0.49914500  0.55526100  0.51685800  1
  N  N2  1  0.50179700  0.44507800  0.47977600  1
  O  O1  1  0.53329200  0.21376100  0.79736500  1
  O  O2  1  0.43318800  0.13009400  0.94204000  1
  O  O3  1  0.42606300  0.10158000  0.68537900  1
  O  O4  1  0.36584700  0.92721700  0.85483600  1
  O  O5  1  0.57863300  0.01683000  0.93797300  1
  O  O6  1  0.66414200  0.96506100  0.86162600  1
  O  O7  1  0.49399500  0.88057600  0.74602700  1
  O  O8  1  0.49366600  0.72212600  0.84036700  1
  O  O9  1  0.50547700  0.12703900  0.25569000  1
  O  O10  1  0.51824700  0.27799700  0.15974700  1
  O  O11  1  0.41668600  0.98493700  0.06458200  1
  O  O12  1  0.33582600  0.05608300  0.13956500  1
  O  O13  1  0.58359800  0.90582600  0.31111600  1
  O  O14  1  0.63011100  0.07193200  0.14567600  1
  O  O15  1  0.46234000  0.79215400  0.20689700  1
  O  O16  1  0.56220400  0.86631000  0.06015500  1
