# generated using pymatgen
data_ZnH16C27(NO3)2
_symmetry_space_group_name_H-M   'P 1'
_cell_length_a   16.13158300
_cell_length_b   15.00557500
_cell_length_c   23.45435600
_cell_angle_alpha   90.00000000
_cell_angle_beta   90.00239000
_cell_angle_gamma   90.00000000
_symmetry_Int_Tables_number   1
_chemical_formula_structural   ZnH16C27(NO3)2
_chemical_formula_sum   'Zn2 H32 C54 N4 O12'
_cell_volume   5677.44768703
_cell_formula_units_Z   2
loop_
 _symmetry_equiv_pos_site_id
 _symmetry_equiv_pos_as_xyz
  1  'x, y, z'
loop_
 _atom_site_type_symbol
 _atom_site_label
 _atom_site_symmetry_multiplicity
 _atom_site_fract_x
 _atom_site_fract_y
 _atom_site_fract_z
 _atom_site_occupancy
  Zn  Zn1  1  0.50009100  0.60024700  0.50019500  1
  Zn  Zn2  1  0.50003500  0.39764500  0.50001700  1
  H  H1  1  0.29530400  0.52226500  0.94607300  1
  H  H2  1  0.70546800  0.51188000  0.05427000  1
  H  H3  1  0.29253300  0.52246900  0.04902200  1
  H  H4  1  0.70822800  0.51138000  0.95133100  1
  H  H5  1  0.55334200  0.63718800  0.21868600  1
  H  H6  1  0.45055600  0.63804400  0.78168200  1
  H  H7  1  0.55268000  0.62859800  0.32214700  1
  H  H8  1  0.45057400  0.62947300  0.67830100  1
  H  H9  1  0.43622700  0.38425600  0.20826000  1
  H  H10  1  0.56129100  0.38178400  0.79192600  1
  H  H11  1  0.07621100  0.64108900  0.50175300  1
  H  H12  1  0.92387700  0.35711900  0.49841500  1
  H  H13  1  0.92373700  0.64100700  0.49957600  1
  H  H14  1  0.07635300  0.35717400  0.50059100  1
  H  H15  1  0.37229000  0.37207900  0.34981700  1
  H  H16  1  0.39036200  0.31015200  0.28559200  1
  H  H17  1  0.46792100  0.30901300  0.34016500  1
  H  H18  1  0.60535100  0.30657500  0.71467300  1
  H  H19  1  0.52810100  0.30774400  0.65989600  1
  H  H20  1  0.62532000  0.36815500  0.65060200  1
  H  H21  1  0.41489800  0.16737700  0.41407200  1
  H  H22  1  0.43829400  0.07602500  0.36892200  1
  H  H23  1  0.34539000  0.07592400  0.41235800  1
  H  H24  1  0.58534100  0.83068100  0.58614600  1
  H  H25  1  0.65474000  0.92223500  0.58793100  1
  H  H26  1  0.56179800  0.92196500  0.63132800  1
  H  H27  1  0.58454200  0.16783200  0.58616400  1
  H  H28  1  0.56140400  0.07644200  0.63130000  1
  H  H29  1  0.65440900  0.07668600  0.58798000  1
  H  H30  1  0.41513300  0.83023400  0.41431500  1
  H  H31  1  0.34535200  0.92146800  0.41265300  1
  H  H32  1  0.43812500  0.92157300  0.36906800  1
  C  C1  1  0.33806100  0.49898200  0.50258400  1
  C  C2  1  0.66206300  0.49892200  0.49760700  1
  C  C3  1  0.49563500  0.49907500  0.38831600  1
  C  C4  1  0.50449500  0.49859500  0.61191100  1
  C  C5  1  0.57615000  0.51344100  0.88318800  1
  C  C6  1  0.42459900  0.51777200  0.11717200  1
  C  C7  1  0.43086300  0.51712300  0.88134200  1
  C  C8  1  0.56988100  0.51431800  0.11899100  1
  C  C9  1  0.42830200  0.51876500  0.94027300  1
  C  C10  1  0.57248100  0.51545800  0.06006300  1
  C  C11  1  0.50117600  0.51722000  0.97076200  1
  C  C12  1  0.49960400  0.51743700  0.02958100  1
  C  C13  1  0.57561700  0.51474300  0.94214700  1
  C  C14  1  0.42514400  0.51891100  0.05820500  1
  C  C15  1  0.35344800  0.52095400  0.96892000  1
  C  C16  1  0.64733400  0.51354400  0.03141800  1
  C  C17  1  0.35187100  0.52109500  0.02766900  1
  C  C18  1  0.64890200  0.51324400  0.97267700  1
  C  C19  1  0.52727300  0.57923700  0.23936500  1
  C  C20  1  0.47497600  0.57929300  0.76097400  1
  C  C21  1  0.52631100  0.57424800  0.29799100  1
  C  C22  1  0.47573500  0.57434700  0.70235000  1
  C  C23  1  0.49411900  0.50028400  0.32547700  1
  C  C24  1  0.50618900  0.49959500  0.67477600  1
  C  C25  1  0.46059800  0.43122400  0.29285000  1
  C  C26  1  0.53810100  0.42959100  0.70737300  1
  C  C27  1  0.46124000  0.43756600  0.23402400  1
  C  C28  1  0.53749900  0.43580500  0.76621100  1
  C  C29  1  0.49485200  0.51085000  0.20722800  1
  C  C30  1  0.50569900  0.50996800  0.79307700  1
  C  C31  1  0.95729300  0.57865900  0.49976000  1
  C  C32  1  0.04281500  0.41953700  0.50039100  1
  C  C33  1  0.04274900  0.57869500  0.50104200  1
  C  C34  1  0.95736600  0.41950500  0.49910900  1
  C  C35  1  0.91461700  0.49906500  0.49876300  1
  C  C36  1  0.08550400  0.49912300  0.50138000  1
  C  C37  1  0.82569100  0.49901200  0.49785500  1
  C  C38  1  0.17443200  0.49908900  0.50230600  1
  C  C39  1  0.24912000  0.49901900  0.50270800  1
  C  C40  1  0.75100300  0.49894300  0.49746500  1
  C  C41  1  0.45796600  0.95255100  0.45759800  1
  C  C42  1  0.54207200  0.04544400  0.54272600  1
  C  C43  1  0.54218800  0.95277100  0.54276800  1
  C  C44  1  0.45794300  0.04522400  0.45750900  1
  C  C45  1  0.50010700  0.90657300  0.50021800  1
  C  C46  1  0.50001300  0.09139000  0.50006600  1
  C  C47  1  0.50012800  0.81065300  0.50029800  1
  C  C48  1  0.50001500  0.18726800  0.49997100  1
  C  C49  1  0.42060700  0.35110200  0.31894800  1
  C  C50  1  0.57629800  0.34845000  0.68128800  1
  C  C51  1  0.41198800  0.09397900  0.41104800  1
  C  C52  1  0.58816900  0.90407000  0.58922000  1
  C  C53  1  0.58774800  0.09445100  0.58920900  1
  C  C54  1  0.41199800  0.90360500  0.41124500  1
  N  N1  1  0.50424200  0.51434300  0.85382200  1
  N  N2  1  0.49648100  0.51521000  0.14650500  1
  N  N3  1  0.50001300  0.26437600  0.49991400  1
  N  N4  1  0.50012600  0.73352800  0.50032400  1
  O  O1  1  0.37660200  0.57586600  0.50211500  1
  O  O2  1  0.62352400  0.42203300  0.49808900  1
  O  O3  1  0.62356600  0.57581700  0.49824700  1
  O  O4  1  0.37655700  0.42207400  0.50196900  1
  O  O5  1  0.49725800  0.57587900  0.41523000  1
  O  O6  1  0.50288900  0.42203900  0.58492900  1
  O  O7  1  0.50296300  0.57548900  0.58511200  1
  O  O8  1  0.49715700  0.42237600  0.41514600  1
  O  O9  1  0.64855800  0.51235300  0.85486500  1
  O  O10  1  0.35226900  0.52025600  0.14554900  1
  O  O11  1  0.35998400  0.51577200  0.85125100  1
  O  O12  1  0.64062200  0.50980300  0.14910300  1
