# Generated by REPEAT Assigner based on pymatgen
data_DB0-m29_o80_o147_f0_pts.sym.24
_audit_creation_date              2022-05-24
_audit_creation_method            REPEAT_Assigner
_cell_length_a                    14.008797
_cell_length_b                    9.319341
_cell_length_c                    18.527291
_cell_angle_alpha                 86.912449
_cell_angle_beta                  90.620013
_cell_angle_gamma                 110.414604
_cell_volume                      2263.499775
_symmetry_space_group_name_H-M    P1
_symmetry_Int_Tables_number       1
loop_
    _symmetry_equiv_pos_site_id
    _symmetry_equiv_pos_as_xyz
    1  x,y,z
loop_
    _atom_site_type_symbol
    _atom_site_label
    _atom_site_fract_x
    _atom_site_fract_y
    _atom_site_fract_z
    _atom_type_partial_charge
    H   H1   0.886824  0.033735  0.247861  0.195244
    C   C1   0.735395  0.035550  0.889549  -0.054042
    C   C2   0.806320  0.079053  0.834648  -0.336570
    C   C3   0.895338  0.073596  0.864070  0.541248
    N   N1   0.883703  0.034802  0.935380  -0.523328
    C   C4   0.785248  0.011141  0.951109  0.304150
    C   C5   0.976928  0.088259  0.824260  -0.314618
    C   C6   0.064081  0.048471  0.850522  0.180047
    C   C7   0.123259  0.000148  0.806291  0.236438
    C   C8   0.199307  0.977700  0.847912  -0.260535
    C   C9   0.183104  0.013795  0.917590  0.283409
    N   N2   0.100494  0.057707  0.918273  -0.234637
    C   C10  0.246022  0.008607  0.981330  -0.242523
    C   C11  0.207097  0.981710  0.048231  0.388689
    C   C12  0.257379  0.958545  0.109887  -0.134708
    C   C13  0.187147  0.919279  0.165305  -0.221855
    C   C14  0.098280  0.925904  0.136028  0.379586
    N   N3   0.109472  0.962248  0.064511  -0.477152
    C   C15  0.016980  0.913621  0.175756  -0.249826
    C   C16  0.930396  0.953831  0.148545  0.208003
    C   C17  0.874354  0.011810  0.191198  -0.237654
    C   C18  0.796667  0.027929  0.149004  -0.119277
    C   C19  0.808787  0.979327  0.081200  0.214207
    N   N4   0.890178  0.933006  0.082021  0.094306
    C   C20  0.745071  0.979634  0.017563  -0.169346
    H   H2   0.792637  0.099674  0.778154  0.195259
    H   H3   0.972241  0.109334  0.766456  0.172441
    H   H4   0.323133  0.011858  0.973426  0.204587
    H   H5   0.201248  0.900437  0.221892  0.166104
    H   H6   0.021863  0.895624  0.233764  0.173224
    H   H7   0.667368  0.973854  0.025235  0.184729
    H   H8   0.074244  0.103285  0.960641  0.270435
    O   O1   0.626436  0.043138  0.146917  -0.534606
    C   C21  0.713440  0.066680  0.180252  0.585426
    O   O2   0.585692  0.768778  0.226441  -0.438938
    O   O3   0.716764  0.087941  0.249797  -0.487623
    O   O4   0.513726  0.868750  0.309173  -0.484552
    C   C22  0.550747  0.763505  0.292233  0.570088
    Fe  Fe1  0.523747  0.011640  0.224316  1.392964
    O   O5   0.386046  0.915173  0.180489  -0.636489
    O   O6   0.435796  0.103633  0.090782  -0.525582
    C   C23  0.365071  0.985882  0.122788  0.666479
    O   O7   0.563847  0.222853  0.261420  -0.490600
    O   O8   0.423832  0.096585  0.329889  -0.420139
    C   C24  0.502141  0.221799  0.314852  0.502195
    C   C25  0.456728  0.500348  0.685332  -0.192428
    C   C26  0.483307  0.635799  0.644597  0.133382
    C   C27  0.505404  0.636889  0.571044  -0.275277
    C   C28  0.550558  0.786498  0.529884  0.430425
    C   C29  0.540412  0.781564  0.449033  0.238370
    C   C30  0.459393  0.368646  0.656288  -0.051780
    C   C31  0.474796  0.367023  0.581984  0.048773
    C   C32  0.496040  0.500973  0.538852  0.071104
    C   C33  0.513972  0.500212  0.460487  0.022846
    C   C34  0.533851  0.634293  0.417217  -0.020887
    C   C35  0.542431  0.630710  0.342229  -0.157368
    C   C36  0.478207  0.224477  0.551263  -0.186012
    C   C37  0.466701  0.213757  0.470845  0.603949
    C   C38  0.502315  0.363255  0.428088  -0.190357
    C   C39  0.516264  0.362656  0.353501  -0.043683
    C   C40  0.538171  0.496357  0.311982  0.311186
    H   H9   0.511517  0.865484  0.544985  -0.021288
    H   H10  0.470291  0.806110  0.435164  0.041297
    H   H11  0.413215  0.125499  0.573245  0.117605
    H   H12  0.551432  0.210330  0.566199  0.120770
    H   H13  0.444247  0.502895  0.742563  0.179188
    O   O9   0.607121  0.081647  0.819840  -0.618423
    O   O10  0.557463  0.886030  0.906068  -0.519415
    C   C41  0.627849  0.007397  0.876335  0.647432
    O   O11  0.433263  0.771573  0.737694  -0.592280
    O   O12  0.570206  0.903884  0.667549  -0.454239
    C   C42  0.494100  0.776074  0.683028  0.531764
    O   O13  0.424900  0.242020  0.774796  -0.538043
    O   O14  0.366199  0.948921  0.851200  -0.557706
    C   C43  0.282954  0.941080  0.815869  0.658713
    O   O15  0.480756  0.125093  0.689698  -0.532164
    C   C44  0.451308  0.237752  0.707453  0.625427
    O   O16  0.283417  0.930996  0.745534  -0.507906
    Fe  Fe2  0.470561  0.982658  0.774741  1.444248
    F   F1   0.912447  0.848197  0.032413  -0.028922
    F   F2   0.364722  0.138831  0.456878  -0.262089
    F   F3   0.652831  0.848584  0.546324  -0.265364
    F   F4   0.625068  0.898320  0.420885  -0.216782
    F   F5   0.522234  0.124793  0.451322  -0.217677
    F   F6   0.542911  0.489187  0.239302  -0.158389
    F   F7   0.110319  0.983636  0.734201  -0.132660
