data_DB0-m3_o12_o23_f0_pcu_repeat
_audit_creation_date              2024-02-23
_audit_creation_method            'Materials Studio'
_symmetry_space_group_name_H-M    'P1'
_symmetry_Int_Tables_number       1
_symmetry_cell_setting            triclinic
loop_
_symmetry_equiv_pos_as_xyz
  x,y,z
_cell_length_a                    10.0759
_cell_length_b                    11.2416
_cell_length_c                    16.0291
_cell_angle_alpha                 90.0994
_cell_angle_beta                  99.2849
_cell_angle_gamma                 110.7209
loop_
_atom_site_label
_atom_site_type_symbol
_atom_site_fract_x
_atom_site_fract_y
_atom_site_fract_z
_atom_site_U_iso_or_equiv
_atom_site_adp_type
_atom_site_occupancy
O1     O     0.12406   0.01907   0.13633   0.00000  Uiso   1.00
O2     O     0.88299   0.98277   0.11339   0.00000  Uiso   1.00
C1     C     0.00426   0.00114   0.16537   0.00000  Uiso   1.00
O3     O     0.16508   0.20553   0.01574   0.00000  Uiso   1.00
O4     O     0.92408   0.16891   0.99292   0.00000  Uiso   1.00
C2     C     0.05829   0.24807   0.00567   0.00000  Uiso   1.00
Zn1    Zn    0.15810   0.02351   0.01477   0.00000  Uiso   1.00
Zn2    Zn    0.84208   0.97656   0.98513   0.00000  Uiso   1.00
O5     O     0.11719   0.01730   0.88651   0.00000  Uiso   1.00
O6     O     0.87612   0.98100   0.86357   0.00000  Uiso   1.00
O7     O     0.07609   0.83116   0.00698   0.00000  Uiso   1.00
O8     O     0.83509   0.79454   0.98416   0.00000  Uiso   1.00
C3     C     0.99592   0.99893   0.83453   0.00000  Uiso   1.00
C4     C     0.94189   0.75200   0.99423   0.00000  Uiso   1.00
H1     H     0.64948   0.08522   0.05544   0.00000  Uiso   1.00
H2     H     0.35069   0.91485   0.94437   0.00000  Uiso   1.00
N1     N     0.36949   0.05259   0.03371   0.00000  Uiso   1.00
C5     C     0.42219   0.98790   0.99187   0.00000  Uiso   1.00
H3     H     0.55449   0.88061   0.92257   0.00000  Uiso   1.00
N2     N     0.63068   0.94748   0.96609   0.00000  Uiso   1.00
C6     C     0.57798   0.01218   0.00793   0.00000  Uiso   1.00
H4     H     0.44566   0.11947   0.07723   0.00000  Uiso   1.00
H5     H     0.12853   0.63240   0.01222   0.00000  Uiso   1.00
H6     H     0.87165   0.36766   0.98768   0.00000  Uiso   1.00
C7     C     0.08963   0.38539   0.00865   0.00000  Uiso   1.00
C8     C     0.98331   0.43117   0.99839   0.00000  Uiso   1.00
H7     H     0.79933   0.54997   0.98061   0.00000  Uiso   1.00
C9     C     0.91054   0.61467   0.99125   0.00000  Uiso   1.00
C10    C     0.01686   0.56890   0.00151   0.00000  Uiso   1.00
H8     H     0.20084   0.45009   0.01929   0.00000  Uiso   1.00
C11    C     0.14293   0.08998   0.56295   0.00000  Uiso   1.00
C12    C     0.87998   0.04287   0.53382   0.00000  Uiso   1.00
C13    C     0.88946   0.05203   0.44054   0.00000  Uiso   1.00
H9     H     0.17963   0.18104   0.44628   0.00000  Uiso   1.00
H10    H     0.15808   0.18864   0.58404   0.00000  Uiso   1.00
H11    H     0.77321   0.97332   0.54134   0.00000  Uiso   1.00
H12    H     0.89283   0.13750   0.56168   0.00000  Uiso   1.00
H13    H     0.91965   0.15306   0.42451   0.00000  Uiso   1.00
H14    H     0.78316   0.99585   0.40229   0.00000  Uiso   1.00
C14    C     0.00527   0.00129   0.25509   0.00000  Uiso   1.00
C15    C     0.99786   0.99950   0.57853   0.00000  Uiso   1.00
C16    C     0.14889   0.08359   0.46928   0.00000  Uiso   1.00
C17    C     0.00231   0.00055   0.42137   0.00000  Uiso   1.00
C18    C     0.96594   0.86540   0.44898   0.00000  Uiso   1.00
C19    C     0.97331   0.86628   0.54413   0.00000  Uiso   1.00
C20    C     0.00455   0.00109   0.33024   0.00000  Uiso   1.00
C21    C     0.99563   0.99897   0.66966   0.00000  Uiso   1.00
C22    C     0.99490   0.99877   0.74481   0.00000  Uiso   1.00
H15    H     0.06329   0.83675   0.57356   0.00000  Uiso   1.00
H16    H     0.87085   0.79830   0.55914   0.00000  Uiso   1.00
H17    H     0.04373   0.82469   0.43122   0.00000  Uiso   1.00
H18    H     0.23032   0.06284   0.59908   0.00000  Uiso   1.00
H19    H     0.23054   0.04251   0.45895   0.00000  Uiso   1.00
H20    H     0.85574   0.80581   0.41729   0.00000  Uiso   1.00
