# generated using pymatgen
data_Fe2H23C40N3O19
_symmetry_space_group_name_H-M   'P 1'
_cell_length_a   15.28312100
_cell_length_b   12.19101200
_cell_length_c   13.47244600
_cell_angle_alpha   88.97237600
_cell_angle_beta   101.82055000
_cell_angle_gamma   106.62517800
_symmetry_Int_Tables_number   1
_chemical_formula_structural   Fe2H23C40N3O19
_chemical_formula_sum   'Fe2 H23 C40 N3 O19'
_cell_volume   2351.99032990
_cell_formula_units_Z   1
loop_
 _symmetry_equiv_pos_site_id
 _symmetry_equiv_pos_as_xyz
  1  'x, y, z'
loop_
 _atom_site_type_symbol
 _atom_site_label
 _atom_site_symmetry_multiplicity
 _atom_site_fract_x
 _atom_site_fract_y
 _atom_site_fract_z
 _atom_site_occupancy
  Fe  Fe1  1  0.53057000  0.01691400  0.78804700  1
  Fe  Fe2  1  0.53694000  0.01911300  0.24255000  1
  H  H1  1  0.81354800  0.99507700  0.26092000  1
  H  H2  1  0.95992200  0.97911700  0.22961400  1
  H  H3  1  0.84630200  0.93997300  0.91196200  1
  H  H4  1  0.00436000  0.05893200  0.93322100  1
  H  H5  1  0.08726000  0.00331000  0.80309000  1
  H  H6  1  0.19883100  0.02251900  0.11911400  1
  H  H7  1  0.52834700  0.44522200  0.67966200  1
  H  H8  1  0.48377400  0.41669000  0.35377800  1
  H  H9  1  0.54690300  0.60168300  0.37115400  1
  H  H10  1  0.55103600  0.15382900  0.53772300  1
  H  H11  1  0.48455900  0.87923000  0.48954700  1
  H  H12  1  0.44391700  0.56991600  0.72906800  1
  H  H13  1  0.30917000  0.48277400  0.78321500  1
  H  H14  1  0.21175900  0.40370900  0.68669900  1
  H  H15  1  0.22715000  0.55308400  0.71456500  1
  H  H16  1  0.03841100  0.86008300  0.18339900  1
  H  H17  1  0.06998600  0.68799000  0.19904100  1
  H  H18  1  0.09425100  0.63286600  0.08743200  1
  H  H19  1  0.97596800  0.59481600  0.10724200  1
  H  H20  1  0.20316100  0.95184900  0.69824100  1
  H  H21  1  0.25979800  0.09871900  0.55248700  1
  H  H22  1  0.21136400  0.21508100  0.56775700  1
  H  H23  1  0.13849300  0.06836000  0.56128400  1
  C  C1  1  0.82000200  0.98431400  0.18354400  1
  C  C2  1  0.90248100  0.97302700  0.16605500  1
  C  C3  1  0.91185400  0.95594400  0.06849600  1
  C  C4  1  0.83801100  0.95231800  0.98829400  1
  C  C5  1  0.75425900  0.96389000  0.00480200  1
  C  C6  1  0.74502700  0.97758000  0.10440800  1
  C  C7  1  0.00052200  0.94362800  0.05055600  1
  C  C8  1  0.04072400  0.00589600  0.98018200  1
  C  C9  1  0.14595300  0.00928300  0.86529700  1
  C  C10  1  0.23277400  0.01957400  0.84568300  1
  C  C11  1  0.30954500  0.02888800  0.92460100  1
  C  C12  1  0.29691100  0.02626400  0.02514300  1
  C  C13  1  0.20881900  0.01822000  0.04245300  1
  C  C14  1  0.13327300  0.00803400  0.96314800  1
  C  C15  1  0.53112400  0.23047700  0.70798200  1
  C  C16  1  0.40068000  0.04182000  0.89753600  1
  C  C17  1  0.68090200  0.96815400  0.91549500  1
  C  C18  1  0.46809200  0.80349800  0.66778100  1
  C  C19  1  0.52453900  0.21570500  0.34719700  1
  C  C20  1  0.37045100  0.02435600  0.11537900  1
  C  C21  1  0.65758000  0.97990000  0.13140300  1
  C  C22  1  0.53135400  0.81241400  0.33432700  1
  C  C23  1  0.53643800  0.29423100  0.61565700  1
  C  C24  1  0.52234100  0.40083200  0.60921500  1
  C  C25  1  0.50368500  0.44866600  0.51537300  1
  C  C26  1  0.50225400  0.38628000  0.42859200  1
  C  C27  1  0.52414000  0.28316600  0.43653300  1
  C  C28  1  0.54110600  0.23804300  0.53053600  1
  C  C29  1  0.51758200  0.63231700  0.42753800  1
  C  C30  1  0.50679100  0.74048400  0.41778000  1
  C  C31  1  0.48368000  0.79036900  0.49464400  1
  C  C32  1  0.46562500  0.73198500  0.57965900  1
  C  C33  1  0.45862200  0.61547900  0.58141100  1
  C  C34  1  0.49078300  0.56585200  0.50758600  1
  C  C35  1  0.32073100  0.52066100  0.62895100  1
  C  C36  1  0.26408900  0.48809200  0.70858300  1
  C  C37  1  0.02707600  0.76476500  0.05925900  1
  C  C38  1  0.04280400  0.66415400  0.11713500  1
  C  C39  1  0.23736500  0.12224000  0.70085400  1
  C  C40  1  0.20999500  0.12624300  0.58846700  1
  N  N1  1  0.41480500  0.54809600  0.65364500  1
  N  N2  1  0.04237900  0.86645900  0.10818000  1
  N  N3  1  0.24254100  0.02296000  0.74375400  1
  O  O1  1  0.58724900  0.16609600  0.73315400  1
  O  O2  1  0.47315000  0.12797600  0.93675900  1
  O  O3  1  0.45318300  0.20761200  0.74061000  1
  O  O4  1  0.40559300  0.97783500  0.82236000  1
  O  O5  1  0.61151900  0.00847400  0.92383700  1
  O  O6  1  0.68966000  0.94151000  0.82485500  1
  O  O7  1  0.52168400  0.90979100  0.67264400  1
  O  O8  1  0.42367100  0.76412700  0.74051800  1
  O  O9  1  0.55362200  0.12391100  0.36260200  1
  O  O10  1  0.49340200  0.24332500  0.25488700  1
  O  O11  1  0.45742100  0.03881800  0.10892400  1
  O  O12  1  0.34770700  0.00346000  0.20406900  1
  O  O13  1  0.61901700  0.84706500  0.32630100  1
  O  O14  1  0.66052100  0.04925300  0.20624200  1
  O  O15  1  0.47338900  0.87000500  0.29266100  1
  O  O16  1  0.57965200  0.90035700  0.09396200  1
  O  O17  1  0.28138900  0.52371700  0.54098700  1
  O  O18  1  0.99945300  0.75405800  0.96741200  1
  O  O19  1  0.25594100  0.20919000  0.75385400  1
