# generated using pymatgen
data_Fe2H22(C3O)17
_symmetry_space_group_name_H-M   'P 1'
_cell_length_a   15.90941400
_cell_length_b   17.07295500
_cell_length_c   11.35402100
_cell_angle_alpha   108.24446400
_cell_angle_beta   87.98275400
_cell_angle_gamma   108.59135400
_symmetry_Int_Tables_number   1
_chemical_formula_structural   Fe2H22(C3O)17
_chemical_formula_sum   'Fe2 H22 C51 O17'
_cell_volume   2768.94977706
_cell_formula_units_Z   1
loop_
 _symmetry_equiv_pos_site_id
 _symmetry_equiv_pos_as_xyz
  1  'x, y, z'
loop_
 _atom_site_type_symbol
 _atom_site_label
 _atom_site_symmetry_multiplicity
 _atom_site_fract_x
 _atom_site_fract_y
 _atom_site_fract_z
 _atom_site_occupancy
  Fe  Fe1  1  0.52496900  0.00646400  0.20861800  1
  Fe  Fe2  1  0.50819900  0.00281500  0.71270700  1
  H  H1  1  0.93332900  0.02137200  0.77986900  1
  H  H2  1  0.18634900  0.99295600  0.77992200  1
  H  H3  1  0.04327100  0.99077200  0.81726900  1
  H  H4  1  0.79104900  0.01930900  0.72182600  1
  H  H5  1  0.08063300  0.98660400  0.24055700  1
  H  H6  1  0.94066900  0.99286400  0.28397100  1
  H  H7  1  0.80094300  0.99674600  0.22633600  1
  H  H8  1  0.50728000  0.27211100  0.36698400  1
  H  H9  1  0.50564700  0.43451000  0.73863500  1
  H  H10  1  0.50690500  0.31839700  0.81599500  1
  H  H11  1  0.46930900  0.55915700  0.17682100  1
  H  H12  1  0.46712400  0.67603300  0.10312200  1
  H  H13  1  0.49733200  0.72773200  0.55188000  1
  H  H14  1  0.59679700  0.53383400  0.63991400  1
  H  H15  1  0.58755700  0.64886500  0.56503900  1
  H  H16  1  0.39401100  0.46110200  0.27649400  1
  H  H17  1  0.40611700  0.34604300  0.34925900  1
  H  H18  1  0.24188200  0.01721200  0.48501900  1
  H  H19  1  0.23765800  0.14279700  0.65949300  1
  H  H20  1  0.23596200  0.27701900  0.62370400  1
  H  H21  1  0.23947100  0.28537500  0.41139200  1
  H  H22  1  0.24571800  0.16190900  0.23575400  1
  C  C1  1  0.88298400  0.01044600  0.84394900  1
  C  C2  1  0.28175900  0.99775700  0.91261800  1
  C  C3  1  0.19870500  0.99412200  0.87347000  1
  C  C4  1  0.13098800  0.99366200  0.95311700  1
  C  C5  1  0.04985300  0.99336600  0.91235600  1
  C  C6  1  0.98069700  0.99512300  0.99123300  1
  C  C7  1  0.80138100  0.01151000  0.81051500  1
  C  C8  1  0.73179400  0.99753200  0.88457700  1
  C  C9  1  0.89809600  0.99824400  0.95589500  1
  C  C10  1  0.82959300  0.99204300  0.03645100  1
  C  C11  1  0.74504300  0.98844600  0.99883500  1
  C  C12  1  0.29603400  0.00017000  0.03422800  1
  C  C13  1  0.22737600  0.99753800  0.11303800  1
  C  C14  1  0.14452800  0.99392300  0.07212600  1
  C  C15  1  0.07472700  0.99060000  0.14851000  1
  C  C16  1  0.99452800  0.99216600  0.10899700  1
  C  C17  1  0.92887200  0.99254800  0.19062700  1
  C  C18  1  0.84762200  0.99288900  0.15556700  1
  C  C19  1  0.66997800  0.97794200  0.07917700  1
  C  C20  1  0.48832100  0.84176900  0.23259700  1
  C  C21  1  0.38489600  0.01714000  0.08774400  1
  C  C22  1  0.49946100  0.13099700  0.41541100  1
  C  C23  1  0.51109200  0.86986000  0.50567000  1
  C  C24  1  0.64376800  0.98756300  0.83611300  1
  C  C25  1  0.50523800  0.15754800  0.68846600  1
  C  C26  1  0.35188400  0.99965000  0.82350900  1
  C  C27  1  0.50564400  0.21465900  0.50865100  1
  C  C28  1  0.50727700  0.28248400  0.46587300  1
  C  C29  1  0.50674900  0.36174600  0.54713700  1
  C  C30  1  0.50739000  0.37363700  0.67306200  1
  C  C31  1  0.50678700  0.30675900  0.71684100  1
  C  C32  1  0.50535500  0.22646900  0.63588900  1
  C  C33  1  0.55148800  0.51730200  0.56056000  1
  C  C34  1  0.54567500  0.58291200  0.51813300  1
  C  C35  1  0.48937200  0.56407200  0.41552300  1
  C  C36  1  0.44008000  0.47805800  0.35511200  1
  C  C37  1  0.44684700  0.41236200  0.39667100  1
  C  C38  1  0.50218400  0.43150800  0.50016100  1
  C  C39  1  0.47382600  0.62134100  0.24443000  1
  C  C40  1  0.47367300  0.68877900  0.20230000  1
  C  C41  1  0.48545000  0.77152900  0.28435300  1
  C  C42  1  0.49406400  0.78449400  0.41149300  1
  C  C43  1  0.49122500  0.71584100  0.45287900  1
  C  C44  1  0.48360800  0.63445900  0.37023600  1
  C  C45  1  0.24523700  0.00328600  0.24211000  1
  C  C46  1  0.24374500  0.07987900  0.34721800  1
  C  C47  1  0.24195300  0.07580700  0.46718000  1
  C  C48  1  0.23926300  0.14650600  0.56609400  1
  C  C49  1  0.23822300  0.22168700  0.54609300  1
  C  C50  1  0.24014500  0.22629300  0.42704100  1
  C  C51  1  0.24312100  0.15586400  0.32777700  1
  O  O1  1  0.61599200  0.02371700  0.08749300  1
  O  O2  1  0.47054500  0.82223300  0.11287700  1
  O  O3  1  0.65479300  0.92074900  0.13858300  1
  O  O4  1  0.51481000  0.92407400  0.30245700  1
  O  O5  1  0.40580500  0.95546300  0.11327300  1
  O  O6  1  0.44209100  0.09635800  0.11812500  1
  O  O7  1  0.55929000  0.12646200  0.33333333  1
  O  O8  1  0.42997100  0.06210100  0.40659900  1
  O  O9  1  0.45591500  0.88192100  0.59302100  1
  O  O10  1  0.58785500  0.93091800  0.51365500  1
  O  O11  1  0.63394800  0.04325100  0.78462000  1
  O  O12  1  0.57564000  0.91919000  0.83517700  1
  O  O13  1  0.33541800  0.00222800  0.71258500  1
  O  O14  1  0.51647000  0.08468100  0.61871900  1
  O  O15  1  0.43025600  0.99735500  0.85173600  1
  O  O16  1  0.49569600  0.16977600  0.80747000  1
  O  O17  1  0.25779300  0.94172400  0.26245900  1
