# Generated by REPEAT Assigner based on pymatgen
data_DB0-m9_o27_o28_f0_sra.sym.24_sqe
_audit_creation_date              2022-05-24
_audit_creation_method            REPEAT_Assigner
_cell_length_a                    6.712093
_cell_length_b                    27.207908
_cell_length_c                    32.045518
_cell_angle_alpha                 101.463072
_cell_angle_beta                  89.556096
_cell_angle_gamma                 90.523039
_cell_volume                      5735.138316
_symmetry_space_group_name_H-M    P1
_symmetry_Int_Tables_number       1
loop_
    _symmetry_equiv_pos_site_id
    _symmetry_equiv_pos_as_xyz
    1  x,y,z
loop_
    _atom_site_type_symbol
    _atom_site_label
    _atom_site_fract_x
    _atom_site_fract_y
    _atom_site_fract_z
    _atom_type_partial_charge
    O  O1   0.493527  0.441940  0.460994  -0.364310
    O  O2   0.759284  0.442509  0.522259  -0.498664
    O  O3   0.945743  0.532009  0.555178  -0.495056
    C  C1   0.617120  0.451382  0.552149  0.503937
    O  O4   0.815895  0.462205  0.439171  -0.543456
    O  O5   0.997599  0.551374  0.473648  -0.444171
    C  C2   0.648534  0.435912  0.434517  0.571530
    O  O6   0.444699  0.473953  0.548488  -0.498959
    O  O7   0.630985  0.532258  0.502192  -0.553385
    V  V1   0.904497  0.493319  0.497081  1.442023
    O  O8   0.318047  0.527239  0.446720  -0.575037
    C  C3   0.153069  0.553532  0.448190  0.588167
    O  O9   0.263384  0.560208  0.535946  -0.477775
    C  C4   0.116736  0.556994  0.563786  0.465713
    V  V2   0.404810  0.504579  0.498474  1.409529
    O  O10  0.128629  0.465708  0.494580  -0.541499
    C  C5   0.948303  0.600485  0.628502  -0.173694
    H  H1   0.820521  0.576250  0.619792  0.105328
    C  C6   0.942651  0.637195  0.664907  0.174028
    H  H2   0.810631  0.641686  0.684794  0.008106
    C  C7   0.105101  0.668259  0.675945  -0.508248
    C  C8   0.273603  0.662571  0.650553  0.202816
    H  H3   0.400896  0.687007  0.659167  0.023754
    C  C9   0.278510  0.626110  0.613837  -0.242486
    H  H4   0.409647  0.621946  0.593685  0.141379
    C  C10  0.115620  0.595083  0.602839  0.131773
    N  N1   0.257452  0.736089  0.726913  -0.374948
    N  N2   0.248016  0.771700  0.761573  -0.232342
    C  C11  0.077083  0.779350  0.784045  0.844848
    N  N3   0.916033  0.750686  0.771345  -0.306322
    N  N4   0.925709  0.714962  0.736810  -0.319447
    C  C12  0.096331  0.707383  0.714263  0.880753
    C  C13  0.886202  0.828908  0.843163  0.231285
    H  H5   0.754453  0.807600  0.831435  0.029680
    C  C14  0.874471  0.866405  0.879009  -0.302761
    H  H6   0.733640  0.874444  0.895429  0.169431
    C  C15  0.042702  0.893432  0.894059  0.142104
    C  C16  0.222436  0.883139  0.873137  -0.339098
    H  H7   0.354287  0.904357  0.884934  0.155431
    C  C17  0.233716  0.845996  0.837019  0.561503
    C  C18  0.065667  0.818791  0.822105  -0.612476
    C  C19  0.935988  0.681827  0.307373  0.492616
    N  N5   0.104765  0.681384  0.329894  -0.335689
    C  C20  0.263666  0.709516  0.323009  0.483349
    C  C21  0.255417  0.739244  0.292885  0.018685
    C  C22  0.085552  0.739402  0.269316  -0.034198
    C  C23  0.924931  0.710502  0.276484  -0.031344
    C  C24  0.416380  0.768716  0.286245  -0.315273
    C  C25  0.406304  0.798136  0.255840  0.411642
    C  C26  0.236235  0.797528  0.231815  -0.284816
    C  C27  0.076681  0.768160  0.238616  0.133067
    C  C28  0.908455  0.767592  0.214464  -0.087862
    C  C29  0.747076  0.738302  0.221239  -0.127884
    C  C30  0.754885  0.709938  0.252458  -0.082179
    C  C31  0.224942  0.826468  0.201144  0.616420
    N  N6   0.059767  0.825192  0.177098  -0.402872
    C  C32  0.902709  0.795991  0.183314  0.571559
    O  O11  0.780012  0.653015  0.313981  -0.528396
    O  O12  0.429544  0.709507  0.346162  -0.493016
    H  H8   0.550079  0.768821  0.304855  0.183217
    O  O13  0.377946  0.856923  0.196137  -0.516687
    O  O14  0.741399  0.793303  0.158439  -0.528826
    H  H9   0.614411  0.737696  0.202226  0.130618
    H  H10  0.628452  0.687065  0.257874  0.128740
    C  C33  0.870061  0.871994  0.133603  -0.384572
    H  H11  0.734084  0.864478  0.149469  0.277599
    C  C34  0.861901  0.900668  0.102695  -0.044767
    H  H12  0.720151  0.914212  0.094063  0.097240
    C  C35  0.034511  0.913283  0.083656  -0.014955
    C  C36  0.215362  0.896626  0.095127  -0.050632
    H  H13  0.350767  0.906165  0.079962  0.124909
    C  C37  0.223644  0.867115  0.125432  -0.368810
    H  H14  0.365910  0.852840  0.132747  0.227683
    C  C38  0.051060  0.854926  0.145085  0.490367
    C  C39  0.296700  0.629077  0.367721  -0.400315
    H  H15  0.428092  0.635853  0.349962  0.252787
    C  C40  0.307603  0.597388  0.396240  -0.006048
    H  H16  0.447683  0.580140  0.401138  0.127742
    C  C41  0.140295  0.587674  0.418542  -0.076593
    C  C42  0.961335  0.609410  0.412081  -0.017809
    H  H17  0.829918  0.601752  0.429506  0.083482
    C  C43  0.949033  0.640071  0.382688  -0.350538
    H  H18  0.808231  0.656882  0.377719  0.239123
    C  C44  0.117002  0.650133  0.360564  0.489709
    C  C45  0.468954  0.220567  0.829587  0.461214
    N  N7   0.583551  0.179261  0.824207  -0.191712
    C  C46  0.707688  0.167936  0.790382  0.468845
    C  C47  0.716950  0.198150  0.760548  -0.103495
    C  C48  0.600922  0.240259  0.765736  0.089368
    C  C49  0.477004  0.251730  0.800537  -0.108060
    C  C50  0.840174  0.186148  0.725380  -0.072942
    C  C51  0.845928  0.216421  0.695508  -0.065015
    C  C52  0.729607  0.258827  0.701043  -0.099990
    C  C53  0.608070  0.270637  0.736189  0.073927
    C  C54  0.493018  0.312887  0.741544  -0.084629
    C  C55  0.370290  0.325022  0.776765  -0.074561
    C  C56  0.361661  0.294286  0.806224  -0.069735
    C  C57  0.732473  0.289142  0.671252  0.434093
    N  N8   0.618589  0.330657  0.676794  -0.139996
    C  C58  0.501043  0.342967  0.711653  0.437132
    O  O15  0.349599  0.232210  0.863885  -0.486224
    O  O16  0.818584  0.126294  0.784912  -0.499477
    H  H19  0.931236  0.152933  0.721091  0.127855
    H  H20  0.941519  0.206914  0.667825  0.118479
    O  O17  0.844949  0.276189  0.636024  -0.474896
    O  O18  0.394008  0.385269  0.717980  -0.493963
    H  H21  0.279803  0.358339  0.781110  0.127781
    H  H22  0.264507  0.303516  0.833677  0.121052
    C  C59  0.452150  0.388144  0.639396  -0.191997
    H  H23  0.317233  0.385070  0.657259  0.153961
    C  C60  0.452711  0.417775  0.609164  -0.029200
    H  H24  0.320738  0.438422  0.604417  0.079146
    C  C61  0.619614  0.420392  0.584413  -0.012067
    C  C62  0.786909  0.393519  0.590082  -0.093746
    H  H25  0.918444  0.395767  0.570851  0.124443
    C  C63  0.787520  0.364235  0.620661  -0.163387
    H  H26  0.921794  0.344675  0.625590  0.147481
    C  C64  0.619824  0.361347  0.645440  0.220352
    C  C65  0.736864  0.120745  0.862517  -0.199176
    H  H27  0.877071  0.124860  0.846752  0.161957
    C  C66  0.725369  0.090145  0.892027  -0.066518
    H  H28  0.855367  0.069939  0.898739  0.097642
    C  C67  0.547933  0.085107  0.912787  -0.044917
    C  C68  0.382475  0.110988  0.904287  -0.080791
    H  H29  0.243095  0.106893  0.920424  0.132428
    C  C69  0.394725  0.142327  0.875423  -0.199039
    H  H30  0.263346  0.161894  0.868620  0.150952
    C  C70  0.571798  0.147189  0.854338  0.273177
    C  C71  0.456770  0.370883  0.386458  0.107873
    C  C72  0.443600  0.334335  0.349932  0.461187
    C  C73  0.608445  0.322817  0.323965  -0.627666
    C  C74  0.785961  0.347946  0.334391  0.191208
    H  H31  0.914986  0.338963  0.313994  0.012738
    C  C75  0.798214  0.384999  0.370490  -0.226688
    H  H32  0.936960  0.405036  0.378439  0.181132
    C  C76  0.633918  0.396398  0.396580  -0.045931
    N  N9   0.761698  0.269873  0.262507  -0.264367
    N  N10  0.750950  0.235087  0.227349  -0.371179
    C  C77  0.573912  0.214386  0.214206  0.876402
    N  N11  0.407872  0.228922  0.236927  -0.351165
    N  N12  0.418806  0.263496  0.272246  -0.267766
    C  C78  0.595839  0.284317  0.285298  0.880867
    C  C79  0.379308  0.158708  0.159293  -0.050939
    H  H33  0.244230  0.173436  0.175485  0.072859
    C  C80  0.368676  0.122686  0.122429  0.292739
    C  C81  0.541053  0.103578  0.101995  -0.057944
    C  C82  0.724069  0.120837  0.118172  -0.145409
    H  H34  0.859174  0.105837  0.102158  0.157055
    C  C83  0.734649  0.157432  0.154660  0.028702
    H  H35  0.878085  0.171100  0.167284  0.072644
    C  C84  0.562310  0.176166  0.175339  -0.376405
    O  O19  0.700229  0.035035  0.955377  -0.514951
    O  O20  0.354971  0.054776  0.046689  -0.455915
    O  O21  0.193161  0.961296  0.039331  -0.527001
    C  C85  0.529548  0.064734  0.063538  0.528812
    O  O22  0.359729  0.046884  0.960008  -0.558403
    O  O23  0.197509  0.953055  0.947423  -0.483603
    C  C86  0.534536  0.052498  0.943753  0.598388
    O  O24  0.695934  0.045393  0.047494  -0.487130
    O  O25  0.521093  0.967425  0.994796  -0.510797
    V  V3   0.248362  0.005088  0.998467  1.424807
    O  O26  0.856303  0.941886  0.949760  -0.510109
    C  C87  0.030735  0.932866  0.932116  0.533856
    O  O27  0.851596  0.951563  0.036640  -0.502443
    C  C88  0.025586  0.944839  0.051886  0.550983
    V  V4   0.747969  0.992362  0.997219  1.398789
    O  O28  0.023343  0.030052  0.000920  -0.491166
    F  F1   0.563994  0.827187  0.249303  -0.166472
    F  F2   0.295074  0.382197  0.412025  -0.154195
    F  F3   0.269106  0.309610  0.339676  -0.210442
    F  F4   0.188874  0.105590  0.106583  -0.188693
    F  F5   0.410074  0.836044  0.816340  -0.255473
