# generated using pymatgen
data_ZnH17C29N3O7
_symmetry_space_group_name_H-M   'P 1'
_cell_length_a   12.95193200
_cell_length_b   14.09706500
_cell_length_c   27.65865800
_cell_angle_alpha   90.00091100
_cell_angle_beta   93.53283300
_cell_angle_gamma   88.91052400
_symmetry_Int_Tables_number   1
_chemical_formula_structural   ZnH17C29N3O7
_chemical_formula_sum   'Zn2 H34 C58 N6 O14'
_cell_volume   5039.52328733
_cell_formula_units_Z   2
loop_
 _symmetry_equiv_pos_site_id
 _symmetry_equiv_pos_as_xyz
  1  'x, y, z'
loop_
 _atom_site_type_symbol
 _atom_site_label
 _atom_site_symmetry_multiplicity
 _atom_site_fract_x
 _atom_site_fract_y
 _atom_site_fract_z
 _atom_site_occupancy
  Zn  Zn1  1  0.34125100  0.49381300  0.49502800  1
  Zn  Zn2  1  0.57601400  0.50479200  0.50258200  1
  H  H1  1  0.29824400  0.53810400  0.64595200  1
  H  H2  1  0.30770700  0.44955500  0.34212900  1
  H  H3  1  0.29165000  0.53880400  0.73358000  1
  H  H4  1  0.30245200  0.44822500  0.25424400  1
  H  H5  1  0.40468300  0.72748700  0.87474100  1
  H  H6  1  0.43580700  0.26760000  0.12074200  1
  H  H7  1  0.60105500  0.56815400  0.25713800  1
  H  H8  1  0.60335300  0.43903100  0.74906100  1
  H  H9  1  0.45485200  0.73781100  0.11660500  1
  H  H10  1  0.47887100  0.26025000  0.88122500  1
  H  H11  1  0.45198800  0.73790800  0.03179500  1
  H  H12  1  0.47871800  0.26002500  0.96594400  1
  H  H13  1  0.40408500  0.73366800  0.95943000  1
  H  H14  1  0.43323900  0.26129000  0.03598900  1
  H  H15  1  0.35663200  0.00702200  0.52367900  1
  H  H16  1  0.56065000  0.99158300  0.47395200  1
  H  H17  1  0.96860200  0.56136900  0.54409800  1
  H  H18  1  0.94862500  0.43736800  0.45344300  1
  H  H19  1  0.72098400  0.47384200  0.32499900  1
  H  H20  1  0.77026900  0.52725800  0.38048000  1
  H  H21  1  0.76860000  0.61049300  0.27771600  1
  H  H22  1  0.87501800  0.58036700  0.31887300  1
  H  H23  1  0.66498900  0.73002400  0.29064000  1
  H  H24  1  0.69163000  0.81119400  0.33933500  1
  H  H25  1  0.54144200  0.70855000  0.35314600  1
  H  H26  1  0.64515700  0.69745300  0.39961100  1
  H  H27  1  0.71373200  0.53898100  0.68928000  1
  H  H28  1  0.76967700  0.49005100  0.63671700  1
  H  H29  1  0.77435800  0.40351100  0.73885200  1
  H  H30  1  0.87817900  0.44049300  0.70462000  1
  H  H31  1  0.68367800  0.27955400  0.71864300  1
  H  H32  1  0.72000700  0.20152600  0.67131100  1
  H  H33  1  0.56015000  0.29645700  0.64829300  1
  H  H34  1  0.66371700  0.31479900  0.60868600  1
  C  C1  1  0.44444600  0.68437100  0.50217300  1
  C  C2  1  0.47282500  0.31423500  0.49544500  1
  C  C3  1  0.45766600  0.49130900  0.59349000  1
  C  C4  1  0.45967100  0.50721900  0.40410600  1
  C  C5  1  0.43095100  0.57437000  0.82118200  1
  C  C6  1  0.44528900  0.42189900  0.17519800  1
  C  C7  1  0.45580900  0.40972400  0.82343200  1
  C  C8  1  0.45070300  0.58751300  0.17372500  1
  C  C9  1  0.53743800  0.46127700  0.72584300  1
  C  C10  1  0.53775300  0.54173300  0.27645400  1
  C  C11  1  0.54269900  0.46080000  0.67600900  1
  C  C12  1  0.54226100  0.54272100  0.32659700  1
  C  C13  1  0.36622400  0.51572500  0.66792100  1
  C  C14  1  0.37308400  0.47628900  0.32424900  1
  C  C15  1  0.36236300  0.51699200  0.71756900  1
  C  C16  1  0.37005400  0.47464900  0.27441100  1
  C  C17  1  0.44796700  0.48989400  0.74668100  1
  C  C18  1  0.45236100  0.50725000  0.25034900  1
  C  C19  1  0.44194100  0.49459800  0.89775500  1
  C  C20  1  0.44493200  0.50196900  0.09889600  1
  C  C21  1  0.42993700  0.57702100  0.87117300  1
  C  C22  1  0.44340700  0.41912300  0.12513600  1
  C  C23  1  0.41662700  0.66184100  0.89463300  1
  C  C24  1  0.43940700  0.33373900  0.10124300  1
  C  C25  1  0.45445700  0.41040400  0.87342700  1
  C  C26  1  0.44826700  0.58667600  0.12362600  1
  C  C27  1  0.45615900  0.48861100  0.64667100  1
  C  C28  1  0.45900600  0.50943400  0.35083300  1
  C  C29  1  0.44078400  0.58470300  0.02271000  1
  C  C30  1  0.45004000  0.41197700  0.97403900  1
  C  C31  1  0.44465500  0.41367000  0.02446600  1
  C  C32  1  0.43381700  0.58261600  0.97197500  1
  C  C33  1  0.44337800  0.50011200  0.04853600  1
  C  C34  1  0.44182400  0.49639100  0.94807200  1
  C  C35  1  0.44658400  0.66956000  0.04853000  1
  C  C36  1  0.46481300  0.32777200  0.94873300  1
  C  C37  1  0.45016200  0.67027200  0.09822100  1
  C  C38  1  0.46686000  0.32725200  0.89918700  1
  C  C39  1  0.41833900  0.66483700  0.94426800  1
  C  C40  1  0.43985600  0.33080000  0.05166500  1
  C  C41  1  0.48062900  0.21264000  0.49353300  1
  C  C42  1  0.43664800  0.78596600  0.50409100  1
  C  C43  1  0.49514200  0.02553400  0.48993200  1
  C  C44  1  0.42214200  0.97307200  0.50769900  1
  C  C45  1  0.43005300  0.87127300  0.50572900  1
  C  C46  1  0.48722800  0.12733300  0.49190000  1
  C  C47  1  0.98662400  0.47726900  0.48270600  1
  C  C48  1  0.93062300  0.52145400  0.51483600  1
  C  C49  1  0.81965300  0.51622900  0.51082400  1
  C  C50  1  0.09760300  0.48243500  0.48674600  1
  C  C51  1  0.72927300  0.54194300  0.34479600  1
  C  C52  1  0.79435300  0.60856400  0.31662800  1
  C  C53  1  0.69291800  0.73507600  0.32923300  1
  C  C54  1  0.62214800  0.68282300  0.36108600  1
  C  C55  1  0.72952400  0.47212800  0.66969900  1
  C  C56  1  0.80069300  0.40811200  0.70161000  1
  C  C57  1  0.71310500  0.27716500  0.68185800  1
  C  C58  1  0.63805400  0.32668700  0.64576100  1
  N  N1  1  0.44427700  0.49127700  0.79813300  1
  N  N2  1  0.44922700  0.50556400  0.19869400  1
  N  N3  1  0.18689500  0.48659300  0.48994900  1
  N  N4  1  0.73036800  0.51202400  0.50764800  1
  N  N5  1  0.62846100  0.58220200  0.35272500  1
  N  N6  1  0.63346800  0.42700200  0.65517800  1
  O  O1  1  0.35872500  0.63621000  0.49847600  1
  O  O2  1  0.55855000  0.36240000  0.49907000  1
  O  O3  1  0.53690900  0.64453700  0.50426500  1
  O  O4  1  0.38035300  0.35406100  0.49341600  1
  O  O5  1  0.36881900  0.48952000  0.56792000  1
  O  O6  1  0.54840500  0.50923700  0.42971100  1
  O  O7  1  0.54671900  0.49767900  0.57358300  1
  O  O8  1  0.37057400  0.50076600  0.42400900  1
  O  O9  1  0.42143100  0.65524700  0.79543500  1
  O  O10  1  0.44575000  0.34075100  0.20071800  1
  O  O11  1  0.45249000  0.67043600  0.19771000  1
  O  O12  1  0.46692600  0.32724100  0.79977200  1
  O  O13  1  0.79395700  0.69946400  0.33674800  1
  O  O14  1  0.81027900  0.31812900  0.68100600  1
