# generated using pymatgen
data_Fe2H21C44N5O16
_symmetry_space_group_name_H-M   'P 1'
_cell_length_a   14.13509100
_cell_length_b   12.22730200
_cell_length_c   15.46075900
_cell_angle_alpha   90.54685100
_cell_angle_beta   91.53080500
_cell_angle_gamma   108.46524000
_symmetry_Int_Tables_number   1
_chemical_formula_structural   Fe2H21C44N5O16
_chemical_formula_sum   'Fe2 H21 C44 N5 O16'
_cell_volume   2533.21102009
_cell_formula_units_Z   1
loop_
 _symmetry_equiv_pos_site_id
 _symmetry_equiv_pos_as_xyz
  1  'x, y, z'
loop_
 _atom_site_type_symbol
 _atom_site_label
 _atom_site_symmetry_multiplicity
 _atom_site_fract_x
 _atom_site_fract_y
 _atom_site_fract_z
 _atom_site_occupancy
  Fe  Fe1  1  0.52855800  0.00109400  0.27687000  1
  Fe  Fe2  1  0.47231300  0.97770700  0.73096500  1
  H  H1  1  0.88641700  0.00830900  0.30530600  1
  H  H2  1  0.75425400  0.93676900  0.73766100  1
  H  H3  1  0.92288000  0.91778700  0.72457500  1
  H  H4  1  0.10916900  0.95536400  0.69986400  1
  H  H5  1  0.31100100  0.96398000  0.97448300  1
  H  H6  1  0.25859300  0.06296100  0.26723100  1
  H  H7  1  0.68691800  0.01793900  0.03394200  1
  H  H8  1  0.02793000  0.92827800  0.96141100  1
  H  H9  1  0.97415800  0.07963100  0.04665300  1
  H  H10  1  0.48700300  0.58520300  0.28805600  1
  H  H11  1  0.54197800  0.13749800  0.48364900  1
  H  H12  1  0.43784200  0.83356400  0.51351000  1
  H  H13  1  0.47665500  0.39036300  0.63659100  1
  H  H14  1  0.50204600  0.56707900  0.64364600  1
  H  H15  1  0.02682700  0.16347100  0.32066000  1
  H  H16  1  0.18732300  0.08459600  0.39378000  1
  H  H17  1  0.08216800  0.96837600  0.34842700  1
  H  H18  1  0.06341000  0.06685600  0.42867800  1
  H  H19  1  0.25069800  0.24095000  0.29694100  1
  H  H20  1  0.17486300  0.30179900  0.36032300  1
  H  H21  1  0.16439600  0.30226800  0.24396100  1
  C  C1  1  0.72302800  0.97083500  0.87212800  1
  C  C2  1  0.77670100  0.94902500  0.80528900  1
  C  C3  1  0.86597000  0.94757400  0.84079200  1
  C  C4  1  0.78319500  0.98437700  0.94600800  1
  C  C5  1  0.93764700  0.93109500  0.79368400  1
  C  C6  1  0.03906500  0.94262400  0.82511000  1
  C  C7  1  0.11540000  0.95505000  0.76970100  1
  C  C8  1  0.19996700  0.96701000  0.81976700  1
  C  C9  1  0.17176000  0.96209300  0.90568500  1
  C  C10  1  0.23833900  0.97357700  0.98316800  1
  C  C11  1  0.21652300  0.00210100  0.06249000  1
  C  C12  1  0.27903600  0.01794900  0.13501600  1
  C  C13  1  0.22989700  0.04880400  0.20155800  1
  C  C14  1  0.13900700  0.05132200  0.16818400  1
  C  C15  1  0.06855800  0.07868500  0.21321100  1
  C  C16  1  0.96292800  0.04804100  0.18156300  1
  C  C17  1  0.88326300  0.01745500  0.23592300  1
  C  C18  1  0.79834000  0.00449500  0.18595600  1
  C  C19  1  0.82832100  0.02264800  0.10123800  1
  C  C20  1  0.76037100  0.01085100  0.02495500  1
  C  C21  1  0.70136300  0.98603900  0.22575200  1
  C  C22  1  0.46861300  0.78257500  0.35665000  1
  C  C23  1  0.37760600  0.00422900  0.14886400  1
  C  C24  1  0.52910000  0.22171300  0.33298700  1
  C  C25  1  0.53144600  0.22092600  0.48933500  1
  C  C26  1  0.51207500  0.26066500  0.56819600  1
  C  C27  1  0.49600700  0.36593400  0.57420900  1
  C  C28  1  0.52777300  0.28097000  0.41550100  1
  C  C29  1  0.50951600  0.38551500  0.42079000  1
  C  C30  1  0.49736600  0.43163800  0.50050800  1
  C  C31  1  0.48263500  0.53976100  0.50386400  1
  C  C32  1  0.48274700  0.59676300  0.58246000  1
  C  C33  1  0.46342600  0.69966100  0.58476100  1
  C  C34  1  0.48828300  0.54484400  0.34920200  1
  C  C35  1  0.47473200  0.59550600  0.42676100  1
  C  C36  1  0.45870100  0.70321900  0.42988600  1
  C  C37  1  0.44823500  0.74988900  0.50927100  1
  C  C38  1  0.62333800  0.97929600  0.85779300  1
  C  C39  1  0.48102000  0.77018200  0.66389100  1
  C  C40  1  0.29443700  0.97744400  0.77863400  1
  C  C41  1  0.50045800  0.18469100  0.64263400  1
  C  C42  1  0.09177100  0.13791200  0.30161300  1
  C  C43  1  0.10781700  0.05920100  0.37221400  1
  C  C44  1  0.17627900  0.25209300  0.30026400  1
  N  N1  1  0.87078100  0.96937400  0.92655900  1
  N  N2  1  0.07244800  0.94480900  0.90768000  1
  N  N3  1  0.13043300  0.02108100  0.08333800  1
  N  N4  1  0.92926600  0.05117300  0.09943600  1
  N  N5  1  0.50518800  0.44276500  0.34798300  1
  O  O1  1  0.62325400  0.00038000  0.18502000  1
  O  O2  1  0.43643200  0.74730200  0.27764100  1
  O  O3  1  0.69763100  0.97140000  0.30963400  1
  O  O4  1  0.50678300  0.89346700  0.37467500  1
  O  O5  1  0.39111600  0.95570800  0.22168700  1
  O  O6  1  0.45430300  0.06885100  0.10706900  1
  O  O7  1  0.59020900  0.16014600  0.32814600  1
  O  O8  1  0.44878100  0.19522900  0.28270700  1
  O  O9  1  0.60984200  0.02943900  0.78610000  1
  O  O10  1  0.54707400  0.90891100  0.89670700  1
  O  O11  1  0.41204600  0.81450700  0.68721400  1
  O  O12  1  0.57388400  0.82193900  0.68863600  1
  O  O13  1  0.49145200  0.22119000  0.72113600  1
  O  O14  1  0.37770600  0.98493600  0.82130000  1
  O  O15  1  0.49323000  0.07650300  0.62801500  1
  O  O16  1  0.29384100  0.97254500  0.69383400  1
