# Generated by REPEAT Assigner based on pymatgen
data_DB0-m2_o14_o20_f0_pcu.sym.34
_audit_creation_date              2022-05-24
_audit_creation_method            REPEAT_Assigner
_cell_length_a                    14.439794
_cell_length_b                    10.898472
_cell_length_c                    9.478836
_cell_angle_alpha                 89.986480
_cell_angle_beta                  89.989861
_cell_angle_gamma                 90.000921
_cell_volume                      1491.700371
_symmetry_space_group_name_H-M    P1
_symmetry_Int_Tables_number       1
loop_
    _symmetry_equiv_pos_site_id
    _symmetry_equiv_pos_as_xyz
    1  x,y,z
loop_
    _atom_site_type_symbol
    _atom_site_label
    _atom_site_fract_x
    _atom_site_fract_y
    _atom_site_fract_z
    _atom_type_partial_charge
    O   O1   0.491098  0.317178  0.617320  -0.292544
    O   O2   0.495171  0.320172  0.374115  -0.524182
    C   C1   0.499925  0.261093  0.495525  0.525859
    O   O3   0.358064  0.489880  0.622980  -0.504876
    O   O4   0.357868  0.487251  0.378801  -0.585862
    C   C2   0.314974  0.489984  0.500957  0.795534
    Cu  Cu1  0.492730  0.494893  0.641191  0.591964
    Cu  Cu2  0.492192  0.499125  0.358846  0.866935
    O   O5   0.488263  0.673085  0.623438  -0.437015
    O   O6   0.482595  0.676877  0.384262  -0.573612
    O   O7   0.627182  0.491103  0.618857  -0.621656
    O   O8   0.626830  0.501271  0.378658  -0.627866
    C   C3   0.484254  0.734058  0.506015  0.603092
    C   C4   0.670379  0.499426  0.498776  0.912531
    C   C5   0.215602  0.488457  0.501040  -0.268351
    C   C6   0.132152  0.488716  0.500700  0.111202
    C   C7   0.034375  0.490345  0.500000  -0.030381
    C   C8   0.950940  0.492419  0.499341  -0.039062
    C   C9   0.853178  0.495199  0.498711  0.129928
    C   C10  0.769745  0.497421  0.498482  -0.305182
    H   H1   0.464090  0.106282  0.281236  0.112229
    C   C11  0.572780  0.117361  0.732122  -0.373746
    H   H2   0.608888  0.203343  0.719773  0.152466
    C   C12  0.576233  0.062658  0.862379  0.029417
    H   H3   0.609550  0.108721  0.949676  0.064424
    C   C13  0.532203  0.952967  0.882809  -0.071173
    H   H4   0.527705  0.914046  0.987456  0.096352
    C   C14  0.496244  0.890534  0.769323  -0.120815
    H   H5   0.458646  0.808337  0.794069  0.075134
    C   C15  0.501805  0.938862  0.633229  0.028016
    C   C16  0.526515  0.061477  0.620520  0.342015
    C   C17  0.505568  0.125435  0.497041  -0.185295
    C   C18  0.479368  0.059755  0.379187  -0.082968
    H   H6   0.457681  0.884696  0.287869  0.094598
    C   C19  0.473494  0.933414  0.384144  -0.065610
    C   C20  0.482954  0.870636  0.510475  -0.119536
    H   H7   0.391826  0.367853  0.134273  0.169021
    C   C21  0.610383  0.661558  0.140114  -0.177294
    H   H8   0.610423  0.673334  0.250693  0.200727
    C   C22  0.671520  0.735111  0.068427  0.015506
    C   C23  0.673162  0.729694  0.925197  -0.130788
    H   H9   0.719276  0.787522  0.864868  0.133404
    C   C24  0.614382  0.652290  0.855253  -0.194190
    H   H10  0.620667  0.660476  0.744712  0.182918
    C   C25  0.552919  0.573461  0.924898  0.281494
    C   C26  0.551717  0.578504  0.072078  0.101171
    N   N1   0.493241  0.505555  0.147208  -0.068839
    C   C27  0.437955  0.427656  0.076569  -0.139009
    C   C28  0.437806  0.422844  0.930604  0.218091
    N   N2   0.496002  0.494064  0.853153  -0.188913
    C   C29  0.372219  0.337844  0.865189  0.566005
    O   O9   0.395375  0.232332  0.841335  -0.476313
    O   O10  0.279462  0.370888  0.853396  -0.555736
    H   H11  0.242201  0.299641  0.815136  0.412379
    C   C30  0.733256  0.820179  0.143805  0.651796
    O   O11  0.732093  0.825657  0.272279  -0.536942
    O   O12  0.793831  0.895039  0.068761  -0.577112
    H   H12  0.831078  0.947429  0.136197  0.410660
