# Generated by REPEAT Assigner based on pymatgen
data_DB0-m3_o19_o24_f0_nbo.sym.88_sqe
_audit_creation_date              2022-05-24
_audit_creation_method            REPEAT_Assigner
_cell_length_a                    23.834381
_cell_length_b                    21.565585
_cell_length_c                    23.825328
_cell_angle_alpha                 90.000000
_cell_angle_beta                  90.000000
_cell_angle_gamma                 90.000000
_cell_volume                      12246.274570
_symmetry_space_group_name_H-M    P1
_symmetry_Int_Tables_number       1
loop_
    _symmetry_equiv_pos_site_id
    _symmetry_equiv_pos_as_xyz
    1  x,y,z
loop_
    _atom_site_type_symbol
    _atom_site_label
    _atom_site_fract_x
    _atom_site_fract_y
    _atom_site_fract_z
    _atom_type_partial_charge
    O   O1    0.550897  0.502941  0.916322  -0.734232
    O   O2    0.548383  0.499831  0.083630  -0.746976
    O   O3    0.048674  0.003072  0.416404  -0.747853
    O   O4    0.050710  0.999878  0.583717  -0.732686
    O   O5    0.453981  0.499550  0.916540  -0.661836
    O   O6    0.451449  0.497208  0.083794  -0.652698
    O   O7    0.951765  0.999548  0.415825  -0.655985
    O   O8    0.953784  0.997120  0.583085  -0.657959
    C   C1    0.502344  0.501709  0.890407  0.948508
    C   C2    0.499920  0.498032  0.109738  0.957597
    C   C3    0.000305  0.001880  0.390091  0.958846
    C   C4    0.002068  0.997928  0.609427  0.943646
    O   O9    0.548453  0.407440  0.997424  -0.569453
    O   O10   0.550764  0.592885  0.000292  -0.546814
    O   O11   0.048591  0.907480  0.499728  -0.571427
    O   O12   0.050728  0.092928  0.502607  -0.545295
    O   O13   0.451639  0.407590  0.000193  -0.583545
    O   O14   0.453935  0.591662  0.002260  -0.602956
    O   O15   0.951761  0.907583  0.497353  -0.581812
    O   O16   0.953934  0.091657  0.499433  -0.603543
    C   C5    0.500055  0.378680  0.998547  0.109857
    C   C6    0.502145  0.621111  0.001635  0.117571
    C   C7    0.000213  0.878697  0.498269  0.112265
    C   C8    0.002099  0.121134  0.501220  0.116846
    Zn  Zn1   0.564781  0.499920  0.000171  1.304827
    Zn  Zn2   0.064833  0.000028  0.499866  1.304880
    Zn  Zn3   0.437602  0.499861  0.999965  1.259542
    Zn  Zn4   0.937664  0.999808  0.499643  1.258847
    C   C9    0.465584  0.270297  0.959522  -0.126624
    C   C10   0.466712  0.729268  0.040523  -0.126173
    C   C11   0.480688  0.270841  0.047537  -0.195986
    C   C12   0.481990  0.728701  0.952541  -0.165131
    C   C13   0.966737  0.770117  0.458768  -0.131512
    C   C14   0.965962  0.229069  0.539794  -0.114582
    C   C15   0.979578  0.771173  0.547134  -0.190480
    C   C16   0.982774  0.229016  0.452088  -0.172156
    C   C17   0.445222  0.231314  0.008553  -0.257831
    C   C18   0.446175  0.767998  0.991395  -0.270168
    C   C19   0.945080  0.731448  0.507442  -0.261259
    C   C20   0.946289  0.268088  0.490498  -0.269650
    H   H1    0.402234  0.214211  0.017233  0.077646
    H   H2    0.403079  0.784682  0.982586  0.079317
    H   H3    0.901870  0.714439  0.515105  0.078890
    H   H4    0.903352  0.284830  0.481029  0.079441
    C   C21   0.495837  0.189848  0.999998  0.703027
    C   C22   0.496480  0.809912  0.999975  0.709416
    C   C23   0.995876  0.689892  0.500410  0.698259
    C   C24   0.996422  0.309956  0.500177  0.710839
    C   C25   0.515439  0.227716  0.950232  -0.201665
    C   C26   0.516239  0.772295  0.049831  -0.214408
    C   C27   0.530856  0.228239  0.040008  -0.174296
    C   C28   0.531852  0.771754  0.960093  -0.186169
    C   C29   0.016788  0.727455  0.450994  -0.196084
    C   C30   0.015305  0.272053  0.550200  -0.222124
    C   C31   0.029898  0.728487  0.541124  -0.175207
    C   C32   0.032481  0.272029  0.460740  -0.184647
    C   C33   0.549523  0.267269  0.990432  -0.229405
    C   C34   0.550687  0.732970  0.009760  -0.203889
    C   C35   0.049861  0.767216  0.491862  -0.225830
    C   C36   0.050452  0.232964  0.510549  -0.200418
    C   C37   0.499955  0.309693  0.998721  0.930889
    C   C38   0.501444  0.690097  0.001452  0.897432
    C   C39   0.000125  0.809714  0.498639  0.927262
    C   C40   0.001373  0.190124  0.501144  0.896146
    H   H5    0.528491  0.208022  0.909291  0.065134
    H   H6    0.529113  0.792128  0.090773  0.068391
    H   H7    0.558457  0.208500  0.072921  0.064168
    H   H8    0.559372  0.791731  0.927232  0.064337
    H   H9    0.030898  0.707481  0.410518  0.063859
    H   H10   0.027418  0.291627  0.591474  0.069465
    H   H11   0.056606  0.708917  0.574847  0.063637
    H   H12   0.060594  0.292194  0.428480  0.064536
    C   C41   0.501859  0.502400  0.830256  -0.255897
    C   C42   0.499726  0.497299  0.169893  -0.263417
    C   C43   0.000302  0.002650  0.329939  -0.261582
    C   C44   0.001385  0.997128  0.669579  -0.253779
    C   C45   0.500638  0.502589  0.779725  0.149393
    C   C46   0.498831  0.497071  0.220433  0.156197
    C   C47   0.999474  0.002851  0.279400  0.155014
    C   C48   0.000082  0.996859  0.720109  0.147784
    C   C49   0.498625  0.502299  0.720536  -0.091008
    C   C50   0.497263  0.497343  0.279637  -0.094179
    C   C51   0.997879  0.002519  0.220199  -0.094010
    C   C52   0.998080  0.997108  0.779302  -0.089517
    C   C53   0.496902  0.501677  0.670011  -0.021156
    C   C54   0.495938  0.497979  0.330175  -0.020234
    C   C55   0.996453  0.001846  0.169666  -0.018825
    C   C56   0.996451  0.997760  0.829831  -0.023920
    O   O17   0.411453  0.001394  0.047471  -0.692602
    O   O18   0.410811  0.998262  0.950480  -0.679251
    O   O19   0.911418  0.501437  0.547800  -0.692231
    O   O20   0.910782  0.498341  0.450811  -0.678738
    C   C57   0.385118  0.999861  0.999127  0.921984
    C   C58   0.885085  0.499927  0.499453  0.920505
    O   O21   0.495960  0.092877  0.049369  -0.658946
    O   O22   0.493129  0.906871  0.950631  -0.662620
    O   O23   0.493481  0.091802  0.952377  -0.673503
    O   O24   0.496538  0.907955  0.047592  -0.672421
    O   O25   0.995973  0.592891  0.549798  -0.659357
    O   O26   0.993077  0.406950  0.450943  -0.660715
    O   O27   0.993434  0.591875  0.452806  -0.673292
    O   O28   0.996498  0.407964  0.547906  -0.671184
    C   C59   0.494594  0.121070  0.000637  0.337946
    C   C60   0.494848  0.878682  0.999359  0.340818
    C   C61   0.994578  0.621114  0.501077  0.341380
    C   C62   0.994799  0.378727  0.499652  0.338081
    Zn  Zn5   0.494907  0.000245  0.063626  1.313236
    Zn  Zn6   0.494603  0.999496  0.936351  1.314831
    Zn  Zn7   0.994867  0.500246  0.563993  1.312952
    Zn  Zn8   0.994579  0.499584  0.436724  1.313016
    O   O29   0.578699  0.001941  0.049481  -0.664470
    O   O30   0.578055  0.997900  0.952523  -0.676303
    O   O31   0.078665  0.501926  0.549890  -0.663602
    O   O32   0.078026  0.497968  0.452932  -0.675994
    C   C63   0.604428  0.999876  0.000848  0.890366
    C   C64   0.104396  0.499897  0.501260  0.888649
    O   O33   0.411052  0.445163  0.502271  -0.633213
    O   O34   0.411492  0.552248  0.498263  -0.646358
    O   O35   0.911078  0.945144  0.001813  -0.632743
    O   O36   0.911527  0.052225  0.997716  -0.646515
    C   C65   0.385213  0.498820  0.500270  0.710134
    C   C66   0.885244  0.998799  0.999728  0.708888
    O   O37   0.493662  0.446467  0.584711  -0.639419
    O   O38   0.495934  0.553248  0.415499  -0.640211
    O   O39   0.493353  0.446122  0.417297  -0.643581
    O   O40   0.496281  0.553594  0.582897  -0.644324
    O   O41   0.993535  0.946540  0.084405  -0.639135
    O   O42   0.996122  0.053116  0.915105  -0.640536
    O   O43   0.993539  0.945992  0.916990  -0.645287
    O   O44   0.996156  0.053666  0.082502  -0.643481
    C   C67   0.495319  0.500543  0.609844  0.688990
    C   C68   0.494810  0.499163  0.390355  0.688543
    C   C69   0.995139  0.000644  0.109493  0.687373
    C   C70   0.995052  0.999005  0.890005  0.691809
    Zn  Zn9   0.494988  0.429594  0.501043  1.288042
    Zn  Zn10  0.495063  0.570211  0.499159  1.288953
    Zn  Zn11  0.995015  0.929566  0.000756  1.288337
    Zn  Zn12  0.995098  0.070181  0.998746  1.289062
    O   O45   0.578296  0.447544  0.501960  -0.639447
    O   O46   0.578736  0.554645  0.497924  -0.626334
    O   O47   0.078323  0.947509  0.001806  -0.639649
    O   O48   0.078772  0.054606  0.997682  -0.626430
    C   C71   0.604534  0.500981  0.499944  0.650513
    C   C72   0.104566  0.000943  0.999785  0.650374
    C   C73   0.324972  0.000006  0.999476  -0.279157
    C   C74   0.824940  0.500073  0.499783  -0.278221
    C   C75   0.274444  0.000175  0.999659  0.154571
    C   C76   0.774411  0.500236  0.499922  0.154137
    C   C77   0.715213  0.500468  0.499972  -0.100828
    C   C78   0.215245  0.000415  0.999772  -0.100967
    C   C79   0.664684  0.500691  0.499965  -0.002321
    C   C80   0.164716  0.000646  0.999803  -0.002123
    C   C81   0.664637  0.999729  0.000473  -0.266912
    C   C82   0.164605  0.499744  0.500902  -0.265354
    C   C83   0.715203  0.999562  0.000210  0.141775
    C   C84   0.215172  0.499575  0.500676  0.139907
    C   C85   0.274431  0.499340  0.500484  -0.068247
    C   C86   0.774462  0.999326  0.999966  -0.070478
    C   C87   0.324999  0.499113  0.500366  -0.040798
    C   C88   0.825030  0.999098  0.999820  -0.038759
    C   C89   0.431559  0.296815  0.912922  0.063609
    C   C90   0.373809  0.291593  0.912648  -0.185154
    C   C91   0.343129  0.316983  0.869312  -0.272990
    C   C92   0.369995  0.347420  0.826132  0.416825
    F   F1    0.339786  0.372247  0.783523  -0.228027
    C   C93   0.427598  0.352585  0.826305  -0.322106
    C   C94   0.458319  0.327547  0.869730  -0.031978
    H   H13   0.352110  0.268123  0.946259  0.151496
    H   H14   0.297926  0.312998  0.869204  0.155456
    H   H15   0.448680  0.376247  0.792357  0.169776
    H   H16   0.503493  0.332051  0.869819  0.071405
    C   C95   0.432775  0.702694  0.087160  0.079505
    C   C96   0.374973  0.707166  0.087158  -0.185935
    C   C97   0.344384  0.681785  0.130563  -0.271514
    C   C98   0.371394  0.652138  0.174101  0.412438
    F   F2    0.341278  0.627341  0.216791  -0.226997
    C   C99   0.429048  0.647735  0.174207  -0.319649
    C   C100  0.459678  0.672712  0.130690  -0.046497
    H   H17   0.353166  0.730023  0.053271  0.149919
    H   H18   0.299141  0.685172  0.130452  0.155204
    H   H19   0.450244  0.624720  0.208446  0.169886
    H   H20   0.504896  0.668788  0.130816  0.077551
    C   C101  0.460458  0.298710  0.101075  0.114245
    C   C102  0.408537  0.327004  0.102702  -0.048022
    C   C103  0.389818  0.354341  0.151508  -0.321142
    C   C104  0.422942  0.353512  0.198881  0.404827
    F   F3    0.404552  0.380438  0.246855  -0.216165
    C   C105  0.474924  0.325600  0.197343  -0.230483
    C   C106  0.493730  0.298232  0.148547  -0.234685
    H   H21   0.382432  0.328060  0.065620  0.095135
    H   H22   0.349177  0.376537  0.152584  0.160358
    H   H23   0.501096  0.325416  0.234389  0.142003
    H   H24   0.534846  0.277258  0.147850  0.161360
    C   C107  0.461922  0.700547  0.899065  0.108157
    C   C108  0.410651  0.670818  0.897818  -0.052145
    C   C109  0.392025  0.643330  0.849048  -0.320310
    C   C110  0.424584  0.645466  0.801319  0.406024
    F   F4    0.406265  0.618442  0.753364  -0.216142
    C   C111  0.475925  0.674815  0.802470  -0.229191
    C   C112  0.494639  0.702336  0.851233  -0.233668
    H   H25   0.384965  0.668816  0.935160  0.098300
    H   H26   0.351889  0.620025  0.848268  0.158986
    H   H27   0.501657  0.676046  0.765134  0.142358
    H   H28   0.535241  0.724506  0.851593  0.160847
    C   C113  0.933949  0.796275  0.411129  0.073222
    C   C114  0.876192  0.791438  0.409575  -0.188529
    C   C115  0.846669  0.816428  0.365255  -0.268798
    C   C116  0.874705  0.846038  0.322349  0.410054
    F   F5    0.845638  0.870445  0.278757  -0.226759
    C   C117  0.932318  0.850797  0.323794  -0.311027
    C   C118  0.961877  0.826226  0.368232  -0.043605
    H   H29   0.853588  0.768600  0.442945  0.151839
    H   H30   0.801457  0.812758  0.364148  0.154764
    H   H31   0.954326  0.873772  0.290049  0.165907
    H   H32   0.007061  0.830430  0.369320  0.073299
    C   C119  0.931208  0.202097  0.585638  0.067912
    C   C120  0.873427  0.206785  0.584760  -0.181260
    C   C121  0.842074  0.180960  0.627398  -0.274843
    C   C122  0.868294  0.150620  0.671028  0.417088
    F   F6    0.837422  0.125360  0.712948  -0.227866
    C   C123  0.925925  0.145987  0.672006  -0.326965
    C   C124  0.957324  0.171462  0.629279  -0.036558
    H   H33   0.852230  0.230164  0.550779  0.148823
    H   H34   0.796848  0.184525  0.626603  0.155695
    H   H35   0.946497  0.122398  0.706306  0.172551
    H   H36   0.002524  0.167369  0.630087  0.075589
    C   C125  0.958166  0.799626  0.599955  0.120362
    C   C126  0.906354  0.828219  0.600104  -0.056814
    C   C127  0.886723  0.856417  0.648146  -0.316408
    C   C128  0.918827  0.856162  0.696224  0.404614
    F   F7    0.899589  0.884033  0.743418  -0.217622
    C   C129  0.970671  0.827891  0.696176  -0.226342
    C   C130  0.990392  0.799672  0.648147  -0.241669
    H   H37   0.881093  0.828907  0.562435  0.096169
    H   H38   0.846192  0.878888  0.648053  0.159316
    H   H39   0.996050  0.828158  0.733771  0.142632
    H   H40   0.031433  0.778512  0.648594  0.162192
    C   C131  0.963548  0.201400  0.398074  0.106441
    C   C132  0.912162  0.171998  0.395699  -0.046110
    C   C133  0.894177  0.145265  0.346349  -0.325750
    C   C134  0.927491  0.147838  0.299163  0.409091
    F   F8    0.909765  0.121632  0.250617  -0.215912
    C   C135  0.978967  0.176814  0.301452  -0.235129
    C   C136  0.997040  0.203584  0.350796  -0.229315
    H   H41   0.885851  0.169717  0.432590  0.097605
    H   H42   0.853932  0.122248  0.344676  0.160441
    H   H43   0.005286  0.178389  0.264538  0.142863
    H   H44   0.037723  0.225531  0.352030  0.160547
    C   C137  0.608738  0.287733  0.982590  0.095533
    C   C138  0.637729  0.312410  0.027511  -0.084075
    C   C139  0.692451  0.331710  0.020998  -0.293513
    C   C140  0.718420  0.326348  0.969565  0.405214
    F   F9    0.772214  0.345372  0.963139  -0.230676
    C   C141  0.689602  0.301772  0.924627  -0.277354
    C   C142  0.634844  0.282456  0.931048  -0.159520
    H   H45   0.617490  0.317031  0.067898  0.103704
    H   H46   0.714971  0.351127  0.056232  0.154470
    H   H47   0.709923  0.297756  0.884235  0.156577
    H   H48   0.612741  0.263850  0.895275  0.144021
    C   C143  0.610017  0.713048  0.017878  0.083855
    C   C144  0.639629  0.689308  0.972947  -0.085035
    C   C145  0.694473  0.670551  0.979732  -0.290211
    C   C146  0.719940  0.675510  0.031449  0.401896
    F   F10   0.773854  0.657019  0.038140  -0.230237
    C   C147  0.690496  0.699129  0.076401  -0.273288
    C   C148  0.635616  0.717902  0.069707  -0.158679
    H   H49   0.619794  0.684998  0.932332  0.105798
    H   H50   0.717484  0.651876  0.944486  0.154342
    H   H51   0.710420  0.702816  0.117015  0.155222
    H   H52   0.613015  0.735740  0.105490  0.143561
    C   C149  0.109254  0.787628  0.485365  0.090518
    C   C150  0.137244  0.812292  0.530923  -0.079356
    C   C151  0.192112  0.831546  0.525637  -0.293295
    C   C152  0.219227  0.826150  0.474802  0.403303
    F   F11   0.273164  0.845132  0.469581  -0.230226
    C   C153  0.191409  0.801588  0.429231  -0.275563
    C   C154  0.136507  0.782321  0.434424  -0.162257
    H   H53   0.116109  0.816944  0.570843  0.104000
    H   H54   0.213848  0.850954  0.561365  0.154480
    H   H55   0.212628  0.797550  0.389307  0.156032
    H   H56   0.115197  0.763735  0.398163  0.145216
    C   C155  0.109664  0.213048  0.519505  0.086872
    C   C156  0.139831  0.189115  0.475032  -0.090926
    C   C157  0.194577  0.170359  0.482573  -0.288507
    C   C158  0.219390  0.175517  0.534590  0.401839
    F   F12   0.273208  0.157029  0.542025  -0.230383
    C   C159  0.189392  0.199340  0.579086  -0.273007
    C   C160  0.134610  0.218114  0.571636  -0.157477
    H   H57   0.120507  0.184655  0.434184  0.105660
    H   H58   0.218024  0.151530  0.447683  0.154076
    H   H59   0.208806  0.203191  0.619934  0.155317
    H   H60   0.111574  0.236127  0.607067  0.142943
