# generated using pymatgen
data_ZnH13C23NO5
_symmetry_space_group_name_H-M   'P 1'
_cell_length_a   15.72515700
_cell_length_b   10.79466300
_cell_length_c   14.10562600
_cell_angle_alpha   90.00000000
_cell_angle_beta   95.99841200
_cell_angle_gamma   90.00000000
_symmetry_Int_Tables_number   1
_chemical_formula_structural   ZnH13C23NO5
_chemical_formula_sum   'Zn2 H26 C46 N2 O10'
_cell_volume   2381.28873414
_cell_formula_units_Z   2
loop_
 _symmetry_equiv_pos_site_id
 _symmetry_equiv_pos_as_xyz
  1  'x, y, z'
loop_
 _atom_site_type_symbol
 _atom_site_label
 _atom_site_symmetry_multiplicity
 _atom_site_fract_x
 _atom_site_fract_y
 _atom_site_fract_z
 _atom_site_occupancy
  Zn  Zn1  1  0.49417100  0.52505600  0.89635500  1
  Zn  Zn2  1  0.50778100  0.47866700  0.10584000  1
  H  H1  1  0.01155100  0.81032800  0.08856800  1
  H  H2  1  0.99627400  0.22081500  0.96375300  1
  H  H3  1  0.36603400  0.91167000  0.98503100  1
  H  H4  1  0.36579800  0.10234000  0.02632300  1
  H  H5  1  0.23693100  0.58861200  0.05581900  1
  H  H6  1  0.22585700  0.39990200  0.89371700  1
  H  H7  1  0.10551100  0.69475300  0.04788600  1
  H  H8  1  0.09565400  0.28692000  0.89214700  1
  H  H9  1  0.88124900  0.28183600  0.89441300  1
  H  H10  1  0.90840400  0.69375600  0.05629400  1
  H  H11  1  0.75228200  0.39410900  0.90080400  1
  H  H12  1  0.77907100  0.58605700  0.06672200  1
  H  H13  1  0.63492000  0.90939700  0.00358900  1
  H  H14  1  0.64382800  0.10034600  0.04509200  1
  H  H15  1  0.62339500  0.44216000  0.60102500  1
  H  H16  1  0.59227800  0.66434400  0.58925400  1
  H  H17  1  0.48514400  0.71417100  0.55145400  1
  H  H18  1  0.53916000  0.33333333  0.61804200  1
  H  H19  1  0.50695400  0.68565100  0.40048700  1
  H  H20  1  0.50755200  0.29784200  0.46087500  1
  H  H21  1  0.38578200  0.40305200  0.56361300  1
  H  H22  1  0.36288700  0.56669300  0.55364600  1
  H  H23  1  0.38190600  0.40161300  0.40218000  1
  H  H24  1  0.38125200  0.56814200  0.39638300  1
  H  H25  1  0.69038700  0.40129000  0.45498600  1
  H  H26  1  0.68596800  0.63376900  0.48445300  1
  C  C1  1  0.08020700  0.94296400  0.01583500  1
  C  C2  1  0.07645500  0.06278200  0.98150900  1
  C  C3  1  0.00606000  0.88936400  0.04275600  1
  C  C4  1  0.99758200  0.12276300  0.97310300  1
  C  C5  1  0.92594400  0.94202900  0.02090200  1
  C  C6  1  0.92151100  0.06154500  0.98606900  1
  C  C7  1  0.23283500  0.93981600  0.00864200  1
  C  C8  1  0.23053500  0.06649600  0.98937100  1
  C  C9  1  0.30795000  0.87158900  0.00565300  1
  C  C10  1  0.30513800  0.13729000  0.99463400  1
  C  C11  1  0.30910400  0.74639700  0.02356300  1
  C  C12  1  0.30312700  0.25784400  0.96283000  1
  C  C13  1  0.23640000  0.68761700  0.04423400  1
  C  C14  1  0.22761400  0.30668100  0.92185400  1
  C  C15  1  0.16095300  0.75118500  0.04126200  1
  C  C16  1  0.15259500  0.24183200  0.92424000  1
  C  C17  1  0.15770100  0.87828500  0.02351300  1
  C  C18  1  0.15232300  0.12408600  0.96502000  1
  C  C19  1  0.83248500  0.23800600  0.93089100  1
  C  C20  1  0.85151500  0.74969500  0.05170400  1
  C  C21  1  0.75737700  0.30227200  0.93142700  1
  C  C22  1  0.77691700  0.68533200  0.05667900  1
  C  C23  1  0.69204300  0.25465500  0.97728200  1
  C  C24  1  0.69973500  0.74377700  0.03921600  1
  C  C25  1  0.69727600  0.13510600  0.01098300  1
  C  C26  1  0.69717000  0.86940700  0.02263600  1
  C  C27  1  0.77035400  0.06444000  0.00267000  1
  C  C28  1  0.77257200  0.93794900  0.02253200  1
  C  C29  1  0.84228000  0.12178000  0.97344200  1
  C  C30  1  0.85077200  0.87684200  0.03349300  1
  C  C31  1  0.37904000  0.33691400  0.97625300  1
  C  C32  1  0.38451300  0.67090500  0.01487400  1
  C  C33  1  0.62258900  0.66767300  0.02610700  1
  C  C34  1  0.61781200  0.33266600  0.98726800  1
  C  C35  1  0.55692900  0.41440500  0.57601200  1
  C  C36  1  0.53156900  0.63750300  0.54732900  1
  C  C37  1  0.54406600  0.61406200  0.44336300  1
  C  C38  1  0.54993100  0.37988000  0.47153100  1
  C  C39  1  0.49652300  0.52145000  0.58912900  1
  C  C40  1  0.50760700  0.48634100  0.41316100  1
  C  C41  1  0.41417700  0.48682400  0.43146100  1
  C  C42  1  0.40870000  0.49311600  0.53820200  1
  C  C43  1  0.51252200  0.46660300  0.31111200  1
  C  C44  1  0.49036000  0.53866200  0.69113300  1
  C  C45  1  0.63471000  0.34245500  0.44166400  1
  C  C46  1  0.63570200  0.63047700  0.42574800  1
  N  N1  1  0.51466300  0.45678300  0.22968500  1
  N  N2  1  0.48732600  0.54692300  0.77251100  1
  O  O1  1  0.41226700  0.35989100  0.06373800  1
  O  O2  1  0.41580700  0.60924000  0.09062200  1
  O  O3  1  0.40448800  0.39249200  0.90144100  1
  O  O4  1  0.40866400  0.65283300  0.92956500  1
  O  O5  1  0.58968100  0.64432100  0.93858600  1
  O  O6  1  0.58605300  0.39388200  0.91157400  1
  O  O7  1  0.59722300  0.61210300  0.10091600  1
  O  O8  1  0.59341700  0.35046000  0.07257000  1
  O  O9  1  0.64244400  0.24111100  0.40539700  1
  O  O10  1  0.65439700  0.64524400  0.34476400  1
