# Generated by REPEAT Assigner based on pymatgen
data_DB0-m3_o7_o22_f0_nbo.sym.157
_audit_creation_date              2022-05-24
_audit_creation_method            REPEAT_Assigner
_cell_length_a                    41.254383
_cell_length_b                    35.551007
_cell_length_c                    21.488736
_cell_angle_alpha                 90.000000
_cell_angle_beta                  59.566650
_cell_angle_gamma                 90.000000
_cell_volume                      27173.804851
_symmetry_space_group_name_H-M    P1
_symmetry_Int_Tables_number       1
loop_
    _symmetry_equiv_pos_site_id
    _symmetry_equiv_pos_as_xyz
    1  x,y,z
loop_
    _atom_site_type_symbol
    _atom_site_label
    _atom_site_fract_x
    _atom_site_fract_y
    _atom_site_fract_z
    _atom_type_partial_charge
    O   O1    0.944197  0.545150  0.554328  -0.699536
    O   O2    0.056319  0.546931  0.448315  -0.686291
    O   O3    0.444197  0.045150  0.554328  -0.699526
    O   O4    0.556319  0.046931  0.448315  -0.686298
    O   O5    0.944008  0.480303  0.552093  -0.692988
    O   O6    0.056169  0.482096  0.445183  -0.710571
    O   O7    0.444008  0.980303  0.552093  -0.692970
    O   O8    0.556169  0.982096  0.445183  -0.710595
    C   C1    0.926473  0.512760  0.570035  0.689037
    C   C2    0.073873  0.514466  0.429911  0.696921
    C   C3    0.426473  0.012760  0.570035  0.689030
    C   C4    0.573873  0.014466  0.429911  0.696946
    O   O9    0.001989  0.545189  0.405650  -0.732669
    O   O10   0.000084  0.546967  0.593016  -0.714963
    O   O11   0.501989  0.045189  0.405650  -0.732665
    O   O12   0.500084  0.046967  0.593016  -0.714975
    O   O13   0.999936  0.480315  0.407355  -0.702577
    O   O14   0.998718  0.482082  0.593895  -0.719552
    O   O15   0.499936  0.980315  0.407355  -0.702577
    O   O16   0.498718  0.982082  0.593895  -0.719571
    C   C5    0.001396  0.512748  0.377085  0.512043
    C   C6    0.998957  0.514444  0.622887  0.507817
    C   C7    0.501396  0.012748  0.377085  0.512034
    C   C8    0.498957  0.014444  0.622887  0.507823
    Zn  Zn1   0.000120  0.556199  0.499947  1.343786
    Zn  Zn2   0.500120  0.056199  0.499947  1.343784
    Zn  Zn3   0.000232  0.471047  0.500013  1.340903
    Zn  Zn4   0.500232  0.971047  0.500013  1.340903
    C   C9    0.007875  0.551751  0.275866  -0.168573
    C   C10   0.993846  0.553318  0.723132  -0.185110
    C   C11   0.507875  0.051751  0.275866  -0.168578
    C   C12   0.493846  0.053318  0.723132  -0.185125
    H   H1    0.033522  0.564524  0.271319  0.035909
    H   H2    0.968723  0.567097  0.727180  0.037446
    H   H3    0.533522  0.064524  0.271319  0.035910
    H   H4    0.468723  0.067097  0.727180  0.037445
    H   H5    0.983141  0.569565  0.310890  0.015766
    H   H6    0.019238  0.570239  0.687717  0.020262
    H   H7    0.483141  0.069565  0.310890  0.015765
    H   H8    0.519238  0.070239  0.687717  0.020269
    C   C13   0.012669  0.549613  0.201232  -0.057459
    C   C14   0.988885  0.551154  0.797900  -0.048841
    C   C15   0.512669  0.049613  0.201232  -0.057450
    C   C16   0.488885  0.051154  0.797900  -0.048833
    H   H9    0.994116  0.570655  0.196735  0.023872
    H   H10   0.008154  0.571449  0.801931  0.024194
    H   H11   0.494116  0.070655  0.196735  0.023871
    H   H12   0.508154  0.071449  0.801931  0.024197
    H   H13   0.042284  0.555907  0.160124  -0.016770
    H   H14   0.959502  0.558452  0.838785  -0.020777
    H   H15   0.542284  0.055907  0.160124  -0.016770
    H   H16   0.459502  0.058452  0.838785  -0.020772
    H   H17   0.060999  0.499888  0.240067  -0.026430
    H   H18   0.938879  0.503426  0.760064  -0.025551
    H   H19   0.560999  0.999888  0.240067  -0.026423
    H   H20   0.438879  0.003426  0.760064  -0.025546
    H   H21   0.058973  0.489423  0.138294  -0.038256
    H   H22   0.940351  0.492656  0.862149  -0.042360
    H   H23   0.558973  0.989423  0.138294  -0.038264
    H   H24   0.440351  0.992656  0.862149  -0.042360
    C   C17   0.033588  0.487140  0.254086  -0.191295
    C   C18   0.965802  0.489677  0.746526  -0.201997
    C   C19   0.533588  0.987140  0.254086  -0.191341
    C   C20   0.465802  0.989677  0.746526  -0.202036
    C   C21   0.964912  0.496987  0.319893  -0.117749
    C   C22   0.034754  0.496985  0.680681  -0.134939
    C   C23   0.464912  0.996987  0.319893  -0.117728
    C   C24   0.534754  0.996985  0.680681  -0.134928
    C   C25   0.001989  0.512361  0.307209  0.536250
    C   C26   0.998306  0.513816  0.692818  0.554075
    C   C27   0.501989  0.012361  0.307209  0.536274
    C   C28   0.498306  0.013816  0.692818  0.554116
    H   H25   0.962234  0.466918  0.335492  0.001430
    H   H26   0.036282  0.466861  0.666040  0.001080
    H   H27   0.462234  0.966918  0.335492  0.001426
    H   H28   0.536282  0.966861  0.666040  0.001075
    H   H29   0.941318  0.512991  0.363731  0.008914
    H   H30   0.058951  0.512117  0.636366  0.012234
    H   H31   0.441318  0.012991  0.363731  0.008912
    H   H32   0.558951  0.012117  0.636366  0.012233
    C   C29   0.002435  0.510449  0.189032  0.328961
    C   C30   0.997683  0.511585  0.811154  0.318733
    C   C31   0.502435  0.010449  0.189032  0.328919
    C   C32   0.497683  0.011585  0.811154  0.318666
    C   C33   0.031285  0.482653  0.186121  0.377688
    C   C34   0.967845  0.484932  0.814718  0.396123
    C   C35   0.531285  0.982653  0.186121  0.377745
    C   C36   0.467845  0.984932  0.814718  0.396159
    C   C37   0.963494  0.500671  0.251286  -0.011059
    C   C38   0.036266  0.500504  0.749215  0.008891
    C   C39   0.463494  0.000671  0.251286  -0.011076
    C   C40   0.536266  0.000504  0.749215  0.008887
    H   H33   0.943437  0.523415  0.258638  -0.021932
    H   H34   0.057104  0.522521  0.741152  -0.023647
    H   H35   0.443437  0.023415  0.258638  -0.021926
    H   H36   0.557104  0.022521  0.741152  -0.023644
    H   H37   0.953358  0.473799  0.240974  0.008588
    H   H38   0.045444  0.473296  0.760481  0.001936
    H   H39   0.453358  0.973799  0.240974  0.008592
    H   H40   0.545444  0.973296  0.760481  0.001940
    H   H41   0.031372  0.459151  0.278626  0.047558
    H   H42   0.967046  0.461675  0.722771  0.051347
    H   H43   0.531372  0.959151  0.278626  0.047563
    H   H44   0.467046  0.961675  0.722771  0.051355
    C   C41   0.674486  0.512468  0.878161  -0.211222
    C   C42   0.325826  0.510918  0.121581  -0.208763
    C   C43   0.174486  0.012468  0.878161  -0.211222
    C   C44   0.825826  0.010918  0.121581  -0.208765
    H   H45   0.690517  0.513419  0.905273  0.143261
    H   H46   0.309777  0.510346  0.094485  0.143013
    H   H47   0.190517  0.013419  0.905273  0.143263
    H   H48   0.809777  0.010346  0.094485  0.143015
    C   C45   0.635737  0.512014  0.918018  -0.131946
    C   C46   0.364574  0.510289  0.081735  -0.134107
    C   C47   0.135737  0.012014  0.918018  -0.131952
    C   C48   0.864574  0.010289  0.081735  -0.134117
    H   H49   0.622008  0.512653  0.976202  0.141798
    H   H50   0.378287  0.509253  0.023573  0.141558
    H   H51   0.122008  0.012653  0.976202  0.141797
    H   H52   0.878287  0.009253  0.023573  0.141561
    C   C49   0.615043  0.510805  0.883640  0.079061
    C   C50   0.385288  0.511031  0.116094  0.081354
    C   C51   0.115043  0.010805  0.883640  0.079077
    C   C52   0.885288  0.011031  0.116094  0.081398
    C   C53   0.633615  0.510028  0.808995  -0.141703
    C   C54   0.366738  0.512371  0.190709  -0.142796
    C   C55   0.133615  0.010028  0.808995  -0.141700
    C   C56   0.866738  0.012371  0.190709  -0.142814
    H   H53   0.618194  0.509088  0.780705  0.123502
    H   H54   0.382174  0.512990  0.218987  0.123238
    H   H55   0.118194  0.009088  0.780705  0.123497
    H   H56   0.882174  0.012990  0.218987  0.123242
    C   C57   0.672375  0.510485  0.769374  -0.181662
    C   C58   0.327982  0.512997  0.230317  -0.178707
    C   C59   0.172375  0.010485  0.769374  -0.181663
    C   C60   0.827982  0.012997  0.230317  -0.178700
    H   H57   0.686745  0.509880  0.711092  0.136031
    H   H58   0.313630  0.514058  0.288573  0.135516
    H   H59   0.186745  0.009880  0.711092  0.136032
    H   H60   0.813630  0.014058  0.288573  0.135515
    C   C61   0.692822  0.511728  0.803887  0.279835
    C   C62   0.307513  0.512299  0.195822  0.276224
    C   C63   0.192822  0.011728  0.803887  0.279825
    C   C64   0.807513  0.012299  0.195822  0.276213
    C   C65   0.733165  0.512165  0.762592  -0.165551
    C   C66   0.267173  0.512934  0.237119  -0.165401
    C   C67   0.233165  0.012165  0.762592  -0.165537
    C   C68   0.767173  0.012934  0.237119  -0.165385
    C   C69   0.767040  0.512447  0.728119  -0.160076
    C   C70   0.233300  0.513378  0.271618  -0.158689
    C   C71   0.267040  0.012447  0.728119  -0.160089
    C   C72   0.733300  0.013378  0.271618  -0.158706
    C   C73   0.826852  0.479150  0.666477  -0.186900
    C   C74   0.173306  0.480358  0.330394  -0.183344
    C   C75   0.326852  0.979150  0.666477  -0.186899
    C   C76   0.673306  0.980358  0.330394  -0.183343
    H   H61   0.811691  0.452804  0.680550  0.129664
    H   H62   0.188321  0.453948  0.313998  0.127866
    H   H63   0.311691  0.952804  0.680550  0.129664
    H   H64   0.688321  0.953948  0.313998  0.127865
    C   C77   0.865616  0.479153  0.627991  -0.115103
    C   C78   0.134545  0.480548  0.368933  -0.116573
    C   C79   0.365616  0.979153  0.627991  -0.115108
    C   C80   0.634545  0.980548  0.368933  -0.116583
    H   H65   0.880222  0.452521  0.612490  0.124979
    H   H66   0.119794  0.453993  0.382112  0.126196
    H   H67   0.380222  0.952521  0.612490  0.124978
    H   H68   0.619794  0.953993  0.382112  0.126203
    C   C81   0.885211  0.512779  0.610086  0.028224
    C   C82   0.115134  0.514267  0.389811  0.021467
    C   C83   0.385211  0.012779  0.610086  0.028225
    C   C84   0.615134  0.014267  0.389811  0.021469
    C   C85   0.865521  0.546340  0.630932  -0.098677
    C   C86   0.135008  0.547724  0.371874  -0.088753
    C   C87   0.365521  0.046340  0.630932  -0.098676
    C   C88   0.635008  0.047724  0.371874  -0.088760
    H   H69   0.880081  0.573005  0.617751  0.119656
    H   H70   0.120594  0.574459  0.387419  0.116318
    H   H71   0.380081  0.073005  0.617751  0.119656
    H   H72   0.620594  0.074459  0.387419  0.116322
    C   C89   0.826738  0.546188  0.669437  -0.195686
    C   C90   0.173791  0.547385  0.333305  -0.203812
    C   C91   0.326738  0.046188  0.669437  -0.195687
    C   C92   0.673791  0.047385  0.333305  -0.203814
    H   H73   0.811484  0.572466  0.685838  0.129582
    H   H74   0.189190  0.573590  0.319190  0.132312
    H   H75   0.311484  0.072466  0.685838  0.129582
    H   H76   0.689190  0.073590  0.319190  0.132313
    C   C93   0.807394  0.512619  0.687328  0.273378
    C   C94   0.192949  0.513731  0.312448  0.273619
    C   C95   0.307394  0.012619  0.687328  0.273384
    C   C96   0.692949  0.013731  0.312448  0.273631
    O   O17   0.968501  0.566419  0.031009  -0.712613
    O   O18   0.033338  0.566538  0.968475  -0.696638
    O   O19   0.468501  0.066419  0.031009  -0.712591
    O   O20   0.533338  0.066538  0.968475  -0.696631
    C   C97   0.000897  0.584097  0.999887  0.716536
    C   C98   0.500897  0.084097  0.999887  0.716498
    O   O21   0.969474  0.509277  0.123230  -0.698827
    O   O22   0.030665  0.511477  0.876920  -0.700424
    O   O23   0.469474  0.009277  0.123230  -0.698809
    O   O24   0.530665  0.011477  0.876920  -0.700406
    O   O25   0.034273  0.511125  0.058857  -0.720383
    O   O26   0.965852  0.510220  0.941334  -0.718131
    O   O27   0.534273  0.011125  0.058857  -0.720381
    O   O28   0.465852  0.010220  0.941334  -0.718131
    C   C99   0.002109  0.509856  0.119901  0.524905
    C   C100  0.998028  0.510723  0.880259  0.521457
    C   C101  0.502109  0.009856  0.119901  0.524901
    C   C102  0.498028  0.010723  0.880259  0.521469
    Zn  Zn5   0.957474  0.510479  0.042768  1.335051
    Zn  Zn6   0.042608  0.510304  0.957458  1.334310
    Zn  Zn7   0.457474  0.010479  0.042768  1.335043
    Zn  Zn8   0.542608  0.010304  0.957458  1.334305
    O   O29   0.966742  0.454280  0.031442  -0.658129
    O   O30   0.031584  0.454396  0.969490  -0.668784
    O   O31   0.466742  0.954280  0.031442  -0.658132
    O   O32   0.531584  0.954396  0.969490  -0.668785
    C   C103  0.999185  0.436739  0.000281  0.558347
    C   C104  0.499185  0.936739  0.000281  0.558350
    O   O33   0.498320  0.454248  0.946976  -0.680283
    O   O34   0.501967  0.454649  0.050523  -0.698985
    O   O35   0.998320  0.954248  0.946976  -0.680283
    O   O36   0.001967  0.954649  0.050523  -0.699032
    C   C105  0.500174  0.436819  0.998879  0.681131
    C   C106  0.000174  0.936819  0.998879  0.681197
    O   O37   0.555123  0.509615  0.891449  -0.684819
    O   O38   0.445207  0.511552  0.108293  -0.685502
    O   O39   0.055123  0.009615  0.891449  -0.684817
    O   O40   0.945207  0.011552  0.108293  -0.685503
    O   O41   0.557222  0.511475  0.996586  -0.708114
    O   O42   0.443107  0.509588  0.003159  -0.705973
    O   O43   0.057222  0.011475  0.996586  -0.708116
    O   O44   0.943107  0.009588  0.003159  -0.705969
    C   C107  0.573800  0.510527  0.925948  0.655741
    C   C108  0.426530  0.510615  0.073797  0.654296
    C   C109  0.073800  0.010527  0.925948  0.655726
    C   C110  0.926530  0.010615  0.073797  0.654249
    Zn  Zn9   0.498927  0.510426  0.930683  1.322470
    Zn  Zn10  0.501402  0.510596  0.069037  1.325271
    Zn  Zn11  0.998927  0.010426  0.930683  1.322473
    Zn  Zn12  0.001402  0.010596  0.069037  1.325280
    O   O45   0.498362  0.566402  0.949182  -0.698327
    O   O46   0.502008  0.566804  0.052760  -0.682310
    O   O47   0.998362  0.066402  0.949182  -0.698320
    O   O48   0.002008  0.066804  0.052760  -0.682272
    C   C111  0.500155  0.584222  0.000839  0.651339
    C   C112  0.000155  0.084222  0.000839  0.651317
    C   C113  0.499646  0.336953  0.944767  0.510029
    C   C114  0.501086  0.337328  0.054486  0.507095
    C   C115  0.999646  0.836953  0.944767  0.510377
    C   C116  0.001086  0.837328  0.054486  0.506659
    C   C117  0.498904  0.375768  0.945155  -0.426029
    C   C118  0.501659  0.376148  0.053548  -0.421538
    C   C119  0.998904  0.875768  0.945155  -0.426381
    C   C120  0.001659  0.876148  0.053548  -0.421395
    H   H77   0.497648  0.390264  0.902246  0.184843
    H   H78   0.502856  0.390949  0.096241  0.185470
    H   H79   0.997648  0.890264  0.902246  0.184923
    H   H80   0.002856  0.890949  0.096241  0.185471
    C   C121  0.500241  0.395569  0.999209  0.168943
    C   C122  0.000241  0.895569  0.999209  0.168976
    C   C123  0.500411  0.317725  0.999760  -0.259414
    C   C124  0.000411  0.817725  0.999760  -0.259085
    C   C125  0.500504  0.277349  0.000017  0.041580
    C   C126  0.000504  0.777349  0.000017  0.041441
    C   C127  0.000580  0.743472  0.000170  -0.223096
    C   C128  0.500580  0.243472  0.000170  -0.223098
    C   C129  0.034222  0.683821  0.967386  -0.213312
    C   C130  0.967187  0.683688  0.033145  -0.215189
    C   C131  0.534222  0.183821  0.967386  -0.213281
    C   C132  0.467187  0.183688  0.033145  -0.215145
    H   H81   0.060489  0.699107  0.941568  0.126445
    H   H82   0.940859  0.698869  0.058947  0.126839
    H   H83   0.560489  0.199107  0.941568  0.126442
    H   H84   0.440859  0.198869  0.058947  0.126841
    C   C133  0.034375  0.645040  0.967271  -0.101539
    C   C134  0.967188  0.644907  0.033130  -0.100003
    C   C135  0.534375  0.145040  0.967271  -0.101568
    C   C136  0.467188  0.144907  0.033130  -0.100042
    H   H85   0.061046  0.630501  0.941083  0.132843
    H   H86   0.940574  0.630265  0.059210  0.133068
    H   H87   0.561046  0.130501  0.941083  0.132847
    H   H88   0.440574  0.130265  0.059210  0.133069
    C   C137  0.000820  0.625345  0.000139  -0.014043
    C   C138  0.500820  0.125345  0.000139  -0.013994
    C   C139  0.000665  0.703135  0.000276  0.336065
    C   C140  0.500665  0.203135  0.000276  0.336003
    C   C141  0.501808  0.684062  0.053637  -0.216416
    C   C142  0.498044  0.683655  0.946503  -0.216577
    C   C143  0.001808  0.184062  0.053637  -0.216418
    C   C144  0.998044  0.183655  0.946503  -0.216580
    H   H89   0.503238  0.699454  0.095559  0.145075
    H   H90   0.496522  0.698725  0.904371  0.144389
    H   H91   0.003238  0.199454  0.095559  0.145078
    H   H92   0.996522  0.198725  0.904371  0.144392
    C   C145  0.501917  0.645289  0.054041  -0.145114
    C   C146  0.498143  0.644879  0.946665  -0.143924
    C   C147  0.001917  0.145289  0.054041  -0.145106
    C   C148  0.998143  0.144879  0.946665  -0.143922
    H   H93   0.503447  0.630861  0.096729  0.135008
    H   H94   0.496681  0.630125  0.904202  0.135469
    H   H95   0.003447  0.130861  0.096729  0.134993
    H   H96   0.996681  0.130125  0.904202  0.135467
    C   C149  0.500079  0.625462  0.000501  0.096376
    C   C150  0.000079  0.125462  0.000501  0.096377
    C   C151  0.499870  0.703235  0.999934  0.305953
    C   C152  0.999870  0.203235  0.999934  0.305949
    C   C153  0.499737  0.743571  0.999685  -0.183130
    C   C154  0.999737  0.243571  0.999685  -0.183121
    C   C155  0.999621  0.277447  0.999542  -0.126414
    C   C156  0.499621  0.777447  0.999542  -0.126403
    C   C157  0.032343  0.337253  0.957017  -0.202274
    C   C158  0.966493  0.337056  0.041983  -0.204020
    C   C159  0.532343  0.837253  0.957017  -0.202271
    C   C160  0.466493  0.837056  0.041983  -0.204016
    H   H97   0.058223  0.322108  0.923671  0.130832
    H   H98   0.940712  0.321755  0.075295  0.131760
    H   H99   0.558223  0.822108  0.923671  0.130832
    H   H100  0.440712  0.821755  0.075295  0.131758
    C   C161  0.032283  0.376017  0.956969  -0.086911
    C   C162  0.966329  0.375820  0.042337  -0.085933
    C   C163  0.532283  0.876017  0.956969  -0.086905
    C   C164  0.466329  0.875820  0.042337  -0.085929
    H   H101  0.058352  0.390752  0.923147  0.120580
    H   H102  0.940189  0.390397  0.076372  0.121275
    H   H103  0.558352  0.890752  0.923147  0.120579
    H   H104  0.440189  0.890397  0.076372  0.121274
    C   C165  0.999259  0.395518  0.999802  0.093435
    C   C166  0.499259  0.895518  0.999802  0.093419
    C   C167  0.999479  0.317782  0.999468  0.244880
    C   C168  0.499479  0.817782  0.999468  0.244871
    O   O49   0.020107  0.445943  0.181937  -0.523340
    C   C169  0.052023  0.422749  0.152235  0.172544
    H   H105  0.044376  0.396010  0.183011  0.022360
    H   H106  0.075661  0.435198  0.155824  -0.017857
    C   C170  0.064276  0.414143  0.074404  0.248685
    H   H107  0.040540  0.400649  0.072890  -0.003369
    H   H108  0.072199  0.440510  0.042507  -0.007499
    C   C171  0.097557  0.387566  0.042504  -0.440804
    H   H109  0.121460  0.400804  0.044118  0.086856
    H   H110  0.105997  0.381372  0.985684  0.098148
    H   H111  0.089691  0.360947  0.073690  0.079274
    O   O50   0.977637  0.447798  0.820075  -0.526731
    C   C172  0.944907  0.425771  0.850272  0.182691
    H   H112  0.951681  0.398775  0.820417  0.018151
    H   H113  0.921831  0.439060  0.845892  -0.023182
    C   C173  0.932079  0.417612  0.928537  0.253219
    H   H114  0.955431  0.403903  0.931104  -0.005143
    H   H115  0.924331  0.444180  0.959798  -0.008381
    C   C174  0.898432  0.391505  0.960444  -0.441995
    H   H116  0.874953  0.404909  0.957571  0.087287
    H   H117  0.889465  0.385768  0.017671  0.096622
    H   H118  0.906125  0.364613  0.930130  0.079110
    O   O51   0.520107  0.945943  0.181937  -0.523350
    C   C175  0.552023  0.922749  0.152235  0.172541
    H   H119  0.544376  0.896010  0.183011  0.022362
    H   H120  0.575661  0.935198  0.155824  -0.017856
    C   C176  0.564276  0.914143  0.074404  0.248676
    H   H121  0.540540  0.900649  0.072890  -0.003361
    H   H122  0.572199  0.940510  0.042507  -0.007496
    C   C177  0.597557  0.887566  0.042504  -0.440802
    H   H123  0.621460  0.900804  0.044118  0.086856
    H   H124  0.605997  0.881372  0.985684  0.098146
    H   H125  0.589691  0.860947  0.073690  0.079275
    O   O52   0.477637  0.947798  0.820075  -0.526734
    C   C178  0.444907  0.925771  0.850272  0.182677
    H   H126  0.451681  0.898775  0.820417  0.018155
    H   H127  0.421831  0.939060  0.845892  -0.023180
    C   C179  0.432079  0.917612  0.928537  0.253219
    H   H128  0.455431  0.903903  0.931104  -0.005141
    H   H129  0.424331  0.944180  0.959798  -0.008379
    C   C180  0.398432  0.891505  0.960444  -0.441994
    H   H130  0.374953  0.904909  0.957571  0.087286
    H   H131  0.389465  0.885768  0.017671  0.096621
    H   H132  0.406125  0.864613  0.930130  0.079110
    O   O53   0.498177  0.317565  0.891259  -0.494761
    C   C181  0.535574  0.312756  0.836654  0.373041
    H   H133  0.542369  0.282313  0.829734  -0.027890
    H   H134  0.554668  0.327253  0.851082  -0.062100
    C   C182  0.540980  0.328894  0.766752  0.138727
    H   H135  0.522028  0.314227  0.752168  -0.007530
    H   H136  0.534149  0.359323  0.773839  -0.023628
    C   C183  0.581391  0.323629  0.706931  -0.278057
    H   H137  0.600462  0.338438  0.721042  0.052960
    H   H138  0.585018  0.335460  0.656036  0.074390
    H   H139  0.588390  0.293235  0.699355  0.049770
    O   O54   0.502638  0.318316  0.108266  -0.494789
    C   C184  0.465261  0.313456  0.162926  0.373193
    H   H140  0.458607  0.282986  0.170266  -0.028083
    H   H141  0.446106  0.327643  0.148286  -0.061378
    C   C185  0.459769  0.330003  0.232608  0.136494
    H   H142  0.478783  0.315647  0.247407  -0.006871
    H   H143  0.466461  0.360459  0.225098  -0.023618
    C   C186  0.419380  0.324690  0.292488  -0.274729
    H   H144  0.400246  0.339191  0.278159  0.051325
    H   H145  0.415690  0.336823  0.343221  0.073576
    H   H146  0.412520  0.294272  0.300485  0.049281
    O   O55   0.998177  0.817565  0.891259  -0.494919
    C   C187  0.035574  0.812756  0.836654  0.373114
    H   H147  0.042369  0.782313  0.829734  -0.027922
    H   H148  0.054668  0.827253  0.851082  -0.062171
    C   C188  0.040980  0.828894  0.766752  0.138858
    H   H149  0.022028  0.814227  0.752168  -0.007565
    H   H150  0.034149  0.859323  0.773839  -0.023658
    C   C189  0.081391  0.823629  0.706931  -0.278157
    H   H151  0.100462  0.838438  0.721042  0.052990
    H   H152  0.085018  0.835460  0.656036  0.074395
    H   H153  0.088390  0.793235  0.699355  0.049808
    O   O56   0.002638  0.818316  0.108266  -0.494654
    C   C190  0.965261  0.813456  0.162926  0.373092
    H   H154  0.958607  0.782986  0.170266  -0.028053
    H   H155  0.946106  0.827643  0.148286  -0.061362
    C   C191  0.959769  0.830003  0.232608  0.136546
    H   H156  0.978783  0.815647  0.247407  -0.006893
    H   H157  0.966461  0.860459  0.225098  -0.023624
    C   C192  0.919380  0.824690  0.292488  -0.274711
    H   H158  0.900246  0.839191  0.278159  0.051322
    H   H159  0.915690  0.836823  0.343221  0.073567
    H   H160  0.912520  0.794272  0.300485  0.049277
