# generated using pymatgen
data_FeH10(C7O3)3
_symmetry_space_group_name_H-M   'P 1'
_cell_length_a   15.80060800
_cell_length_b   9.34925600
_cell_length_c   16.28855500
_cell_angle_alpha   92.10928300
_cell_angle_beta   99.03237300
_cell_angle_gamma   97.18131700
_symmetry_Int_Tables_number   1
_chemical_formula_structural   FeH10(C7O3)3
_chemical_formula_sum   'Fe2 H20 C42 O18'
_cell_volume   2353.81715876
_cell_formula_units_Z   2
loop_
 _symmetry_equiv_pos_site_id
 _symmetry_equiv_pos_as_xyz
  1  'x, y, z'
loop_
 _atom_site_type_symbol
 _atom_site_label
 _atom_site_symmetry_multiplicity
 _atom_site_fract_x
 _atom_site_fract_y
 _atom_site_fract_z
 _atom_site_occupancy
  Fe  Fe1  1  0.48734900  0.98122800  0.81241600  1
  Fe  Fe2  1  0.49113000  0.97985000  0.18634500  1
  H  H1  1  0.21753500  0.02184200  0.80966000  1
  H  H2  1  0.07183600  0.01429700  0.84313400  1
  H  H3  1  0.17195000  0.02932400  0.10079300  1
  H  H4  1  0.81401600  0.99938500  0.90411200  1
  H  H5  1  0.76225300  0.96649300  0.19208700  1
  H  H6  1  0.48554200  0.11960500  0.55503300  1
  H  H7  1  0.53681800  0.17120900  0.43885600  1
  H  H8  1  0.56478200  0.82862200  0.60150100  1
  H  H9  1  0.61606600  0.76609500  0.48559700  1
  H  H10  1  0.38453700  0.18926900  0.52447700  1
  H  H11  1  0.42064100  0.14392200  0.40329100  1
  H  H12  1  0.45169000  0.78234400  0.55641500  1
  H  H13  1  0.52033700  0.84854500  0.45013100  1
  H  H14  1  0.47974100  0.51545900  0.21956300  1
  H  H15  1  0.37296200  0.51901500  0.77988000  1
  H  H16  1  0.43385500  0.57772900  0.88179800  1
  H  H17  1  0.38573200  0.39159000  0.86034600  1
  H  H18  1  0.87719000  0.13365100  0.25983600  1
  H  H19  1  0.99249700  0.13689400  0.28171300  1
  H  H20  1  0.92313400  0.98488200  0.31059900  1
  C  C1  1  0.20873000  0.02344500  0.87414600  1
  C  C2  1  0.12660300  0.02036100  0.89268200  1
  C  C3  1  0.11429100  0.02446100  0.97426600  1
  C  C4  1  0.18405400  0.03048300  0.03735600  1
  C  C5  1  0.26725100  0.03201800  0.01972100  1
  C  C6  1  0.27955400  0.03118700  0.93669300  1
  C  C7  1  0.02829200  0.01601800  0.99352200  1
  C  C8  1  0.95608400  0.00690900  0.00985600  1
  C  C9  1  0.80093400  0.99159100  0.96702700  1
  C  C10  1  0.71687100  0.98015900  0.98333000  1
  C  C11  1  0.70362000  0.96956100  0.06569700  1
  C  C12  1  0.77376900  0.97695400  0.12881400  1
  C  C13  1  0.85719000  0.98855400  0.11205600  1
  C  C14  1  0.87033900  0.99390800  0.03026700  1
  C  C15  1  0.47389500  0.20043800  0.70499900  1
  C  C16  1  0.36451000  0.03572000  0.91080900  1
  C  C17  1  0.64653900  0.98703200  0.91262300  1
  C  C18  1  0.52526800  0.72656700  0.74055200  1
  C  C19  1  0.47693800  0.24472400  0.25891700  1
  C  C20  1  0.33776400  0.02447100  0.08976200  1
  C  C21  1  0.61821100  0.95310600  0.09083800  1
  C  C22  1  0.51371500  0.76635600  0.29619600  1
  C  C23  1  0.50820500  0.46260600  0.71788600  1
  C  C24  1  0.49213100  0.33847500  0.66686000  1
  C  C25  1  0.48749100  0.34601700  0.58138800  1
  C  C26  1  0.45563100  0.21191800  0.52786500  1
  C  C27  1  0.47528800  0.21607400  0.44038500  1
  C  C28  1  0.51737300  0.59629600  0.68420400  1
  C  C29  1  0.51502200  0.60422000  0.59841200  1
  C  C30  1  0.50153800  0.47857300  0.54694200  1
  C  C31  1  0.49564800  0.48644400  0.45612000  1
  C  C32  1  0.48110100  0.36078200  0.40428800  1
  C  C33  1  0.47894000  0.37018900  0.31828300  1
  C  C34  1  0.51695400  0.74807600  0.56165300  1
  C  C35  1  0.54443600  0.75175000  0.47741400  1
  C  C36  1  0.51021700  0.61984800  0.42228000  1
  C  C37  1  0.50143500  0.62864700  0.33647000  1
  C  C38  1  0.48324900  0.50468400  0.28572200  1
  C  C39  1  0.49813300  0.45108500  0.80550400  1
  C  C40  1  0.41763300  0.48732600  0.83362700  1
  C  C41  1  0.93026300  0.99024600  0.18078600  1
  C  C42  1  0.93020600  0.06580200  0.26319900  1
  O  O1  1  0.53122500  0.16180600  0.76453900  1
  O  O2  1  0.42883200  0.13392000  0.94374700  1
  O  O3  1  0.39915600  0.11916200  0.68300400  1
  O  O4  1  0.37193100  0.95187900  0.84665100  1
  O  O5  1  0.56465300  0.96729900  0.92125700  1
  O  O6  1  0.66616400  0.01174700  0.83863100  1
  O  O7  1  0.48441400  0.83629900  0.71769000  1
  O  O8  1  0.56790400  0.72889400  0.81648400  1
  O  O9  1  0.48353100  0.11366400  0.28337700  1
  O  O10  1  0.47603200  0.26679700  0.17970500  1
  O  O11  1  0.41258400  0.98800900  0.07754500  1
  O  O12  1  0.32324300  0.04245500  0.16634900  1
  O  O13  1  0.58221400  0.86144800  0.32148800  1
  O  O14  1  0.60570400  0.03524100  0.15371000  1
  O  O15  1  0.45874400  0.78956500  0.23024100  1
  O  O16  1  0.56073800  0.84178900  0.06192200  1
  O  O17  1  0.55656900  0.41681500  0.85601100  1
  O  O18  1  0.99140800  0.92696700  0.17163900  1
