data_DB0-m3_o11_o29_f0_pcu.sym.76_repeat
_audit_creation_date              2024-02-23
_audit_creation_method            'Materials Studio'
_symmetry_space_group_name_H-M    'P1'
_symmetry_Int_Tables_number       1
_symmetry_cell_setting            triclinic
loop_
_symmetry_equiv_pos_as_xyz
  x,y,z
_cell_length_a                    27.6368
_cell_length_b                    11.1295
_cell_length_c                    9.9079
_cell_angle_alpha                 89.9974
_cell_angle_beta                  89.9930
_cell_angle_gamma                 89.9936
loop_
_atom_site_label
_atom_site_type_symbol
_atom_site_fract_x
_atom_site_fract_y
_atom_site_fract_z
_atom_site_U_iso_or_equiv
_atom_site_adp_type
_atom_site_occupancy
O1     O     0.49689   0.30854   0.59885   0.00000  Uiso   1.00
O2     O     0.49583   0.30926   0.36629   0.00000  Uiso   1.00
C1     C     0.49575   0.25284   0.48273   0.00000  Uiso   1.00
O3     O     0.42649   0.49170   0.60860   0.00000  Uiso   1.00
O4     O     0.42501   0.49241   0.37618   0.00000  Uiso   1.00
C2     C     0.40307   0.49315   0.49342   0.00000  Uiso   1.00
Zn1    Zn    0.49895   0.48667   0.63950   0.00000  Uiso   1.00
Zn2    Zn    0.49659   0.48895   0.33252   0.00000  Uiso   1.00
O5     O     0.50053   0.66619   0.60595   0.00000  Uiso   1.00
O6     O     0.49882   0.66740   0.37266   0.00000  Uiso   1.00
O7     O     0.57056   0.48272   0.59618   0.00000  Uiso   1.00
O8     O     0.56908   0.48505   0.36311   0.00000  Uiso   1.00
C3     C     0.50001   0.72277   0.48964   0.00000  Uiso   1.00
C4     C     0.59248   0.48120   0.47859   0.00000  Uiso   1.00
C5     C     0.17465   0.39496   0.44863   0.00000  Uiso   1.00
O9     O     0.20016   0.29832   0.40925   0.00000  Uiso   1.00
N1     N     0.19807   0.49281   0.49470   0.00000  Uiso   1.00
C6     C     0.17310   0.58969   0.53694   0.00000  Uiso   1.00
C7     C     0.27486   0.50538   0.61498   0.00000  Uiso   1.00
C8     C     0.32482   0.50482   0.61500   0.00000  Uiso   1.00
C9     C     0.32461   0.48535   0.37491   0.00000  Uiso   1.00
C10    C     0.27478   0.48479   0.37535   0.00000  Uiso   1.00
C11    C     0.24969   0.49466   0.49518   0.00000  Uiso   1.00
C12    C     0.09836   0.49117   0.48536   0.00000  Uiso   1.00
C13    C     0.12462   0.39277   0.44405   0.00000  Uiso   1.00
C14    C     0.10084   0.29301   0.39656   0.00000  Uiso   1.00
C15    C     0.12302   0.59024   0.53211   0.00000  Uiso   1.00
C16    C     0.34998   0.49476   0.49479   0.00000  Uiso   1.00
H1     H     0.34324   0.47731   0.27945   0.00000  Uiso   1.00
H2     H     0.25540   0.47743   0.28091   0.00000  Uiso   1.00
H3     H     0.12045   0.21535   0.36067   0.00000  Uiso   1.00
C17    C     0.64564   0.47799   0.47530   0.00000  Uiso   1.00
C18    C     0.97323   0.38483   0.44057   0.00000  Uiso   1.00
C19    C     0.97189   0.59438   0.50202   0.00000  Uiso   1.00
C20    C     0.94762   0.48921   0.46878   0.00000  Uiso   1.00
C21    C     0.94731   0.27944   0.41715   0.00000  Uiso   1.00
C22    C     0.89767   0.27921   0.41612   0.00000  Uiso   1.00
C23    C     0.87243   0.38369   0.43830   0.00000  Uiso   1.00
C24    C     0.89729   0.48830   0.46426   0.00000  Uiso   1.00
C25    C     0.87121   0.59181   0.48640   0.00000  Uiso   1.00
C26    C     0.82113   0.58936   0.48302   0.00000  Uiso   1.00
N2     N     0.79755   0.48558   0.45944   0.00000  Uiso   1.00
C27    C     0.82237   0.38341   0.43687   0.00000  Uiso   1.00
C28    C     0.72278   0.41477   0.56037   0.00000  Uiso   1.00
C29    C     0.67287   0.41160   0.56744   0.00000  Uiso   1.00
C30    C     0.66921   0.54357   0.37659   0.00000  Uiso   1.00
C31    C     0.71905   0.54689   0.37145   0.00000  Uiso   1.00
C32    C     0.74597   0.48266   0.46365   0.00000  Uiso   1.00
O10    O     0.79820   0.28118   0.41113   0.00000  Uiso   1.00
C33    C     0.02388   0.38770   0.43792   0.00000  Uiso   1.00
C34    C     0.04804   0.49058   0.47971   0.00000  Uiso   1.00
C35    C     0.02234   0.59289   0.51573   0.00000  Uiso   1.00
C36    C     0.05121   0.29022   0.39337   0.00000  Uiso   1.00
H4     H     0.74411   0.36446   0.63231   0.00000  Uiso   1.00
H5     H     0.87919   0.19518   0.39816   0.00000  Uiso   1.00
H6     H     0.96398   0.19306   0.40361   0.00000  Uiso   1.00
H7     H     0.03573   0.21032   0.35050   0.00000  Uiso   1.00
O11    O     0.19712   0.68732   0.58024   0.00000  Uiso   1.00
C37    C     0.09753   0.68939   0.57414   0.00000  Uiso   1.00
H8     H     0.34375   0.51242   0.71003   0.00000  Uiso   1.00
H9     H     0.25553   0.51233   0.70952   0.00000  Uiso   1.00
H10    H     0.11577   0.76760   0.61393   0.00000  Uiso   1.00
C38    C     0.94487   0.69896   0.51974   0.00000  Uiso   1.00
C39    C     0.89528   0.69738   0.51199   0.00000  Uiso   1.00
O12    O     0.79572   0.68996   0.50764   0.00000  Uiso   1.00
C40    C     0.04794   0.69101   0.56619   0.00000  Uiso   1.00
H11    H     0.96074   0.78590   0.53607   0.00000  Uiso   1.00
H12    H     0.64869   0.59537   0.30423   0.00000  Uiso   1.00
H13    H     0.87589   0.78064   0.52684   0.00000  Uiso   1.00
H14    H     0.73689   0.59945   0.29434   0.00000  Uiso   1.00
H15    H     0.03091   0.77057   0.60518   0.00000  Uiso   1.00
C41    C     0.49758   0.92006   0.37948   0.00000  Uiso   1.00
C42    C     0.50096   0.85443   0.49265   0.00000  Uiso   1.00
H16    H     0.49502   0.87475   0.28298   0.00000  Uiso   1.00
H17    H     0.50465   0.89516   0.59095   0.00000  Uiso   1.00
C43    C     0.49777   0.05318   0.37670   0.00000  Uiso   1.00
C44    C     0.49486   0.12133   0.48757   0.00000  Uiso   1.00
H18    H     0.49984   0.09618   0.27875   0.00000  Uiso   1.00
H19    H     0.49176   0.08240   0.58691   0.00000  Uiso   1.00
C45    C     0.51996   0.56850   0.91300   0.00000  Uiso   1.00
N3     N     0.50165   0.48380   0.84122   0.00000  Uiso   1.00
H20    H     0.53477   0.64723   0.86370   0.00000  Uiso   1.00
H21    H     0.49381   0.40473   0.88995   0.00000  Uiso   1.00
C46    C     0.52389   0.55834   0.06159   0.00000  Uiso   1.00
N4     N     0.49461   0.49306   0.13077   0.00000  Uiso   1.00
H22    H     0.55107   0.61120   0.11348   0.00000  Uiso   1.00
H23    H     0.46541   0.45745   0.08070   0.00000  Uiso   1.00
C47    C     0.65050   0.33028   0.67022   0.00000  Uiso   1.00
C48    C     0.64105   0.39810   0.79727   0.00000  Uiso   1.00
C49    C     0.62212   0.34238   0.90356   0.00000  Uiso   1.00
H24    H     0.67592   0.25594   0.69306   0.00000  Uiso   1.00
H25    H     0.61677   0.28885   0.63157   0.00000  Uiso   1.00
H26    H     0.64982   0.49289   0.80326   0.00000  Uiso   1.00
H27    H     0.61338   0.24755   0.89811   0.00000  Uiso   1.00
H28    H     0.61545   0.39182   0.99596   0.00000  Uiso   1.00
