# Generated by REPEAT Assigner based on pymatgen
data_DB0-m2_o3_o11_f0_nbo.sym.40_sqe
_audit_creation_date              2022-05-24
_audit_creation_method            REPEAT_Assigner
_cell_length_a                    43.968290
_cell_length_b                    38.630738
_cell_length_c                    21.805472
_cell_angle_alpha                 90.000000
_cell_angle_beta                  61.179368
_cell_angle_gamma                 90.000000
_cell_volume                      32449.513483
_symmetry_space_group_name_H-M    P1
_symmetry_Int_Tables_number       1
loop_
    _symmetry_equiv_pos_site_id
    _symmetry_equiv_pos_as_xyz
    1  x,y,z
loop_
    _atom_site_type_symbol
    _atom_site_label
    _atom_site_fract_x
    _atom_site_fract_y
    _atom_site_fract_z
    _atom_type_partial_charge
    O   O1    0.049403  0.519803  0.469701  -0.596555
    O   O2    0.950597  0.519803  0.530299  -0.596552
    O   O3    0.549403  0.019803  0.469701  -0.596547
    O   O4    0.450597  0.019803  0.530299  -0.596547
    O   O5    0.049603  0.462733  0.435441  -0.620361
    O   O6    0.950397  0.462733  0.564559  -0.620366
    O   O7    0.549603  0.962733  0.435441  -0.620328
    O   O8    0.450397  0.962733  0.564559  -0.620367
    C   C1    0.065806  0.491434  0.436406  0.714356
    C   C2    0.934194  0.491434  0.563594  0.714369
    C   C3    0.565806  0.991434  0.436406  0.714388
    C   C4    0.434194  0.991434  0.563594  0.714378
    O   O9    0.989891  0.519774  0.597108  -0.599932
    O   O10   0.010109  0.519774  0.402892  -0.599925
    O   O11   0.489891  0.019774  0.597108  -0.599925
    O   O12   0.510109  0.019774  0.402892  -0.599916
    O   O13   0.009287  0.462719  0.578525  -0.630586
    O   O14   0.990713  0.462719  0.421475  -0.630578
    O   O15   0.509287  0.962719  0.578525  -0.630585
    O   O16   0.490713  0.962719  0.421475  -0.630584
    C   C5    0.999226  0.491145  0.616768  0.753446
    C   C6    0.000774  0.491145  0.383232  0.753430
    C   C7    0.499226  0.991145  0.616768  0.753434
    C   C8    0.500774  0.991145  0.383232  0.753406
    Cu  Cu1   -0.000000  0.525055  0.500000  0.967268
    Cu  Cu2   0.500000  0.025055  0.500000  0.967258
    Cu  Cu3   -0.000000  0.457454  0.500000  1.001302
    Cu  Cu4   0.500000  0.957454  0.500000  1.001296
    C   C9    0.978311  0.512801  0.802680  -0.000346
    C   C10   0.021689  0.512801  0.197320  -0.000354
    C   C11   0.478311  0.012801  0.802680  -0.000354
    C   C12   0.521689  0.012801  0.197320  -0.000352
    C   C13   0.005369  0.502973  0.810386  -0.313132
    C   C14   0.994631  0.502973  0.189614  -0.313143
    C   C15   0.505369  0.002973  0.810386  -0.313123
    C   C16   0.494631  0.002973  0.189614  -0.313143
    H   H1    0.954849  0.522180  0.847275  0.124920
    H   H2    0.045151  0.522180  0.152726  0.124927
    H   H3    0.454849  0.022180  0.847275  0.124924
    H   H4    0.545151  0.022180  0.152726  0.124926
    H   H5    0.030082  0.496940  0.765200  0.179825
    H   H6    0.969918  0.496940  0.234800  0.179824
    H   H7    0.530082  0.996940  0.765200  0.179827
    H   H8    0.469918  0.996940  0.234800  0.179828
    C   C17   0.980382  0.514031  0.733476  -0.036861
    C   C18   0.019618  0.514031  0.266525  -0.036857
    C   C19   0.480382  0.014031  0.733476  -0.036858
    C   C20   0.519618  0.014031  0.266525  -0.036865
    C   C21   0.998490  0.490557  0.684436  -0.285921
    C   C22   0.001510  0.490557  0.315565  -0.285912
    C   C23   0.498490  0.990557  0.684436  -0.285912
    C   C24   0.501510  0.990557  0.315565  -0.285892
    H   H9    0.964681  0.532939  0.724698  0.122586
    H   H10   0.035319  0.532939  0.275302  0.122583
    H   H11   0.464681  0.032939  0.724698  0.122585
    H   H12   0.535319  0.032939  0.275302  0.122587
    H   H13   0.011292  0.469350  0.695338  0.166954
    H   H14   0.988708  0.469350  0.304662  0.166951
    H   H15   0.511292  0.969350  0.695338  0.166950
    H   H16   0.488708  0.969350  0.304662  0.166946
    C   C25   0.377307  0.501762  0.069066  -0.117009
    C   C26   0.622693  0.501762  0.930935  -0.117021
    C   C27   0.877307  0.001762  0.069066  -0.117012
    C   C28   0.122693  0.001762  0.930935  -0.117027
    H   H17   0.390342  0.503228  0.012596  0.123595
    H   H18   0.609657  0.503228  0.987404  0.123596
    H   H19   0.890342  0.003228  0.012596  0.123594
    H   H20   0.109657  0.003228  0.987404  0.123598
    C   C29   0.341521  0.501818  0.105357  -0.090836
    C   C30   0.658479  0.501818  0.894643  -0.090827
    C   C31   0.841521  0.001818  0.105357  -0.090832
    C   C32   0.158479  0.001818  0.894643  -0.090823
    H   H21   0.327238  0.503491  0.076681  0.108016
    H   H22   0.672762  0.503491  0.923319  0.108016
    H   H23   0.827238  0.003491  0.076681  0.108016
    H   H24   0.172762  0.003491  0.923319  0.108014
    C   C33   0.324111  0.500522  0.177613  -0.092415
    C   C34   0.675889  0.500522  0.822387  -0.092414
    C   C35   0.824111  0.000522  0.177613  -0.092415
    C   C36   0.175889  0.000522  0.822387  -0.092414
    C   C37   0.342987  0.498151  0.213050  -0.029077
    C   C38   0.657013  0.498151  0.786950  -0.029097
    C   C39   0.842987  0.998151  0.213050  -0.029079
    C   C40   0.157013  0.998151  0.786950  -0.029100
    H   H25   0.329840  0.495832  0.269418  0.078968
    H   H26   0.670159  0.495832  0.730582  0.078974
    H   H27   0.829840  0.995832  0.269418  0.078968
    H   H28   0.170159  0.995832  0.730582  0.078975
    C   C41   0.378758  0.499111  0.176932  -0.086508
    C   C42   0.621242  0.499111  0.823068  -0.086489
    C   C43   0.878758  0.999111  0.176932  -0.086511
    C   C44   0.121242  0.999111  0.823068  -0.086494
    H   H29   0.392951  0.497681  0.205802  0.095560
    H   H30   0.607048  0.497681  0.794199  0.095554
    H   H31   0.892951  0.997681  0.205802  0.095561
    H   H32   0.107048  0.997681  0.794199  0.095556
    C   C45   0.396102  0.500937  0.104724  -0.027224
    C   C46   0.603898  0.500937  0.895276  -0.027226
    C   C47   0.896102  0.000937  0.104724  -0.027224
    C   C48   0.103898  0.000937  0.895276  -0.027213
    C   C49   0.266709  0.521867  0.272912  -0.320253
    C   C50   0.733291  0.521867  0.727088  -0.320263
    C   C51   0.766709  0.021867  0.272912  -0.320250
    C   C52   0.233291  0.021867  0.727088  -0.320272
    C   C53   0.230982  0.518600  0.309355  0.006530
    C   C54   0.769018  0.518600  0.690646  0.006566
    C   C55   0.730982  0.018600  0.309355  0.006524
    C   C56   0.269018  0.018600  0.690646  0.006575
    H   H33   0.215940  0.534935  0.354155  0.120431
    H   H34   0.784060  0.534935  0.645845  0.120412
    H   H35   0.715940  0.034935  0.354155  0.120433
    H   H36   0.284060  0.034935  0.645845  0.120411
    C   C57   0.213886  0.496610  0.286159  -0.044374
    C   C58   0.786114  0.496610  0.713841  -0.044396
    C   C59   0.713886  0.996610  0.286159  -0.044357
    C   C60   0.286114  0.996610  0.713841  -0.044400
    C   C61   0.232958  0.475514  0.229420  -0.128106
    C   C62   0.767042  0.475514  0.770580  -0.128077
    C   C63   0.732958  0.975514  0.229420  -0.128131
    C   C64   0.267042  0.975514  0.770580  -0.128070
    H   H37   0.220056  0.457928  0.210874  0.118707
    H   H38   0.779944  0.457928  0.789126  0.118700
    H   H39   0.720056  0.957928  0.210874  0.118713
    H   H40   0.279944  0.957928  0.789126  0.118698
    C   C65   0.268674  0.477189  0.194974  -0.124781
    C   C66   0.731326  0.477189  0.805026  -0.124789
    C   C67   0.768674  0.977189  0.194974  -0.124770
    C   C68   0.231326  0.977189  0.805026  -0.124793
    H   H41   0.283140  0.459986  0.151349  0.108201
    H   H42   0.716860  0.459986  0.848651  0.108198
    H   H43   0.783140  0.959986  0.151349  0.108199
    H   H44   0.216860  0.959986  0.848651  0.108198
    C   C69   0.285928  0.500367  0.215726  0.179161
    C   C70   0.714072  0.500367  0.784274  0.179165
    C   C71   0.785928  0.000367  0.215726  0.179155
    C   C72   0.214072  0.000367  0.784274  0.179167
    C   C73   0.158950  0.464353  0.342336  -0.156099
    C   C74   0.841050  0.464353  0.657664  -0.156132
    C   C75   0.658950  0.964353  0.342336  -0.156240
    C   C76   0.341050  0.964353  0.657664  -0.156136
    H   H45   0.173825  0.440725  0.331573  0.128551
    H   H46   0.826175  0.440725  0.668427  0.128546
    H   H47   0.673825  0.940725  0.331573  0.128585
    H   H48   0.326175  0.940725  0.668427  0.128545
    C   C77   0.123202  0.462614  0.378986  -0.084145
    C   C78   0.876798  0.462614  0.621014  -0.084111
    C   C79   0.623202  0.962614  0.378986  -0.083886
    C   C80   0.376798  0.962614  0.621014  -0.084102
    H   H49   0.110706  0.437681  0.395326  0.126317
    H   H50   0.889294  0.437681  0.604674  0.126313
    H   H51   0.610706  0.937681  0.395326  0.126206
    H   H52   0.389294  0.937681  0.604674  0.126308
    C   C81   0.103796  0.492594  0.396829  -0.072212
    C   C82   0.896204  0.492593  0.603171  -0.072227
    C   C83   0.603796  0.992594  0.396829  -0.072389
    C   C84   0.396204  0.992593  0.603171  -0.072243
    C   C85   0.120346  0.524140  0.375388  -0.001996
    C   C86   0.879654  0.524140  0.624612  -0.002004
    C   C87   0.620346  0.024140  0.375388  -0.001912
    C   C88   0.379654  0.024140  0.624612  -0.001996
    H   H53   0.105089  0.547494  0.386355  0.108820
    H   H54   0.894911  0.547494  0.613645  0.108824
    H   H55   0.605089  0.047494  0.386355  0.108810
    H   H56   0.394911  0.047494  0.613645  0.108821
    C   C89   0.156050  0.526052  0.335671  -0.238835
    C   C90   0.843950  0.526052  0.664329  -0.238881
    C   C91   0.656050  0.026052  0.335671  -0.238894
    C   C92   0.343950  0.026052  0.664329  -0.238882
    C   C93   0.175730  0.495895  0.321156  0.133610
    C   C94   0.824269  0.495895  0.678844  0.133656
    C   C95   0.675730  0.995895  0.321156  0.133661
    C   C96   0.324269  0.995895  0.678844  0.133656
    O   O17   0.970325  0.451829  0.022763  -0.618644
    O   O18   0.029675  0.451829  0.977237  -0.618671
    O   O19   0.470325  0.951829  0.022763  -0.618658
    O   O20   0.529675  0.951829  0.977237  -0.618656
    C   C97   0.000000  0.435568  0.000000  0.671988
    C   C98   0.500000  0.935568  0.000000  0.671977
    O   O21   0.972429  0.504012  0.935089  -0.638325
    O   O22   0.027571  0.504012  0.064911  -0.638348
    O   O23   0.472429  0.004012  0.935089  -0.638327
    O   O24   0.527571  0.004012  0.064911  -0.638339
    O   O25   0.032187  0.502914  0.882357  -0.645303
    O   O26   0.967813  0.502914  0.117643  -0.645283
    O   O27   0.532187  0.002914  0.882357  -0.645284
    O   O28   0.467813  0.002914  0.117643  -0.645292
    C   C99   0.003107  0.502327  0.879451  0.789804
    C   C100  0.996893  0.502327  0.120549  0.789824
    C   C101  0.503107  0.002327  0.879451  0.789797
    C   C102  0.496893  0.002327  0.120549  0.789838
    Cu  Cu5   0.965464  0.502125  0.030484  1.003808
    Cu  Cu6   0.034536  0.502125  0.969516  1.003750
    Cu  Cu7   0.465464  0.002125  0.030484  1.003733
    Cu  Cu8   0.534536  0.002125  0.969516  1.003767
    O   O29   0.970138  0.552458  0.024756  -0.582739
    O   O30   0.029862  0.552458  0.975244  -0.582768
    O   O31   0.470138  0.052458  0.024756  -0.582750
    O   O32   0.529862  0.052458  0.975244  -0.582753
    C   C103  0.000000  0.568665  0.000000  0.687632
    C   C104  0.500000  0.068665  0.000000  0.687626
    O   O33   0.491224  0.452356  0.059471  -0.593445
    O   O34   0.508776  0.452356  0.940529  -0.593439
    O   O35   0.991224  0.952356  0.059471  -0.593447
    O   O36   0.008776  0.952356  0.940529  -0.593438
    C   C105  0.500000  0.436087  0.000000  0.666205
    C   C106  0.000000  0.936087  0.000000  0.666208
    O   O37   0.450917  0.510959  0.100043  -0.595036
    O   O38   0.549083  0.510959  0.899957  -0.595042
    O   O39   0.950917  0.010959  0.100043  -0.595034
    O   O40   0.049083  0.010959  0.899957  -0.595043
    O   O41   0.449918  0.492582  0.999570  -0.615746
    O   O42   0.550082  0.492582  0.000430  -0.615728
    O   O43   0.949918  0.992582  0.999570  -0.615743
    O   O44   0.050082  0.992582  0.000430  -0.615726
    C   C107  0.434119  0.501569  0.066262  0.691620
    C   C108  0.565881  0.501569  0.933738  0.691611
    C   C109  0.934119  0.001569  0.066262  0.691623
    C   C110  0.065881  0.001569  0.933738  0.691604
    Cu  Cu9   0.500598  0.501786  0.059384  0.969193
    Cu  Cu10  0.499401  0.501786  0.940616  0.969192
    Cu  Cu11  0.000598  0.001786  0.059384  0.969182
    Cu  Cu12  0.999401  0.001786  0.940616  0.969186
    O   O45   0.509778  0.551226  0.040899  -0.594321
    O   O46   0.490222  0.551226  0.959101  -0.594321
    O   O47   0.009778  0.051226  0.040899  -0.594332
    O   O48   0.990222  0.051226  0.959101  -0.594341
    C   C111  0.500000  0.567510  0.000000  0.646610
    C   C112  0.000000  0.067510  0.000000  0.646689
    C   C113  0.507344  0.623569  0.045976  -0.098212
    C   C114  0.492656  0.623569  0.954024  -0.098257
    C   C115  0.007344  0.123569  0.045976  -0.098132
    C   C116  0.992656  0.123569  0.954024  -0.098128
    H   H57   0.512907  0.610129  0.082889  0.116902
    H   H58   0.487093  0.610129  0.917111  0.116907
    H   H59   0.012907  0.110129  0.082889  0.116903
    H   H60   0.987093  0.110129  0.917111  0.116903
    C   C117  0.507268  0.659260  0.046068  -0.162916
    C   C118  0.492732  0.659260  0.953933  -0.162869
    C   C119  0.007268  0.159260  0.046068  -0.163279
    C   C120  0.992732  0.159260  0.953933  -0.163279
    H   H61   0.512237  0.672684  0.083799  0.117511
    H   H62   0.487763  0.672684  0.916201  0.117503
    H   H63   0.012237  0.172684  0.083799  0.117615
    H   H64   0.987763  0.172684  0.916201  0.117609
    C   C121  0.500000  0.677424  0.000000  0.118254
    C   C122  0.000000  0.177424  0.000000  0.119101
    C   C123  0.500000  0.605486  0.000000  -0.008450
    C   C124  0.000000  0.105486  0.000000  -0.008590
    C   C125  0.475888  0.733699  0.989229  -0.124237
    C   C126  0.524112  0.733699  0.010771  -0.124121
    C   C127  0.975888  0.233699  0.989229  -0.124027
    C   C128  0.024112  0.233699  0.010771  -0.124045
    H   H65   0.456318  0.720286  0.981906  0.112066
    H   H66   0.543682  0.720286  0.018095  0.112025
    H   H67   0.956318  0.220286  0.981906  0.112028
    H   H68   0.043682  0.220286  0.018095  0.112032
    C   C129  0.975897  0.269387  0.989201  -0.150079
    C   C130  0.024103  0.269387  0.010799  -0.150062
    C   C131  0.475897  0.769387  0.989201  -0.150093
    C   C132  0.524103  0.769387  0.010799  -0.150120
    H   H69   0.957119  0.282800  0.979368  0.116511
    H   H70   0.042881  0.282799  0.020632  0.116508
    H   H71   0.457119  0.782800  0.979368  0.116531
    H   H72   0.542881  0.782799  0.020632  0.116525
    C   C133  0.000000  0.287557  0.000000  0.071786
    C   C134  0.500000  0.787557  0.000000  0.071779
    C   C135  0.500000  0.715528  0.000000  0.030060
    C   C136  0.000000  0.215528  0.000000  0.029360
    C   C137  0.030936  0.343824  0.971026  -0.145454
    C   C138  0.969064  0.343824  0.028974  -0.145454
    C   C139  0.530936  0.843824  0.971026  -0.145386
    C   C140  0.469064  0.843824  0.028974  -0.145421
    H   H73   0.055533  0.330401  0.946523  0.110695
    H   H74   0.944466  0.330401  0.053477  0.110695
    H   H75   0.555533  0.830401  0.946523  0.110676
    H   H76   0.444466  0.830401  0.053477  0.110683
    C   C141  0.030942  0.379516  0.971157  -0.110110
    C   C142  0.969058  0.379516  0.028843  -0.110110
    C   C143  0.530942  0.879516  0.971157  -0.110145
    C   C144  0.469058  0.879516  0.028843  -0.110122
    H   H77   0.055530  0.392965  0.947739  0.129247
    H   H78   0.944470  0.392965  0.052262  0.129247
    H   H79   0.555530  0.892965  0.947739  0.129254
    H   H80   0.444470  0.892965  0.052262  0.129252
    C   C145  0.000000  0.397595  0.000000  -0.025569
    C   C146  0.500000  0.897595  0.000000  -0.025536
    C   C147  0.000000  0.325661  0.000000  0.096681
    C   C148  0.500000  0.825661  0.000000  0.096625
    C   C149  0.508736  0.380100  0.939026  -0.087339
    C   C150  0.491264  0.380100  0.060974  -0.087164
    C   C151  0.008736  0.880100  0.939026  -0.087337
    C   C152  0.991264  0.880100  0.060974  -0.087157
    H   H81   0.515504  0.393529  0.890668  0.112323
    H   H82   0.484496  0.393528  0.109332  0.112265
    H   H83   0.015504  0.893529  0.890668  0.112324
    H   H84   0.984496  0.893528  0.109332  0.112266
    C   C153  0.508763  0.344430  0.939042  -0.156113
    C   C154  0.491237  0.344430  0.060958  -0.156206
    C   C155  0.008763  0.844430  0.939042  -0.156114
    C   C156  0.991237  0.844430  0.060958  -0.156209
    H   H85   0.514997  0.330935  0.891007  0.115896
    H   H86   0.485003  0.330935  0.108992  0.115916
    H   H87   0.014997  0.830935  0.891007  0.115897
    H   H88   0.985003  0.830935  0.108992  0.115914
    C   C157  0.500000  0.326332  0.000000  0.105328
    C   C158  0.000000  0.826332  0.000000  0.105329
    C   C159  0.500000  0.398153  0.000000  -0.039166
    C   C160  0.000000  0.898153  0.000000  -0.039168
    C   C161  0.474368  0.270210  0.055535  -0.139508
    C   C162  0.525632  0.270210  0.944465  -0.139506
    C   C163  0.974368  0.770210  0.055535  -0.139508
    C   C164  0.025632  0.770210  0.944465  -0.139507
    H   H89   0.453697  0.283694  0.099090  0.108908
    H   H90   0.546303  0.283694  0.900911  0.108911
    H   H91   0.953697  0.783694  0.099090  0.108908
    H   H92   0.046303  0.783694  0.900911  0.108909
    C   C165  0.974321  0.734544  0.055458  -0.144461
    C   C166  0.025679  0.734544  0.944542  -0.144479
    C   C167  0.474321  0.234544  0.055458  -0.144466
    C   C168  0.525679  0.234544  0.944542  -0.144486
    H   H93   0.954259  0.721059  0.100015  0.113849
    H   H94   0.045741  0.721060  0.899984  0.113856
    H   H95   0.454259  0.221059  0.100015  0.113850
    H   H96   0.545741  0.221060  0.899984  0.113858
    C   C169  0.000000  0.716441  0.000000  0.079662
    C   C170  0.500000  0.216441  0.000000  0.079665
    C   C171  0.500000  0.288313  0.000000  0.066020
    C   C172  0.000000  0.788313  0.000000  0.066018
    C   C173  0.030804  0.660324  0.975371  -0.140735
    C   C174  0.969195  0.660324  0.024630  -0.140744
    C   C175  0.530804  0.160324  0.975371  -0.140731
    C   C176  0.469195  0.160324  0.024630  -0.140740
    H   H97   0.055168  0.673819  0.957223  0.108644
    H   H98   0.944831  0.673819  0.042778  0.108650
    H   H99   0.555168  0.173819  0.957223  0.108643
    H   H100  0.444831  0.173819  0.042778  0.108648
    C   C177  0.030816  0.624653  0.975418  -0.084475
    C   C178  0.969183  0.624653  0.024583  -0.084479
    C   C179  0.530816  0.124653  0.975418  -0.084482
    C   C180  0.469183  0.124653  0.024583  -0.084493
    H   H101  0.055277  0.611223  0.956247  0.118267
    H   H102  0.944723  0.611223  0.043753  0.118270
    H   H103  0.555277  0.111223  0.956247  0.118268
    H   H104  0.444723  0.111223  0.043753  0.118275
    C   C181  0.000000  0.606600  0.000000  -0.077166
    C   C182  0.500000  0.106600  0.000000  -0.077144
    C   C183  0.000000  0.678421  0.000000  0.085769
    C   C184  0.500000  0.178421  0.000000  0.085769
    C   C185  0.171591  0.560031  0.306752  0.757342
    O   O49   0.156844  0.586410  0.337367  -0.539536
    O   O50   0.200893  0.562289  0.244656  -0.294146
    C   C186  0.216036  0.593688  0.218033  -0.098671
    H   H105  0.239870  0.589592  0.167291  0.086431
    H   H106  0.223159  0.606473  0.254893  0.088020
    H   H107  0.197808  0.610287  0.209554  0.086675
    C   C187  0.828409  0.560031  0.693248  0.757432
    O   O51   0.843156  0.586410  0.662633  -0.539558
    O   O52   0.799107  0.562289  0.755344  -0.294204
    C   C188  0.783964  0.593688  0.781967  -0.098701
    H   H108  0.760129  0.589592  0.832709  0.086444
    H   H109  0.776841  0.606473  0.745107  0.088029
    H   H110  0.802192  0.610287  0.790446  0.086689
    C   C189  0.671591  0.060031  0.306752  0.757354
    O   O53   0.656844  0.086410  0.337367  -0.539539
    O   O54   0.700893  0.062289  0.244656  -0.294149
    C   C190  0.716036  0.093688  0.218033  -0.098672
    H   H111  0.739870  0.089592  0.167291  0.086432
    H   H112  0.723159  0.106473  0.254893  0.088019
    H   H113  0.697808  0.110287  0.209554  0.086674
    C   C191  0.328409  0.060031  0.693248  0.757428
    O   O55   0.343156  0.086410  0.662633  -0.539556
    O   O56   0.299107  0.062289  0.755344  -0.294204
    C   C192  0.283964  0.093688  0.781967  -0.098702
    H   H114  0.260129  0.089592  0.832709  0.086444
    H   H115  0.276841  0.106473  0.745107  0.088028
    H   H116  0.302192  0.110287  0.790446  0.086689
    C   C193  0.282576  0.550060  0.293284  0.875412
    O   O57   0.268338  0.560350  0.353625  -0.595435
    O   O58   0.311247  0.566344  0.244764  -0.311472
    C   C194  0.325929  0.592972  0.262947  -0.097518
    H   H117  0.349252  0.602369  0.215556  0.096821
    H   H118  0.333763  0.583670  0.301429  0.088114
    H   H119  0.307087  0.614542  0.285723  0.076842
    C   C195  0.717424  0.550060  0.706717  0.875419
    O   O59   0.731662  0.560350  0.646375  -0.595446
    O   O60   0.688753  0.566344  0.755236  -0.311470
    C   C196  0.674071  0.592972  0.737053  -0.097514
    H   H120  0.650748  0.602369  0.784444  0.096814
    H   H121  0.666237  0.583670  0.698571  0.088118
    H   H122  0.692913  0.614542  0.714277  0.076843
    C   C197  0.782576  0.050060  0.293284  0.875409
    O   O61   0.768338  0.060350  0.353625  -0.595435
    O   O62   0.811247  0.066344  0.244764  -0.311472
    C   C198  0.825929  0.092972  0.262947  -0.097516
    H   H123  0.849252  0.102369  0.215556  0.096820
    H   H124  0.833763  0.083670  0.301429  0.088115
    H   H125  0.807087  0.114542  0.285723  0.076842
    C   C199  0.217424  0.050060  0.706717  0.875423
    O   O63   0.231662  0.060350  0.646375  -0.595447
    O   O64   0.188753  0.066344  0.755236  -0.311474
    C   C200  0.174071  0.092972  0.737053  -0.097508
    H   H126  0.150748  0.102369  0.784444  0.096814
    H   H127  0.166237  0.083670  0.698571  0.088118
    H   H128  0.192913  0.114542  0.714277  0.076842
