# generated using pymatgen
data_CuH21C26N2O5
_symmetry_space_group_name_H-M   'P 1'
_cell_length_a   10.92747400
_cell_length_b   15.11415100
_cell_length_c   13.66054900
_cell_angle_alpha   89.99676900
_cell_angle_beta   90.00093600
_cell_angle_gamma   89.99361400
_symmetry_Int_Tables_number   1
_chemical_formula_structural   CuH21C26N2O5
_chemical_formula_sum   'Cu2 H42 C52 N4 O10'
_cell_volume   2256.16931653
_cell_formula_units_Z   2
loop_
 _symmetry_equiv_pos_site_id
 _symmetry_equiv_pos_as_xyz
  1  'x, y, z'
loop_
 _atom_site_type_symbol
 _atom_site_label
 _atom_site_symmetry_multiplicity
 _atom_site_fract_x
 _atom_site_fract_y
 _atom_site_fract_z
 _atom_site_occupancy
  Cu  Cu1  1  0.50348300  0.49769300  0.59992300  1
  Cu  Cu2  1  0.50868700  0.49756400  0.40433200  1
  H  H1  1  0.20772400  0.48521800  0.04241400  1
  H  H2  1  0.79374500  0.52875000  0.95772800  1
  H  H3  1  0.20758100  0.62549700  0.13273900  1
  H  H4  1  0.83640200  0.38295300  0.88634200  1
  H  H5  1  0.14584400  0.62946700  0.30483500  1
  H  H6  1  0.90334900  0.37053500  0.71585400  1
  H  H7  1  0.08335800  0.35200200  0.29987500  1
  H  H8  1  0.89107200  0.65028500  0.68619800  1
  H  H9  1  0.88747800  0.48726700  0.35059600  1
  H  H10  1  0.12466400  0.50624700  0.65371100  1
  H  H11  1  0.57014000  0.05864700  0.65038800  1
  H  H12  1  0.56176400  0.93615700  0.35179000  1
  H  H13  1  0.56749300  0.21824200  0.65143300  1
  H  H14  1  0.55872700  0.77656400  0.35112000  1
  H  H15  1  0.44643500  0.21935100  0.35395200  1
  H  H16  1  0.45333000  0.77579100  0.65233100  1
  H  H17  1  0.44215900  0.05951500  0.35399300  1
  H  H18  1  0.44885400  0.93560400  0.65229900  1
  H  H19  1  0.58074700  0.62988000  0.06989900  1
  H  H20  1  0.57502100  0.36587200  0.93332100  1
  H  H21  1  0.58539900  0.62653600  0.24721000  1
  H  H22  1  0.57503000  0.36940200  0.75610600  1
  H  H23  1  0.43749400  0.36917800  0.24721100  1
  H  H24  1  0.42102100  0.62497200  0.75822900  1
  H  H25  1  0.43621100  0.36709200  0.06992500  1
  H  H26  1  0.42565000  0.62647400  0.93657200  1
  H  H27  1  0.23630700  0.26066400  0.22713000  1
  H  H28  1  0.24634700  0.20967000  0.10905800  1
  H  H29  1  0.01578800  0.21864400  0.23832100  1
  H  H30  1  0.10646700  0.12468100  0.20762000  1
  H  H31  1  0.90649200  0.28816700  0.12954900  1
  H  H32  1  0.89307500  0.24815100  0.00669100  1
  H  H33  1  0.01970000  0.38442700  0.01628200  1
  H  H34  1  0.10346300  0.29081200  0.96864400  1
  H  H35  1  0.95009500  0.65140700  0.97615700  1
  H  H36  1  0.84441400  0.73803000  0.01002900  1
  H  H37  1  0.04944900  0.74875200  0.85578900  1
  H  H38  1  0.04462800  0.80022600  0.97365400  1
  H  H39  1  0.93055800  0.79369400  0.73591500  1
  H  H40  1  0.81932800  0.87856800  0.75332400  1
  H  H41  1  0.72099900  0.72921900  0.74724700  1
  H  H42  1  0.69398400  0.78803800  0.85859500  1
  C  C1  1  0.50642800  0.32746700  0.50230300  1
  C  C2  1  0.50583300  0.66775800  0.50212400  1
  C  C3  1  0.26994300  0.49804400  0.49715800  1
  C  C4  1  0.74247500  0.49818700  0.50708200  1
  C  C5  1  0.18196500  0.56500200  0.16920100  1
  C  C6  1  0.84738800  0.44190800  0.84259600  1
  C  C7  1  0.14824800  0.56705700  0.26620300  1
  C  C8  1  0.88410600  0.43499400  0.74661700  1
  C  C9  1  0.11512200  0.48993100  0.31326000  1
  C  C10  1  0.89668300  0.51024800  0.69042700  1
  C  C11  1  0.11413500  0.41087600  0.26255600  1
  C  C12  1  0.87536400  0.59254800  0.73087300  1
  C  C13  1  0.14851800  0.40831600  0.16493400  1
  C  C14  1  0.83826100  0.59985100  0.82750800  1
  C  C15  1  0.18131300  0.48611400  0.11867700  1
  C  C16  1  0.82430100  0.52394200  0.88265000  1
  C  C17  1  0.93811700  0.49257000  0.41830700  1
  C  C18  1  0.07408700  0.50315200  0.58594200  1
  C  C19  1  0.87785800  0.49841900  0.50721400  1
  C  C20  1  0.13421300  0.49897400  0.49687700  1
  C  C21  1  0.94840700  0.50377700  0.59206800  1
  C  C22  1  0.06390300  0.49370900  0.41200100  1
  C  C23  1  0.53953300  0.09262400  0.58542100  1
  C  C24  1  0.53501600  0.90224700  0.41791400  1
  C  C25  1  0.53908100  0.18390300  0.58594200  1
  C  C26  1  0.53442800  0.81097700  0.41751400  1
  C  C27  1  0.50636500  0.23036300  0.50277700  1
  C  C28  1  0.50602000  0.76461700  0.50165600  1
  C  C29  1  0.47348400  0.18452400  0.41954000  1
  C  C30  1  0.47744700  0.81051900  0.58585500  1
  C  C31  1  0.47200100  0.09332300  0.41942600  1
  C  C32  1  0.47591200  0.90170300  0.58595500  1
  C  C33  1  0.50542500  0.04636900  0.50228200  1
  C  C34  1  0.50547300  0.94867700  0.50210600  1
  C  C35  1  0.54922300  0.57118700  0.10746200  1
  C  C36  1  0.54216700  0.42452400  0.89608200  1
  C  C37  1  0.55201400  0.56939500  0.20840800  1
  C  C38  1  0.54176500  0.42627200  0.79536400  1
  C  C39  1  0.47222500  0.42604200  0.20857400  1
  C  C40  1  0.45856300  0.56869600  0.79640700  1
  C  C41  1  0.47158700  0.42461500  0.10777600  1
  C  C42  1  0.46157900  0.57009600  0.89765000  1
  C  C43  1  0.50901900  0.49800500  0.05595200  1
  C  C44  1  0.50481000  0.49792300  0.94838100  1
  C  C45  1  0.18499600  0.24697400  0.15884200  1
  C  C46  1  0.07392800  0.18962100  0.18015900  1
  C  C47  1  0.95798600  0.25788900  0.06814600  1
  C  C48  1  0.05952000  0.31909700  0.03484700  1
  C  C49  1  0.89786300  0.70920600  0.94883200  1
  C  C50  1  0.98727600  0.77780200  0.91134700  1
  C  C51  1  0.86414900  0.82121100  0.78894800  1
  C  C52  1  0.76548100  0.75442100  0.81458200  1
  N  N1  1  0.51362800  0.49740000  0.25782100  1
  N  N2  1  0.49864200  0.49742300  0.74640700  1
  N  N3  1  0.14969100  0.32810600  0.11095600  1
  N  N4  1  0.81555800  0.68306800  0.87195600  1
  O  O1  1  0.50814100  0.36922000  0.58602300  1
  O  O2  1  0.50402200  0.62599900  0.41823400  1
  O  O3  1  0.50450500  0.36887400  0.41814700  1
  O  O4  1  0.50775400  0.62637800  0.58629700  1
  O  O5  1  0.32582600  0.50067300  0.58221000  1
  O  O6  1  0.68637200  0.49477400  0.42209100  1
  O  O7  1  0.33067900  0.49452300  0.41444200  1
  O  O8  1  0.68156000  0.50092400  0.58978900  1
  O  O9  1  0.00649500  0.17571700  0.09458600  1
  O  O10  1  0.92376700  0.85057300  0.87358800  1
