data_DB1-Zn2O8-irmof10_A-irmof7_A_No468_repeat
_audit_creation_date              2024-02-23
_audit_creation_method            'Materials Studio'
_symmetry_space_group_name_H-M    'P1'
_symmetry_Int_Tables_number       1
_symmetry_cell_setting            triclinic
loop_
_symmetry_equiv_pos_as_xyz
  x,y,z
_cell_length_a                    30.2925
_cell_length_b                    25.8895
_cell_length_c                    10.0000
_cell_angle_alpha                 90.0000
_cell_angle_beta                  90.0000
_cell_angle_gamma                 89.7125
loop_
_atom_site_label
_atom_site_type_symbol
_atom_site_fract_x
_atom_site_fract_y
_atom_site_fract_z
_atom_site_U_iso_or_equiv
_atom_site_adp_type
_atom_site_occupancy
O1     O     0.50051   0.42547   0.36422   0.00000  Uiso   1.00
O2     O     0.50009   0.42555   0.63602   0.00000  Uiso   1.00
C1     C     0.50028   0.39926   0.50010   0.00000  Uiso   1.00
Zn1    Zn    0.50012   0.49996   0.33423   0.00000  Uiso   1.00
O3     O     0.56355   0.49997   0.63618   0.00000  Uiso   1.00
O4     O     0.56378   0.49997   0.36437   0.00000  Uiso   1.00
C2     C     0.58610   0.49991   0.50024   0.00000  Uiso   1.00
O5     O     0.49957   0.57454   0.63578   0.00000  Uiso   1.00
O6     O     0.49983   0.57446   0.36398   0.00000  Uiso   1.00
C3     C     0.49969   0.60075   0.49989   0.00000  Uiso   1.00
Zn2    Zn    0.49988   0.50005   0.66577   0.00000  Uiso   1.00
O7     O     0.43645   0.49994   0.36382   0.00000  Uiso   1.00
O8     O     0.43622   0.50013   0.63563   0.00000  Uiso   1.00
C4     C     0.41390   0.49992   0.49976   0.00000  Uiso   1.00
O9     O     0.99987   0.42424   0.63578   0.00000  Uiso   1.00
O10    O     0.00029   0.42432   0.36397   0.00000  Uiso   1.00
C5     C     0.00023   0.39803   0.49990   0.00000  Uiso   1.00
Zn3    Zn    0.99989   0.49873   0.66575   0.00000  Uiso   1.00
O11    O     0.93646   0.49905   0.36380   0.00000  Uiso   1.00
O12    O     0.93623   0.49905   0.63562   0.00000  Uiso   1.00
C6     C     0.91390   0.49911   0.49974   0.00000  Uiso   1.00
O13    O     0.00007   0.57330   0.36419   0.00000  Uiso   1.00
O14    O     0.99981   0.57323   0.63600   0.00000  Uiso   1.00
C7     C     0.99982   0.59952   0.50008   0.00000  Uiso   1.00
Zn4    Zn    0.00013   0.49881   0.33422   0.00000  Uiso   1.00
O15    O     0.06356   0.49839   0.63617   0.00000  Uiso   1.00
O16    O     0.06379   0.49858   0.36435   0.00000  Uiso   1.00
C8     C     0.08611   0.49826   0.50023   0.00000  Uiso   1.00
O17    O     0.49996   0.98951   0.63569   0.00000  Uiso   1.00
O18    O     0.50005   0.98943   0.36388   0.00000  Uiso   1.00
C9     C     0.49995   0.01572   0.49981   0.00000  Uiso   1.00
Zn5    Zn    0.49959   0.91502   0.66567   0.00000  Uiso   1.00
O19    O     0.56359   0.91436   0.36483   0.00000  Uiso   1.00
O20    O     0.56330   0.91436   0.63665   0.00000  Uiso   1.00
C10    C     0.58589   0.91419   0.50117   0.00000  Uiso   1.00
O21    O     0.49969   0.84045   0.36412   0.00000  Uiso   1.00
O22    O     0.49943   0.84053   0.63593   0.00000  Uiso   1.00
C11    C     0.49957   0.81424   0.50001   0.00000  Uiso   1.00
Zn6    Zn    0.49998   0.91494   0.33414   0.00000  Uiso   1.00
O23    O     0.43598   0.91571   0.63498   0.00000  Uiso   1.00
O24    O     0.43626   0.91551   0.36316   0.00000  Uiso   1.00
C12    C     0.41368   0.91595   0.49865   0.00000  Uiso   1.00
O25    O     0.99762   0.98828   0.36422   0.00000  Uiso   1.00
O26    O     0.99753   0.98821   0.63603   0.00000  Uiso   1.00
C13    C     0.99749   0.01449   0.50010   0.00000  Uiso   1.00
Zn7    Zn    0.99836   0.91379   0.33425   0.00000  Uiso   1.00
O27    O     0.93436   0.91345   0.63509   0.00000  Uiso   1.00
O28    O     0.93465   0.91344   0.36327   0.00000  Uiso   1.00
C14    C     0.91206   0.91338   0.49876   0.00000  Uiso   1.00
O29    O     0.99863   0.83922   0.63582   0.00000  Uiso   1.00
O30    O     0.99888   0.83929   0.36401   0.00000  Uiso   1.00
C15    C     0.99887   0.81301   0.49993   0.00000  Uiso   1.00
Zn8    Zn    0.99797   0.91371   0.66578   0.00000  Uiso   1.00
O31    O     0.06197   0.91416   0.36495   0.00000  Uiso   1.00
O32    O     0.06168   0.91397   0.63676   0.00000  Uiso   1.00
C16    C     0.08426   0.91430   0.50128   0.00000  Uiso   1.00
C17    C     0.63369   0.49980   0.50017   0.00000  Uiso   1.00
C18    C     0.86632   0.49922   0.49981   0.00000  Uiso   1.00
C19    C     0.65695   0.49974   0.38019   0.00000  Uiso   1.00
C20    C     0.70325   0.49962   0.37901   0.00000  Uiso   1.00
C21    C     0.84306   0.49928   0.61979   0.00000  Uiso   1.00
C22    C     0.79676   0.49940   0.62098   0.00000  Uiso   1.00
C23    C     0.84302   0.49928   0.37991   0.00000  Uiso   1.00
C24    C     0.79672   0.49939   0.37887   0.00000  Uiso   1.00
C25    C     0.65699   0.49974   0.62007   0.00000  Uiso   1.00
C26    C     0.70329   0.49963   0.62112   0.00000  Uiso   1.00
C27    C     0.72668   0.49957   0.50003   0.00000  Uiso   1.00
C28    C     0.77333   0.49945   0.49996   0.00000  Uiso   1.00
H1     H     0.64109   0.49978   0.29708   0.00000  Uiso   1.00
H2     H     0.85892   0.49924   0.70291   0.00000  Uiso   1.00
H3     H     0.85885   0.49924   0.29674   0.00000  Uiso   1.00
H4     H     0.78106   0.49943   0.29541   0.00000  Uiso   1.00
H5     H     0.64116   0.49978   0.70324   0.00000  Uiso   1.00
H6     H     0.71895   0.49959   0.70458   0.00000  Uiso   1.00
C29    C     0.36631   0.49968   0.49983   0.00000  Uiso   1.00
C30    C     0.13370   0.49850   0.50016   0.00000  Uiso   1.00
C31    C     0.34302   0.49948   0.37992   0.00000  Uiso   1.00
C32    C     0.29672   0.49924   0.37887   0.00000  Uiso   1.00
C33    C     0.15699   0.49871   0.62007   0.00000  Uiso   1.00
C34    C     0.20329   0.49894   0.62112   0.00000  Uiso   1.00
C35    C     0.15696   0.49853   0.38019   0.00000  Uiso   1.00
C36    C     0.20325   0.49877   0.37901   0.00000  Uiso   1.00
C37    C     0.34305   0.49965   0.61980   0.00000  Uiso   1.00
C38    C     0.29676   0.49942   0.62098   0.00000  Uiso   1.00
C39    C     0.27333   0.49921   0.49996   0.00000  Uiso   1.00
C40    C     0.22668   0.49897   0.50003   0.00000  Uiso   1.00
H7     H     0.35885   0.49950   0.29675   0.00000  Uiso   1.00
H8     H     0.14116   0.49869   0.70323   0.00000  Uiso   1.00
H9     H     0.14110   0.49839   0.29707   0.00000  Uiso   1.00
H10    H     0.21889   0.49879   0.29550   0.00000  Uiso   1.00
H11    H     0.35891   0.49979   0.70292   0.00000  Uiso   1.00
H12    H     0.28112   0.49940   0.70449   0.00000  Uiso   1.00
C41    C     0.49960   0.75788   0.49998   0.00000  Uiso   1.00
C42    C     0.47112   0.73159   0.41315   0.00000  Uiso   1.00
C43    C     0.52811   0.73128   0.58678   0.00000  Uiso   1.00
C44    C     0.44328   0.75968   0.32836   0.00000  Uiso   1.00
C45    C     0.41446   0.73499   0.24052   0.00000  Uiso   1.00
H13    H     0.44401   0.79554   0.33067   0.00000  Uiso   1.00
C46    C     0.49966   0.65711   0.49992   0.00000  Uiso   1.00
C47    C     0.52814   0.68340   0.58675   0.00000  Uiso   1.00
C48    C     0.47115   0.68371   0.41312   0.00000  Uiso   1.00
C49    C     0.44333   0.65592   0.32830   0.00000  Uiso   1.00
C50    C     0.41449   0.68092   0.24049   0.00000  Uiso   1.00
H14    H     0.44410   0.62005   0.33057   0.00000  Uiso   1.00
C51    C     0.50023   0.34359   0.50006   0.00000  Uiso   1.00
C52    C     0.50000   0.07140   0.49985   0.00000  Uiso   1.00
C53    C     0.50039   0.31636   0.38010   0.00000  Uiso   1.00
C54    C     0.50035   0.26219   0.37894   0.00000  Uiso   1.00
C55    C     0.49984   0.09863   0.61981   0.00000  Uiso   1.00
C56    C     0.49988   0.15280   0.62097   0.00000  Uiso   1.00
C57    C     0.50021   0.09865   0.37993   0.00000  Uiso   1.00
C58    C     0.50026   0.15282   0.37886   0.00000  Uiso   1.00
C59    C     0.50002   0.31634   0.61998   0.00000  Uiso   1.00
C60    C     0.49997   0.26217   0.62105   0.00000  Uiso   1.00
C61    C     0.50014   0.23478   0.49998   0.00000  Uiso   1.00
C62    C     0.50009   0.18020   0.49993   0.00000  Uiso   1.00
H15    H     0.50054   0.33491   0.29697   0.00000  Uiso   1.00
H16    H     0.49969   0.08008   0.70294   0.00000  Uiso   1.00
H17    H     0.50033   0.08012   0.29678   0.00000  Uiso   1.00
H18    H     0.50040   0.17114   0.29539   0.00000  Uiso   1.00
H19    H     0.49991   0.33487   0.70313   0.00000  Uiso   1.00
H20    H     0.49983   0.24385   0.70452   0.00000  Uiso   1.00
C63    C     0.99912   0.75664   0.49997   0.00000  Uiso   1.00
C64    C     0.02773   0.73022   0.58680   0.00000  Uiso   1.00
C65    C     0.97074   0.73019   0.41317   0.00000  Uiso   1.00
C66    C     0.05544   0.75817   0.67159   0.00000  Uiso   1.00
C67    C     0.08438   0.73334   0.75943   0.00000  Uiso   1.00
H21    H     0.05453   0.79403   0.66927   0.00000  Uiso   1.00
C68    C     0.99957   0.65588   0.50004   0.00000  Uiso   1.00
C69    C     0.97096   0.68230   0.41320   0.00000  Uiso   1.00
C70    C     0.02795   0.68233   0.58684   0.00000  Uiso   1.00
C71    C     0.05590   0.65441   0.67166   0.00000  Uiso   1.00
C72    C     0.08462   0.67927   0.75946   0.00000  Uiso   1.00
H22    H     0.05531   0.61855   0.66939   0.00000  Uiso   1.00
C73    C     0.00056   0.34235   0.49995   0.00000  Uiso   1.00
C74    C     0.00214   0.07016   0.50020   0.00000  Uiso   1.00
C75    C     0.00053   0.31513   0.61991   0.00000  Uiso   1.00
C76    C     0.00084   0.26096   0.62108   0.00000  Uiso   1.00
C77    C     0.00217   0.09738   0.38023   0.00000  Uiso   1.00
C78    C     0.00185   0.15155   0.37907   0.00000  Uiso   1.00
C79    C     0.00179   0.09742   0.62011   0.00000  Uiso   1.00
C80    C     0.00148   0.15159   0.62118   0.00000  Uiso   1.00
C81    C     0.00090   0.31510   0.38004   0.00000  Uiso   1.00
C82    C     0.00122   0.26093   0.37897   0.00000  Uiso   1.00
C83    C     0.00119   0.23355   0.50005   0.00000  Uiso   1.00
C84    C     0.00151   0.17897   0.50010   0.00000  Uiso   1.00
H23    H     0.00029   0.33368   0.70304   0.00000  Uiso   1.00
H24    H     0.00241   0.07884   0.29711   0.00000  Uiso   1.00
H25    H     0.00177   0.07889   0.70327   0.00000  Uiso   1.00
H26    H     0.00124   0.16991   0.70464   0.00000  Uiso   1.00
H27    H     0.00092   0.33362   0.29688   0.00000  Uiso   1.00
H28    H     0.00146   0.24260   0.29550   0.00000  Uiso   1.00
C85    C     0.63347   0.91381   0.50207   0.00000  Uiso   1.00
C86    C     0.86609   0.91199   0.50649   0.00000  Uiso   1.00
C87    C     0.65650   0.91363   0.62245   0.00000  Uiso   1.00
C88    C     0.70279   0.91327   0.62445   0.00000  Uiso   1.00
C89    C     0.84306   0.91217   0.38611   0.00000  Uiso   1.00
C90    C     0.79677   0.91253   0.38412   0.00000  Uiso   1.00
C91    C     0.84257   0.91218   0.62599   0.00000  Uiso   1.00
C92    C     0.79627   0.91254   0.62622   0.00000  Uiso   1.00
C93    C     0.65700   0.91363   0.38258   0.00000  Uiso   1.00
C94    C     0.70330   0.91327   0.38234   0.00000  Uiso   1.00
C95    C     0.72646   0.91309   0.50384   0.00000  Uiso   1.00
C96    C     0.77311   0.91272   0.50473   0.00000  Uiso   1.00
H29    H     0.64049   0.91376   0.70529   0.00000  Uiso   1.00
H30    H     0.85908   0.91205   0.30327   0.00000  Uiso   1.00
H31    H     0.85824   0.91205   0.70943   0.00000  Uiso   1.00
H32    H     0.78044   0.91266   0.70941   0.00000  Uiso   1.00
H33    H     0.64133   0.91375   0.29913   0.00000  Uiso   1.00
H34    H     0.71912   0.91314   0.29916   0.00000  Uiso   1.00
C97    C     0.36610   0.91668   0.49774   0.00000  Uiso   1.00
C98    C     0.13348   0.92026   0.49334   0.00000  Uiso   1.00
C99    C     0.34257   0.91713   0.61724   0.00000  Uiso   1.00
C100   C     0.29627   0.91784   0.61748   0.00000  Uiso   1.00
C101   C     0.15701   0.91981   0.37385   0.00000  Uiso   1.00
C102   C     0.20330   0.91910   0.37361   0.00000  Uiso   1.00
C103   C     0.15651   0.91999   0.61372   0.00000  Uiso   1.00
C104   C     0.20280   0.91928   0.61571   0.00000  Uiso   1.00
C105   C     0.34306   0.91695   0.37737   0.00000  Uiso   1.00
C106   C     0.29677   0.91766   0.37538   0.00000  Uiso   1.00
C107   C     0.27311   0.91811   0.49598   0.00000  Uiso   1.00
C108   C     0.22647   0.91883   0.49510   0.00000  Uiso   1.00
H35    H     0.35824   0.91695   0.70068   0.00000  Uiso   1.00
H36    H     0.14133   0.91999   0.29040   0.00000  Uiso   1.00
H37    H     0.14050   0.92029   0.69656   0.00000  Uiso   1.00
H38    H     0.21828   0.91910   0.69949   0.00000  Uiso   1.00
H39    H     0.35908   0.91665   0.29452   0.00000  Uiso   1.00
H40    H     0.28129   0.91784   0.29160   0.00000  Uiso   1.00
O33    O     0.72439   0.49957   0.26611   0.00000  Uiso   1.00
Li1    Li    0.70746   0.49961   0.10287   0.00000  Uiso   1.00
O34    O     0.77562   0.49945   0.73388   0.00000  Uiso   1.00
Li2    Li    0.79255   0.49941   0.89712   0.00000  Uiso   1.00
O35    O     0.27555   0.49905   0.26603   0.00000  Uiso   1.00
Li3    Li    0.29242   0.49902   0.10274   0.00000  Uiso   1.00
O36    O     0.22446   0.49913   0.73395   0.00000  Uiso   1.00
Li4    Li    0.20759   0.49917   0.89724   0.00000  Uiso   1.00
O37    O     0.50051   0.23745   0.26606   0.00000  Uiso   1.00
Li5    Li    0.50078   0.25723   0.10281   0.00000  Uiso   1.00
O38    O     0.49972   0.17754   0.73385   0.00000  Uiso   1.00
Li6    Li    0.49945   0.15775   0.89710   0.00000  Uiso   1.00
O39    O     0.00081   0.23622   0.73397   0.00000  Uiso   1.00
Li7    Li    0.00044   0.25601   0.89721   0.00000  Uiso   1.00
O40    O     0.00189   0.17630   0.26618   0.00000  Uiso   1.00
Li8    Li    0.00226   0.15650   0.10294   0.00000  Uiso   1.00
O41    O     0.72372   0.91311   0.73772   0.00000  Uiso   1.00
Li9    Li    0.70648   0.91325   0.90065   0.00000  Uiso   1.00
O42    O     0.77584   0.91270   0.27085   0.00000  Uiso   1.00
Li10   Li    0.79308   0.91256   0.10791   0.00000  Uiso   1.00
O43    O     0.27488   0.91825   0.72995   0.00000  Uiso   1.00
Li11   Li    0.29144   0.91811   0.89353   0.00000  Uiso   1.00
O44    O     0.22469   0.91869   0.26114   0.00000  Uiso   1.00
Li12   Li    0.20813   0.91883   0.09756   0.00000  Uiso   1.00
Br1    Br    0.56969   0.64210   0.71327   0.00000  Uiso   1.00
Br2    Br    0.56962   0.77213   0.71334   0.00000  Uiso   1.00
Br3    Br    0.37313   0.77690   0.11469   0.00000  Uiso   1.00
Br4    Br    0.37321   0.63945   0.11462   0.00000  Uiso   1.00
Br5    Br    0.92961   0.64121   0.28670   0.00000  Uiso   1.00
Br6    Br    0.92903   0.77124   0.28661   0.00000  Uiso   1.00
Br7    Br    0.12550   0.77505   0.88525   0.00000  Uiso   1.00
Br8    Br    0.12611   0.63760   0.88535   0.00000  Uiso   1.00
