# generated using pymatgen
data_AlH10C16NClO5
_symmetry_space_group_name_H-M   'P 1'
_cell_length_a   6.60720000
_cell_length_b   17.35560000
_cell_length_c   17.07400000
_cell_angle_alpha   90.34320000
_cell_angle_beta   97.83240000
_cell_angle_gamma   79.02400000
_symmetry_Int_Tables_number   1
_chemical_formula_structural   AlH10C16NClO5
_chemical_formula_sum   'Al2 H20 C32 N2 Cl2 O10'
_cell_volume   1903.76013925
_cell_formula_units_Z   2
loop_
 _symmetry_equiv_pos_site_id
 _symmetry_equiv_pos_as_xyz
  1  'x, y, z'
loop_
 _atom_site_type_symbol
 _atom_site_label
 _atom_site_symmetry_multiplicity
 _atom_site_fract_x
 _atom_site_fract_y
 _atom_site_fract_z
 _atom_site_occupancy
  Al  Al1  1  0.00000000  0.50000000  0.50000000  1
  Al  Al2  1  0.50000000  0.50000000  0.50000000  1
  H  H1  1  0.80550000  0.43507000  0.56540000  1
  H  H2  1  0.19450000  0.56493000  0.43460000  1
  H  H3  1  0.33916000  0.50102000  0.26189000  1
  H  H4  1  0.28960000  0.50045000  0.11618000  1
  H  H5  1  0.93999000  0.50045000  0.11619000  1
  H  H6  1  0.06001000  0.49955000  0.88381000  1
  H  H7  1  0.71040000  0.49954000  0.88382000  1
  H  H8  1  0.66084000  0.49898000  0.73811000  1
  H  H9  1  0.04813000  0.26488000  0.50101000  1
  H  H10  1  0.11777000  0.12457000  0.50047000  1
  H  H11  1  0.68775000  0.26485000  0.50108000  1
  H  H12  1  0.31226000  0.73513000  0.49898000  1
  H  H13  1  0.95184000  0.73513000  0.49898000  1
  H  H14  1  0.88217000  0.87544000  0.49953000  1
  H  H15  1  0.88682000  0.12485000  0.45415000  1
  H  H16  1  0.83954000  0.05402000  0.50040000  1
  H  H17  1  0.92067000  0.12279000  0.54685000  1
  H  H18  1  0.07939000  0.87738000  0.45314000  1
  H  H19  1  0.16051000  0.94596000  0.49994000  1
  H  H20  1  0.11301000  0.87495000  0.54584000  1
  C  C1  1  0.31923000  0.36257000  0.50142000  1
  C  C2  1  0.29946000  0.49859000  0.63843000  1
  C  C3  1  0.68077000  0.63743000  0.49858000  1
  C  C4  1  0.70055000  0.50141000  0.36157000  1
  C  C5  1  0.66966000  0.50107000  0.27334000  1
  C  C6  1  0.47137000  0.50090000  0.23070000  1
  C  C7  1  0.44284000  0.50058000  0.14784000  1
  C  C8  1  0.61174000  0.50041000  0.10593000  1
  C  C9  1  0.80897000  0.50058000  0.14795000  1
  C  C10  1  0.83819000  0.50090000  0.23078000  1
  C  C11  1  0.19103000  0.49942000  0.85205000  1
  C  C12  1  0.38827000  0.49959000  0.89408000  1
  C  C13  1  0.55716000  0.49942000  0.85216000  1
  C  C14  1  0.52863000  0.49910000  0.76930000  1
  C  C15  1  0.33035000  0.49893000  0.72666000  1
  C  C16  1  0.16181000  0.49910000  0.76922000  1
  C  C17  1  0.36069000  0.27941000  0.50110000  1
  C  C18  1  0.19858000  0.23620000  0.50091000  1
  C  C19  1  0.23923000  0.15356000  0.50059000  1
  C  C20  1  0.44430000  0.11167000  0.50046000  1
  C  C21  1  0.60763000  0.15354000  0.50064000  1
  C  C22  1  0.56589000  0.23618000  0.50096000  1
  C  C23  1  0.48248000  0.03509000  0.50016000  1
  C  C24  1  0.51745000  0.96491000  0.49988000  1
  C  C25  1  0.55565000  0.88833000  0.49958000  1
  C  C26  1  0.39234000  0.84645000  0.49942000  1
  C  C27  1  0.43410000  0.76381000  0.49909000  1
  C  C28  1  0.63930000  0.72059000  0.49892000  1
  C  C29  1  0.80139000  0.76381000  0.49909000  1
  C  C30  1  0.76073000  0.84645000  0.49942000  1
  C  C31  1  0.83540000  0.10961000  0.50050000  1
  C  C32  1  0.16459000  0.89037000  0.49960000  1
  N  N1  1  0.58742000  0.50008000  0.02104000  1
  N  N2  1  0.41258000  0.49992000  0.97896000  1
  Cl  Cl1  1  0.08849000  0.50110000  0.28153000  1
  Cl  Cl2  1  0.91151000  0.49890000  0.71847000  1
  O  O1  1  0.12767000  0.39838000  0.50156000  1
  O  O2  1  0.46054000  0.49844000  0.60237000  1
  O  O3  1  0.52491000  0.60162000  0.49844000  1
  O  O4  1  0.88688000  0.50156000  0.39764000  1
  O  O5  1  0.87234000  0.60162000  0.49844000  1
  O  O6  1  0.53946000  0.50156000  0.39764000  1
  O  O7  1  0.47509000  0.39838000  0.50156000  1
  O  O8  1  0.11312000  0.49844000  0.60237000  1
  O  O9  1  0.77090000  0.47555000  0.52462000  1
  O  O10  1  0.22910000  0.52445000  0.47538000  1
