# Generated by REPEAT Assigner based on pymatgen
data_DB1-ZIFZn-imd_No19
_audit_creation_date              2022-05-24
_audit_creation_method            REPEAT_Assigner
_cell_length_a                    16.794600
_cell_length_b                    14.697400
_cell_length_c                    14.686600
_cell_angle_alpha                 109.096000
_cell_angle_beta                  55.126600
_cell_angle_gamma                 125.071000
_cell_volume                      2434.179432
_symmetry_space_group_name_H-M    P1
_symmetry_Int_Tables_number       1
loop_
    _symmetry_equiv_pos_site_id
    _symmetry_equiv_pos_as_xyz
    1  x,y,z
loop_
    _atom_site_type_symbol
    _atom_site_label
    _atom_site_fract_x
    _atom_site_fract_y
    _atom_site_fract_z
    _atom_type_partial_charge
    Zn  Zn1  0.500000  0.500000  0.500000  0.835625
    Zn  Zn2  0.751090  0.751280  0.751730  0.908792
    Zn  Zn3  0.497530  0.748800  0.249310  0.905271
    Zn  Zn4  0.750100  0.248720  0.248270  0.880525
    Zn  Zn5  0.996620  0.251200  0.750690  0.992302
    Zn  Zn6  0.006530  0.505290  0.508470  0.960387
    C   C1   0.621640  0.615380  0.629820  0.291661
    C   C2   0.717990  0.789120  0.589210  -0.056728
    H   H1   0.765580  0.865560  0.586740  0.156998
    C   C3   0.661730  0.732820  0.532810  0.106304
    H   H2   0.664040  0.763940  0.484940  0.091743
    N   N1   0.693400  0.715000  0.650880  -0.367633
    N   N2   0.600490  0.622010  0.557730  -0.339491
    C   C4   0.494700  0.630280  0.384550  0.414477
    C   C5   0.567100  0.585500  0.211990  0.118142
    H   H3   0.593440  0.580890  0.136090  0.078469
    C   C6   0.567660  0.529760  0.268150  -0.042779
    H   H4   0.594440  0.480280  0.237470  0.147596
    N   N3   0.521250  0.650150  0.285310  -0.542652
    N   N4   0.522160  0.558080  0.378070  -0.409994
    C   C7   0.635430  0.384620  0.370180  0.284653
    C   C8   0.516440  0.210880  0.410790  0.188631
    H   H5   0.484680  0.134440  0.413260  0.077098
    C   C9   0.460400  0.267180  0.467180  0.042837
    H   H6   0.383540  0.236060  0.515060  0.081422
    N   N5   0.628070  0.285000  0.349120  -0.387048
    N   N6   0.535520  0.377990  0.442270  -0.337562
    C   C10  0.248230  0.369720  0.615450  0.422993
    C   C11  0.193100  0.414500  0.788010  0.062945
    H   H7   0.148170  0.419110  0.863910  0.103912
    C   C12  0.305880  0.470240  0.731850  -0.001339
    H   H8   0.351740  0.519720  0.762530  0.133356
    N   N7   0.155550  0.349850  0.714690  -0.541732
    N   N8   0.341820  0.441920  0.621930  -0.397492
    C   C13  0.865000  0.000870  0.755790  0.469704
    C   C14  0.040380  0.058270  0.680330  0.047885
    H   H9   0.117300  0.103850  0.652000  0.104725
    C   C15  0.984680  0.946400  0.681290  0.179303
    H   H10  0.016760  0.901910  0.653730  0.048119
    N   N9   0.964830  0.093800  0.728050  -0.513372
    N   N10  0.872830  0.909020  0.729630  -0.450777
    C   C16  0.884750  0.634130  0.620130  0.506611
    C   C17  0.839830  0.534470  0.738600  0.144432
    H   H11  0.835500  0.485440  0.770400  0.065079
    C   C18  0.782600  0.589580  0.793100  -0.095276
    H   H12  0.732200  0.584920  0.868780  0.154169
    N   N11  0.905520  0.562660  0.628440  -0.643246
    N   N12  0.811000  0.653680  0.718450  -0.454708
    C   C19  0.632960  0.754750  0.001170  0.372816
    C   C20  0.457950  0.675050  0.054290  -0.035189
    H   H13  0.380770  0.645070  0.098250  0.160443
    C   C21  0.515490  0.676400  0.942610  0.014636
    H   H14  0.484640  0.647500  0.896650  0.133396
    N   N13  0.532070  0.725220  0.092410  -0.396607
    N   N14  0.627110  0.727430  0.907950  -0.475610
    C   C22  0.245790  0.614440  0.368880  0.366628
    C   C23  0.189940  0.732750  0.463660  0.091651
    H   H15  0.144740  0.764350  0.510470  0.095455
    C   C24  0.302720  0.788340  0.408370  0.052899
    H   H16  0.348310  0.864690  0.410670  0.097300
    N   N15  0.152850  0.621850  0.439450  -0.368583
    N   N16  0.339120  0.713660  0.348130  -0.428738
    C   C25  0.617830  0.998490  0.243820  0.335602
    C   C26  0.719850  0.054690  0.316380  0.203112
    H   H17  0.770060  0.099820  0.342760  0.018079
    C   C27  0.663270  0.942810  0.317010  0.054825
    H   H18  0.667940  0.897870  0.343900  0.080387
    N   N17  0.691110  0.090980  0.270370  -0.415455
    N   N18  0.597670  0.906190  0.271410  -0.428600
    C   C28  0.877920  0.245250  0.998830  0.363614
    C   C29  0.836190  0.324950  0.945710  -0.136607
    H   H19  0.833110  0.354930  0.901750  0.177071
    C   C30  0.780700  0.323610  0.057390  0.080610
    H   H20  0.732960  0.352510  0.103350  0.107605
    N   N19  0.897980  0.274790  0.907590  -0.431413
    N   N20  0.806330  0.272570  0.092050  -0.467483
    C   C31  0.869980  0.365870  0.379870  0.462987
    C   C32  0.043770  0.465530  0.261400  0.133474
    H   H21  0.120550  0.514560  0.229600  0.083847
    C   C33  0.985610  0.410420  0.206900  -0.123396
    H   H22  0.015580  0.415080  0.131220  0.161672
    N   N21  0.970950  0.437350  0.371560  -0.612128
    N   N22  0.874890  0.346320  0.281550  -0.414120
    C   C34  0.999580  0.385560  0.631120  0.332430
    C   C35  0.919520  0.267250  0.536340  0.039001
    H   H23  0.889350  0.235650  0.489530  0.132299
    C   C36  0.921100  0.211660  0.591630  0.098135
    H   H24  0.892210  0.135320  0.589330  0.087218
    N   N23  0.969760  0.378150  0.560550  -0.362284
    N   N24  0.972370  0.286340  0.651870  -0.545096
    S   S1   0.566970  0.493570  0.689900  0.795935
    O   O1   0.464650  0.480940  0.823250  -0.503577
    O   O2   0.515280  0.384240  0.626950  -0.488920
    H   H25  0.480880  0.452610  0.858930  0.380957
    O   O3   0.658860  0.492440  0.694320  -0.489138
    S   S2   0.433950  0.695630  0.505060  0.625435
    O   O4   0.296470  0.638510  0.551640  -0.268633
    O   O5   0.443950  0.689500  0.604060  -0.459955
    H   H26  0.287790  0.704160  0.574470  0.359021
    O   O6   0.487830  0.823020  0.484080  -0.488102
    S   S3   0.763340  0.506440  0.310100  0.722643
    O   O7   0.807070  0.519060  0.176750  -0.488940
    O   O8   0.758650  0.615760  0.373050  -0.454678
    H   H27  0.887460  0.547390  0.141070  0.383181
    O   O9   0.860790  0.507560  0.305680  -0.471696
    S   S4   0.242260  0.304370  0.494940  0.578194
    O   O10  0.208820  0.361500  0.448350  -0.237317
    O   O11  0.357430  0.310510  0.395940  -0.419328
    H   H28  0.156940  0.295840  0.425530  0.346967
    O   O12  0.147060  0.176980  0.515920  -0.472171
    S   S5   0.741490  0.004470  0.820860  0.611356
    O   O13  0.728970  0.035130  0.730110  -0.469822
    O   O14  0.631900  0.889830  0.878670  -0.402180
    H   H29  0.699550  0.085880  0.773410  0.395450
    O   O15  0.738800  0.099280  0.912500  -0.445234
    S   S6   0.950910  0.694230  0.493780  0.577987
    O   O16  0.894640  0.603990  0.413690  -0.265979
    O   O17  0.943490  0.801660  0.507990  -0.416732
    H   H30  0.961260  0.618970  0.340060  0.347024
    O   O18  0.079690  0.728510  0.421780  -0.448144
    S   S7   0.755260  0.823240  0.008330  0.785577
    O   O19  0.768750  0.734910  0.041290  -0.514303
    O   O20  0.865780  0.882390  0.894920  -0.458496
    H   H31  0.796580  0.779280  0.093270  0.374137
    O   O21  0.754850  0.914820  0.103390  -0.429548
    S   S8   0.240450  0.487330  0.315080  0.737803
    O   O22  0.207880  0.442590  0.213280  -0.496316
    O   O23  0.355670  0.492270  0.264600  -0.449816
    H   H32  0.156160  0.362930  0.229380  0.403563
    O   O24  0.145020  0.391420  0.406150  -0.527170
    S   S9   0.556430  0.003110  0.182870  0.634324
    O   O25  0.646170  0.035180  0.046730  -0.285894
    O   O26  0.447100  0.888550  0.192480  -0.419490
    H   H33  0.631350  0.086210  0.037740  0.363391
    O   O27  0.523230  0.097580  0.235730  -0.529009
    S   S10  0.938500  0.176760  0.991670  0.782291
    O   O28  0.073790  0.265090  0.958710  -0.504810
    O   O29  0.876130  0.117610  0.105080  -0.457669
    H   H34  0.108990  0.220730  0.906730  0.372183
    O   O30  0.941060  0.085190  0.896610  -0.400343
    S   S11  0.749360  0.305770  0.506220  0.622932
    O   O31  0.703740  0.396010  0.586310  -0.288971
    O   O32  0.648110  0.198340  0.492010  -0.454989
    H   H35  0.681670  0.381030  0.659930  0.351160
    O   O33  0.771660  0.271500  0.578220  -0.469746
    S   S12  0.068270  0.512670  0.684920  0.824629
    O   O34  0.978890  0.557410  0.786720  -0.492308
    O   O35  0.128050  0.507730  0.735400  -0.436457
    H   H36  0.023400  0.637070  0.770620  0.392750
    O   O36  0.160370  0.608590  0.593850  -0.583228
