# Generated by REPEAT Assigner based on pymatgen
data_DB1-Zn2O8N2-irmof20_A-irmof8_A_No39
_audit_creation_date              2022-05-24
_audit_creation_method            REPEAT_Assigner
_cell_length_a                    25.892400
_cell_length_b                    12.701400
_cell_length_c                    11.716400
_cell_angle_alpha                 90.038300
_cell_angle_beta                  89.875700
_cell_angle_gamma                 89.828100
_cell_volume                      3853.142010
_symmetry_space_group_name_H-M    P1
_symmetry_Int_Tables_number       1
loop_
    _symmetry_equiv_pos_site_id
    _symmetry_equiv_pos_as_xyz
    1  x,y,z
loop_
    _atom_site_type_symbol
    _atom_site_label
    _atom_site_fract_x
    _atom_site_fract_y
    _atom_site_fract_z
    _atom_type_partial_charge
    O   O1   0.500350  0.348160  0.615900  -0.509068
    O   O2   0.500090  0.348180  0.383910  -0.638303
    C   C1   0.500150  0.294670  0.499920  0.488710
    Zn  Zn1  0.500000  0.500020  0.641480  0.954494
    O   O3   0.574470  0.499900  0.383780  -0.541430
    O   O4   0.574500  0.500050  0.615780  -0.531803
    C   C2   0.600740  0.499880  0.499810  0.471473
    O   O5   0.499750  0.651870  0.384100  -0.535695
    O   O6   0.499810  0.651850  0.616090  -0.449359
    C   C3   0.499810  0.705360  0.500080  0.402889
    Zn  Zn2  0.500000  0.500010  0.358520  0.964581
    O   O7   0.425540  0.499910  0.616220  -0.529948
    O   O8   0.425500  0.500160  0.384230  -0.435135
    C   C4   0.399270  0.499790  0.500190  0.418834
    O   O9   0.009270  0.346080  0.384130  -0.511261
    O   O10  0.009530  0.346390  0.616120  -0.632507
    C   C5   0.009540  0.292740  0.500110  0.505347
    Zn  Zn3  0.009450  0.497910  0.358540  0.947924
    O   O11  0.934990  0.498680  0.616240  -0.589677
    O   O12  0.934950  0.498540  0.384250  -0.534507
    C   C6   0.908710  0.498710  0.500210  0.460152
    O   O13  0.009530  0.650080  0.615920  -0.486187
    O   O14  0.009470  0.649770  0.383930  -0.438463
    C   C7   0.009410  0.703430  0.499940  0.370847
    Zn  Zn4  0.009450  0.498260  0.641510  1.031639
    O   O15  0.083920  0.497270  0.383800  -0.527302
    O   O16  0.083950  0.497810  0.615800  -0.567162
    C   C8   0.110190  0.497090  0.499830  0.448836
    C   C9   0.470930  0.559020  0.882120  0.126310
    S   S1   0.541960  0.414850  0.876380  0.272195
    C   C10  0.529080  0.441000  0.117880  -0.091295
    H   H1   0.553410  0.391630  0.141640  0.224608
    S   S2   0.458050  0.585170  0.123620  0.208706
    N   N1   0.500000  0.500020  0.807930  -0.177652
    N   N2   0.500010  0.500010  0.192070  -0.051429
    C   C11  0.518740  0.461990  0.999880  -0.057961
    C   C12  0.481270  0.538040  0.000120  -0.014298
    C   C13  0.499940  0.891180  0.590560  0.066416
    S   S3   0.499880  0.886120  0.369380  0.050733
    C   C14  0.500020  0.108850  0.409440  -0.203543
    H   H2   0.500010  0.130840  0.333700  0.188168
    S   S4   0.500080  0.113910  0.630630  -0.009845
    C   C15  0.499880  0.822840  0.500050  -0.081572
    C   C16  0.500080  0.177190  0.499960  -0.012685
    C   C17  0.499960  0.999970  0.441670  0.077095
    C   C18  0.500000  0.000070  0.558340  0.015198
    C   C19  0.816770  0.499000  0.416550  0.201634
    C   C20  0.835820  0.499060  0.616350  -0.284761
    C   C21  0.783360  0.499280  0.647150  0.131185
    C   C22  0.746520  0.499360  0.557750  -0.119572
    C   C23  0.692680  0.499580  0.583470  0.233133
    C   C24  0.673640  0.499530  0.383680  -0.258634
    C   C25  0.726090  0.499310  0.352870  0.124824
    C   C26  0.762930  0.499230  0.442270  -0.110785
    C   C27  0.851540  0.498930  0.500140  -0.017852
    C   C28  0.657920  0.499660  0.499890  -0.062363
    H   H3   0.864980  0.498980  0.682230  0.160623
    H   H4   0.644470  0.499600  0.317800  0.136788
    C   C29  0.308260  0.499040  0.409550  0.032638
    S   S5   0.310380  0.498820  0.630740  0.049301
    C   C30  0.201190  0.497850  0.590480  -0.237657
    H   H5   0.190280  0.497660  0.666200  0.176857
    S   S6   0.199070  0.498060  0.369290  -0.000112
    C   C31  0.341640  0.499250  0.500120  -0.078693
    C   C32  0.167820  0.497630  0.499910  0.020066
    C   C33  0.254650  0.498380  0.558350  0.099248
    C   C34  0.254800  0.498510  0.441680  0.040722
    C   C35  0.038460  0.556390  0.117900  0.120103
    S   S7   0.967580  0.412760  0.123640  0.265863
    C   C36  0.980440  0.438510  0.882140  -0.093942
    H   H6   0.956170  0.389300  0.858390  0.221589
    S   S8   0.051310  0.582130  0.876410  0.163071
    N   N3   0.009450  0.497700  0.192090  -0.164129
    N   N4   0.009440  0.497200  0.807950  -0.048661
    C   C37  0.990760  0.459570  0.000140  -0.026982
    C   C38  0.028140  0.535330  0.999900  -0.047863
    C   C39  0.009070  0.889130  0.409450  0.052977
    S   S9   0.009140  0.884360  0.630630  0.055394
    C   C40  0.008760  0.107040  0.590560  -0.196001
    H   H7   0.008740  0.129130  0.666300  0.180833
    S   S10  0.008690  0.111810  0.369380  -0.015461
    C   C41  0.009210  0.820910  0.499960  -0.077938
    C   C42  0.008620  0.175260  0.500050  -0.022774
    C   C43  0.008930  0.998110  0.558340  0.076854
    C   C44  0.008900  0.998060  0.441670  0.021612
    Br  Br1  0.416630  0.669220  0.829090  0.071319
    Br  Br2  0.499960  0.842080  0.759640  -0.097527
    Br  Br3  0.332620  0.499450  0.240520  -0.120629
    Br  Br4  0.092630  0.666240  0.170930  0.077138
    Br  Br5  0.009110  0.839820  0.240380  -0.080605
    C   C45  0.743890  0.499160  0.226260  -0.073595
    H   H8   0.730900  0.560980  0.188820  0.012928
    H   H9   0.780940  0.498860  0.222940  0.077679
    H   H10  0.730840  0.437550  0.188730  0.003680
    C   C46  0.834100  0.498830  0.289620  -0.410359
    H   H11  0.820980  0.560650  0.252410  0.120676
    H   H12  0.871140  0.498510  0.285630  0.102004
    H   H13  0.820910  0.437220  0.252350  0.130391
    C   C47  0.765560  0.499410  0.773770  -0.103773
    H   H14  0.778480  0.561180  0.811210  0.017810
    H   H15  0.728520  0.499390  0.777090  0.092171
    H   H16  0.778690  0.437750  0.811290  0.010650
    C   C48  0.675350  0.499760  0.710400  -0.422217
    H   H17  0.688410  0.561530  0.747590  0.122963
    H   H18  0.638310  0.499760  0.714390  0.100983
    H   H19  0.688600  0.438100  0.747710  0.130105
