# generated using pymatgen
data_CuH8C18(BrO2)2
_symmetry_space_group_name_H-M   'P 1'
_cell_length_a   34.27590000
_cell_length_b   34.27620000
_cell_length_c   34.27590000
_cell_angle_alpha   60.09770000
_cell_angle_beta   120.00000000
_cell_angle_gamma   120.11000000
_symmetry_Int_Tables_number   1
_chemical_formula_structural   CuH8C18(BrO2)2
_chemical_formula_sum   'Cu12 H96 C216 Br24 O48'
_cell_volume   28471.61969574
_cell_formula_units_Z   12
loop_
 _symmetry_equiv_pos_site_id
 _symmetry_equiv_pos_as_xyz
  1  'x, y, z'
loop_
 _atom_site_type_symbol
 _atom_site_label
 _atom_site_symmetry_multiplicity
 _atom_site_fract_x
 _atom_site_fract_y
 _atom_site_fract_z
 _atom_site_occupancy
  Cu  Cu1  1  0.50002000  0.50007000  0.53710000  1
  Cu  Cu2  1  0.49999000  0.49994000  0.46290000  1
  Cu  Cu3  1  0.03717000  0.50012000  0.99998000  1
  Cu  Cu4  1  0.96287000  0.50001000  0.99999000  1
  Cu  Cu5  1  0.96289000  0.50002000  0.46287000  1
  Cu  Cu6  1  0.03710000  0.49992000  0.53717000  1
  Cu  Cu7  1  0.50110000  0.03648000  0.00081000  1
  Cu  Cu8  1  0.50097000  0.96216000  0.00080000  1
  Cu  Cu9  1  0.50006000  0.96301000  0.53705000  1
  Cu  Cu10  1  0.50010000  0.03711000  0.46286000  1
  Cu  Cu11  1  0.03806000  0.03663000  0.00213000  1
  Cu  Cu12  1  0.96361000  0.96232000  0.00180000  1
  H  H1  1  0.79416000  0.51524000  0.70594000  1
  H  H2  1  0.92706000  0.51523000  0.70594000  1
  H  H3  1  0.79416000  0.51521000  0.57304000  1
  H  H4  1  0.64751000  0.51524000  0.62805000  1
  H  H5  1  0.72870000  0.51524000  0.66776000  1
  H  H6  1  0.72869000  0.51521000  0.54576000  1
  H  H7  1  0.83208000  0.51525000  0.77263000  1
  H  H8  1  0.99557000  0.51525000  0.85382000  1
  H  H9  1  0.95585000  0.51524000  0.77263000  1
  H  H10  1  0.95585000  0.51522000  0.66803000  1
  H  H11  1  0.87354000  0.51520000  0.50455000  1
  H  H12  1  0.83207000  0.51521000  0.54426000  1
  H  H13  1  0.20585000  0.48478000  0.42697000  1
  H  H14  1  0.07295000  0.48480000  0.29406000  1
  H  H15  1  0.20586000  0.48482000  0.29405000  1
  H  H16  1  0.35250000  0.48477000  0.49573000  1
  H  H17  1  0.27131000  0.48477000  0.45426000  1
  H  H18  1  0.27132000  0.48481000  0.33223000  1
  H  H19  1  0.16794000  0.48476000  0.45576000  1
  H  H20  1  0.00445000  0.48477000  0.37346000  1
  H  H21  1  0.04416000  0.48479000  0.33198000  1
  H  H22  1  0.04417000  0.48482000  0.22736000  1
  H  H23  1  0.12648000  0.48485000  0.14616000  1
  H  H24  1  0.16795000  0.48483000  0.22735000  1
  H  H25  1  0.51568000  0.79386000  0.29446000  1
  H  H26  1  0.51570000  0.92678000  0.29445000  1
  H  H27  1  0.51543000  0.79405000  0.42714000  1
  H  H28  1  0.51552000  0.64731000  0.37223000  1
  H  H29  1  0.51560000  0.72844000  0.33258000  1
  H  H30  1  0.51537000  0.72862000  0.45439000  1
  H  H31  1  0.51582000  0.83168000  0.22787000  1
  H  H32  1  0.51600000  0.99506000  0.14681000  1
  H  H33  1  0.51583000  0.95547000  0.22786000  1
  H  H34  1  0.51563000  0.95562000  0.33229000  1
  H  H35  1  0.51531000  0.87355000  0.49551000  1
  H  H36  1  0.51538000  0.83201000  0.45587000  1
  H  H37  1  0.48470000  0.20602000  0.57283000  1
  H  H38  1  0.48464000  0.07334000  0.70557000  1
  H  H39  1  0.48460000  0.20622000  0.70559000  1
  H  H40  1  0.48471000  0.35254000  0.50417000  1
  H  H41  1  0.48470000  0.27143000  0.54558000  1
  H  H42  1  0.48462000  0.27161000  0.66746000  1
  H  H43  1  0.48473000  0.16807000  0.54407000  1
  H  H44  1  0.48471000  0.00474000  0.62626000  1
  H  H45  1  0.48467000  0.04451000  0.66770000  1
  H  H46  1  0.48460000  0.04466000  0.77219000  1
  H  H47  1  0.48451000  0.12707000  0.85329000  1
  H  H48  1  0.48456000  0.16841000  0.77220000  1
  H  H49  1  0.07367000  0.79395000  0.98609000  1
  H  H50  1  0.20700000  0.92686000  0.98689000  1
  H  H51  1  0.20679000  0.79411000  0.98636000  1
  H  H52  1  0.00455000  0.64739000  0.98536000  1
  H  H53  1  0.04623000  0.72853000  0.98577000  1
  H  H54  1  0.16844000  0.72868000  0.98602000  1
  H  H55  1  0.04489000  0.83178000  0.98618000  1
  H  H56  1  0.12760000  0.99518000  0.98700000  1
  H  H57  1  0.16908000  0.95556000  0.98692000  1
  H  H58  1  0.27385000  0.95569000  0.98714000  1
  H  H59  1  0.35504000  0.87359000  0.98698000  1
  H  H60  1  0.27365000  0.83206000  0.98665000  1
  H  H61  1  0.79317000  0.20608000  0.01349000  1
  H  H62  1  0.79284000  0.07338000  0.01275000  1
  H  H63  1  0.92621000  0.20624000  0.01360000  1
  H  H64  1  0.87151000  0.35260000  0.01437000  1
  H  H65  1  0.83155000  0.27149000  0.01388000  1
  H  H66  1  0.95369000  0.27165000  0.01399000  1
  H  H67  1  0.72631000  0.16814000  0.01322000  1
  H  H68  1  0.64462000  0.00480000  0.01224000  1
  H  H69  1  0.72600000  0.04455000  0.01253000  1
  H  H70  1  0.83071000  0.04468000  0.01262000  1
  H  H71  1  0.99458000  0.12706000  0.01322000  1
  H  H72  1  0.95493000  0.16843000  0.01342000  1
  H  H73  1  0.20733000  0.79384000  0.42817000  1
  H  H74  1  0.20815000  0.92673000  0.29566000  1
  H  H75  1  0.07465000  0.79399000  0.29506000  1
  H  H76  1  0.12867000  0.64729000  0.49639000  1
  H  H77  1  0.16881000  0.72842000  0.45521000  1
  H  H78  1  0.04700000  0.72857000  0.33301000  1
  H  H79  1  0.27416000  0.83167000  0.45718000  1
  H  H80  1  0.35622000  0.99505000  0.37548000  1
  H  H81  1  0.27492000  0.95544000  0.33376000  1
  H  H82  1  0.17048000  0.95556000  0.22898000  1
  H  H83  1  0.00675000  0.87346000  0.14730000  1
  H  H84  1  0.04614000  0.83194000  0.22843000  1
  H  H85  1  0.92537000  0.20601000  0.70506000  1
  H  H86  1  0.79182000  0.07332000  0.70458000  1
  H  H87  1  0.79261000  0.20617000  0.57203000  1
  H  H88  1  0.99494000  0.35253000  0.62762000  1
  H  H89  1  0.95302000  0.27142000  0.66708000  1
  H  H90  1  0.83114000  0.27157000  0.54495000  1
  H  H91  1  0.95391000  0.16808000  0.77169000  1
  H  H92  1  0.87072000  0.00476000  0.85237000  1
  H  H93  1  0.82952000  0.04450000  0.77125000  1
  H  H94  1  0.72503000  0.04463000  0.66653000  1
  H  H95  1  0.64441000  0.12699000  0.50317000  1
  H  H96  1  0.72576000  0.16836000  0.54307000  1
  C  C1  1  0.51533000  0.58832000  0.46353000  1
  C  C2  1  0.48468000  0.41169000  0.53647000  1
  C  C3  1  0.41162000  0.48478000  0.46339000  1
  C  C4  1  0.58839000  0.51522000  0.53661000  1
  C  C5  1  0.03684000  0.58838000  0.98520000  1
  C  C6  1  0.96320000  0.41175000  0.01477000  1
  C  C7  1  0.03653000  0.48486000  0.08827000  1
  C  C8  1  0.96351000  0.51527000  0.91170000  1
  C  C9  1  0.03700000  0.58828000  0.46374000  1
  C  C10  1  0.96299000  0.41166000  0.53630000  1
  C  C11  1  0.03651000  0.48475000  0.46342000  1
  C  C12  1  0.96349000  0.51520000  0.53662000  1
  C  C13  1  0.58947000  0.03601000  0.01599000  1
  C  C14  1  0.41260000  0.96264000  0.98562000  1
  C  C15  1  0.48597000  0.03573000  0.91259000  1
  C  C16  1  0.51610000  0.96291000  0.08902000  1
  C  C17  1  0.58847000  0.03697000  0.53660000  1
  C  C18  1  0.41169000  0.96315000  0.46331000  1
  C  C19  1  0.48477000  0.03666000  0.53642000  1
  C  C20  1  0.51538000  0.96346000  0.46349000  1
  C  C21  1  0.96440000  0.03615000  0.91376000  1
  C  C22  1  0.03727000  0.96280000  0.09017000  1
  C  C23  1  0.96422000  0.03590000  0.01724000  1
  C  C24  1  0.03745000  0.96304000  0.98668000  1
  C  C25  1  0.86440000  0.51524000  0.71352000  1
  C  C26  1  0.81252000  0.51524000  0.68758000  1
  C  C27  1  0.78658000  0.51523000  0.63570000  1
  C  C28  1  0.81252000  0.51522000  0.60976000  1
  C  C29  1  0.86440000  0.51522000  0.63570000  1
  C  C30  1  0.89034000  0.51523000  0.68758000  1
  C  C31  1  0.66369000  0.51523000  0.60969000  1
  C  C32  1  0.71134000  0.51523000  0.63334000  1
  C  C33  1  0.73565000  0.51523000  0.61023000  1
  C  C34  1  0.71133000  0.51522000  0.56281000  1
  C  C35  1  0.66369000  0.51522000  0.53882000  1
  C  C36  1  0.63901000  0.51522000  0.56192000  1
  C  C37  1  0.86662000  0.51525000  0.78881000  1
  C  C38  1  0.89061000  0.51526000  0.83645000  1
  C  C39  1  0.93804000  0.51526000  0.86077000  1
  C  C40  1  0.96115000  0.51525000  0.83646000  1
  C  C41  1  0.93750000  0.51525000  0.78881000  1
  C  C42  1  0.88972000  0.51524000  0.76414000  1
  C  C43  1  0.93749000  0.51522000  0.63350000  1
  C  C44  1  0.96114000  0.51521000  0.60950000  1
  C  C45  1  0.93802000  0.51521000  0.56208000  1
  C  C46  1  0.89060000  0.51520000  0.53897000  1
  C  C47  1  0.86661000  0.51521000  0.56262000  1
  C  C48  1  0.88971000  0.51522000  0.61039000  1
  C  C49  1  0.13561000  0.48479000  0.36431000  1
  C  C50  1  0.18749000  0.48478000  0.39025000  1
  C  C51  1  0.21343000  0.48479000  0.36430000  1
  C  C52  1  0.18750000  0.48481000  0.31242000  1
  C  C53  1  0.13562000  0.48481000  0.28648000  1
  C  C54  1  0.10967000  0.48480000  0.31242000  1
  C  C55  1  0.33632000  0.48478000  0.46119000  1
  C  C56  1  0.28867000  0.48478000  0.43720000  1
  C  C57  1  0.26436000  0.48479000  0.38977000  1
  C  C58  1  0.28868000  0.48480000  0.36665000  1
  C  C59  1  0.33633000  0.48480000  0.39030000  1
  C  C60  1  0.36100000  0.48479000  0.43808000  1
  C  C61  1  0.13340000  0.48476000  0.43740000  1
  C  C62  1  0.10940000  0.48476000  0.46106000  1
  C  C63  1  0.06198000  0.48476000  0.43795000  1
  C  C64  1  0.03887000  0.48477000  0.39052000  1
  C  C65  1  0.06252000  0.48478000  0.36652000  1
  C  C66  1  0.11030000  0.48478000  0.38962000  1
  C  C67  1  0.06253000  0.48483000  0.21118000  1
  C  C68  1  0.03888000  0.48484000  0.16353000  1
  C  C69  1  0.06199000  0.48485000  0.13921000  1
  C  C70  1  0.10942000  0.48484000  0.16352000  1
  C  C71  1  0.13341000  0.48483000  0.21117000  1
  C  C72  1  0.11031000  0.48482000  0.23585000  1
  C  C73  1  0.51571000  0.86410000  0.28689000  1
  C  C74  1  0.51565000  0.81225000  0.31279000  1
  C  C75  1  0.51555000  0.78638000  0.36458000  1
  C  C76  1  0.51550000  0.81236000  0.39048000  1
  C  C77  1  0.51556000  0.86421000  0.36458000  1
  C  C78  1  0.51566000  0.89008000  0.31278000  1
  C  C79  1  0.51548000  0.66351000  0.39056000  1
  C  C80  1  0.51553000  0.71113000  0.36694000  1
  C  C81  1  0.51549000  0.73548000  0.39001000  1
  C  C82  1  0.51540000  0.71124000  0.43736000  1
  C  C83  1  0.51534000  0.66362000  0.46132000  1
  C  C84  1  0.51539000  0.63891000  0.43826000  1
  C  C85  1  0.51585000  0.86620000  0.21172000  1
  C  C86  1  0.51595000  0.89012000  0.16415000  1
  C  C87  1  0.51600000  0.93752000  0.13987000  1
  C  C88  1  0.51596000  0.96067000  0.16414000  1
  C  C89  1  0.51586000  0.93708000  0.21171000  1
  C  C90  1  0.51581000  0.88934000  0.23635000  1
  C  C91  1  0.51556000  0.93731000  0.36677000  1
  C  C92  1  0.51552000  0.96100000  0.39073000  1
  C  C93  1  0.51543000  0.93796000  0.43807000  1
  C  C94  1  0.51538000  0.89056000  0.46115000  1
  C  C95  1  0.51542000  0.86653000  0.43754000  1
  C  C96  1  0.51551000  0.88956000  0.38984000  1
  C  C97  1  0.48467000  0.13589000  0.63542000  1
  C  C98  1  0.48468000  0.18772000  0.60951000  1
  C  C99  1  0.48465000  0.21369000  0.63543000  1
  C  C100  1  0.48462000  0.18783000  0.68724000  1
  C  C101  1  0.48462000  0.13600000  0.71315000  1
  C  C102  1  0.48464000  0.11003000  0.68723000  1
  C  C103  1  0.48469000  0.33641000  0.53867000  1
  C  C104  1  0.48469000  0.28881000  0.56262000  1
  C  C105  1  0.48466000  0.26457000  0.60999000  1
  C  C106  1  0.48464000  0.28892000  0.63309000  1
  C  C107  1  0.48464000  0.33652000  0.60946000  1
  C  C108  1  0.48467000  0.36112000  0.56174000  1
  C  C109  1  0.48473000  0.13357000  0.56241000  1
  C  C110  1  0.48475000  0.10954000  0.53878000  1
  C  C111  1  0.48475000  0.06216000  0.56186000  1
  C  C112  1  0.48472000  0.03912000  0.60923000  1
  C  C113  1  0.48469000  0.06281000  0.63320000  1
  C  C114  1  0.48470000  0.11054000  0.61013000  1
  C  C115  1  0.48458000  0.06304000  0.78835000  1
  C  C116  1  0.48455000  0.03947000  0.83594000  1
  C  C117  1  0.48453000  0.06261000  0.86023000  1
  C  C118  1  0.48453000  0.10999000  0.83595000  1
  C  C119  1  0.48456000  0.13391000  0.78836000  1
  C  C120  1  0.48459000  0.11077000  0.76371000  1
  C  C121  1  0.13654000  0.86419000  0.98650000  1
  C  C122  1  0.11048000  0.81233000  0.98624000  1
  C  C123  1  0.13642000  0.78646000  0.98619000  1
  C  C124  1  0.18842000  0.81243000  0.98640000  1
  C  C125  1  0.21449000  0.86428000  0.98666000  1
  C  C126  1  0.18855000  0.89016000  0.98670000  1
  C  C127  1  0.03917000  0.66359000  0.98550000  1
  C  C128  1  0.06328000  0.71121000  0.98574000  1
  C  C129  1  0.11083000  0.73555000  0.98593000  1
  C  C130  1  0.13394000  0.71130000  0.98588000  1
  C  C131  1  0.11017000  0.66368000  0.98565000  1
  C  C132  1  0.06227000  0.63897000  0.98545000  1
  C  C133  1  0.06334000  0.86630000  0.98635000  1
  C  C134  1  0.03969000  0.89024000  0.98640000  1
  C  C135  1  0.06291000  0.93764000  0.98664000  1
  C  C136  1  0.11046000  0.96078000  0.98683000  1
  C  C137  1  0.13445000  0.93718000  0.98678000  1
  C  C138  1  0.11123000  0.88944000  0.98654000  1
  C  C139  1  0.29003000  0.93737000  0.98710000  1
  C  C140  1  0.33779000  0.96106000  0.98729000  1
  C  C141  1  0.36211000  0.93800000  0.98725000  1
  C  C142  1  0.33768000  0.89060000  0.98701000  1
  C  C143  1  0.28991000  0.86658000  0.98682000  1
  C  C144  1  0.26524000  0.88962000  0.98686000  1
  C  C145  1  0.78541000  0.13593000  0.01309000  1
  C  C146  1  0.81150000  0.18777000  0.01340000  1
  C  C147  1  0.86350000  0.21373000  0.01359000  1
  C  C148  1  0.88941000  0.18787000  0.01347000  1
  C  C149  1  0.86331000  0.13603000  0.01316000  1
  C  C150  1  0.81131000  0.11007000  0.01297000  1
  C  C151  1  0.88985000  0.33647000  0.01429000  1
  C  C152  1  0.86605000  0.28887000  0.01401000  1
  C  C153  1  0.88912000  0.26462000  0.01389000  1
  C  C154  1  0.93666000  0.28896000  0.01407000  1
  C  C155  1  0.96080000  0.33656000  0.01435000  1
  C  C156  1  0.93774000  0.36117000  0.01447000  1
  C  C157  1  0.71002000  0.13363000  0.01301000  1
  C  C158  1  0.66226000  0.10962000  0.01284000  1
  C  C159  1  0.63781000  0.06223000  0.01255000  1
  C  C160  1  0.66209000  0.03918000  0.01245000  1
  C  C161  1  0.70985000  0.06286000  0.01262000  1
  C  C162  1  0.73467000  0.11060000  0.01291000  1
  C  C163  1  0.86534000  0.06306000  0.01276000  1
  C  C164  1  0.88930000  0.03947000  0.01265000  1
  C  C165  1  0.93683000  0.06261000  0.01282000  1
  C  C166  1  0.96009000  0.10999000  0.01310000  1
  C  C167  1  0.93647000  0.13392000  0.01321000  1
  C  C168  1  0.88858000  0.11079000  0.01304000  1
  C  C169  1  0.21534000  0.86407000  0.36573000  1
  C  C170  1  0.18912000  0.81222000  0.39148000  1
  C  C171  1  0.13716000  0.78634000  0.36538000  1
  C  C172  1  0.11142000  0.81231000  0.31353000  1
  C  C173  1  0.13764000  0.86416000  0.28778000  1
  C  C174  1  0.18960000  0.89004000  0.31388000  1
  C  C175  1  0.11044000  0.66349000  0.46187000  1
  C  C176  1  0.13435000  0.71111000  0.43805000  1
  C  C177  1  0.11142000  0.73544000  0.39066000  1
  C  C178  1  0.06392000  0.71119000  0.36740000  1
  C  C179  1  0.03968000  0.66357000  0.39087000  1
  C  C180  1  0.06259000  0.63887000  0.43862000  1
  C  C181  1  0.29053000  0.86619000  0.43894000  1
  C  C182  1  0.33824000  0.89012000  0.46274000  1
  C  C183  1  0.36281000  0.93752000  0.43981000  1
  C  C184  1  0.33868000  0.96066000  0.39241000  1
  C  C185  1  0.29096000  0.93706000  0.36827000  1
  C  C186  1  0.26603000  0.88932000  0.39119000  1
  C  C187  1  0.13588000  0.93724000  0.21269000  1
  C  C188  1  0.11208000  0.96092000  0.16508000  1
  C  C189  1  0.06458000  0.93787000  0.14062000  1
  C  C190  1  0.04122000  0.89047000  0.16476000  1
  C  C191  1  0.06468000  0.86645000  0.21238000  1
  C  C192  1  0.11253000  0.88950000  0.23719000  1
  C  C193  1  0.86236000  0.13587000  0.71240000  1
  C  C194  1  0.88858000  0.18770000  0.68662000  1
  C  C195  1  0.86282000  0.21366000  0.63478000  1
  C  C196  1  0.81084000  0.18780000  0.60872000  1
  C  C197  1  0.78462000  0.13597000  0.63450000  1
  C  C198  1  0.81038000  0.11001000  0.68634000  1
  C  C199  1  0.96034000  0.33639000  0.60919000  1
  C  C200  1  0.93609000  0.28879000  0.63269000  1
  C  C201  1  0.88857000  0.26455000  0.60947000  1
  C  C202  1  0.86562000  0.28888000  0.56208000  1
  C  C203  1  0.88953000  0.33648000  0.53824000  1
  C  C204  1  0.93741000  0.36109000  0.56145000  1
  C  C205  1  0.93536000  0.13358000  0.78776000  1
  C  C206  1  0.95885000  0.10957000  0.83537000  1
  C  C207  1  0.93548000  0.06219000  0.85954000  1
  C  C208  1  0.88796000  0.03914000  0.83512000  1
  C  C209  1  0.86414000  0.06281000  0.78751000  1
  C  C210  1  0.88750000  0.11054000  0.76298000  1
  C  C211  1  0.70897000  0.06300000  0.63202000  1
  C  C212  1  0.66123000  0.03941000  0.60792000  1
  C  C213  1  0.63708000  0.06255000  0.56053000  1
  C  C214  1  0.66165000  0.10992000  0.53756000  1
  C  C215  1  0.70939000  0.13385000  0.56133000  1
  C  C216  1  0.73390000  0.11073000  0.60907000  1
  Br  Br1  1  0.63092000  0.51521000  0.46889000  1
  Br  Br2  1  0.85594000  0.51527000  0.87175000  1
  Br  Br3  1  0.03111000  0.51521000  0.64418000  1
  Br  Br4  1  0.36909000  0.48482000  0.35312000  1
  Br  Br5  1  0.14408000  0.48474000  0.53104000  1
  Br  Br6  1  0.96891000  0.48484000  0.12823000  1
  Br  Br7  1  0.51521000  0.63096000  0.53113000  1
  Br  Br8  1  0.51601000  0.85539000  0.12892000  1
  Br  Br9  1  0.51560000  0.03093000  0.35610000  1
  Br  Br10  1  0.48461000  0.36933000  0.64660000  1
  Br  Br11  1  0.48480000  0.14411000  0.46889000  1
  Br  Br12  1  0.48454000  0.96956000  0.87119000  1
  Br  Br13  1  0.14735000  0.63100000  0.98559000  1
  Br  Br14  1  0.96954000  0.85551000  0.98612000  1
  Br  Br15  1  0.37326000  0.03099000  0.98764000  1
  Br  Br16  1  0.03088000  0.36936000  0.01460000  1
  Br  Br17  1  0.62702000  0.14420000  0.01300000  1
  Br  Br18  1  0.85441000  0.96956000  0.01223000  1
  Br  Br19  1  0.96966000  0.63090000  0.35350000  1
  Br  Br20  1  0.37327000  0.85541000  0.53267000  1
  Br  Br21  1  0.14713000  0.03085000  0.13004000  1
  Br  Br22  1  0.85259000  0.36927000  0.46835000  1
  Br  Br23  1  0.02896000  0.14415000  0.87083000  1
  Br  Br24  1  0.62556000  0.96951000  0.64238000  1
  O  O1  1  0.51058000  0.56128000  0.50929000  1
  O  O2  1  0.48929000  0.43870000  0.55990000  1
  O  O3  1  0.43859000  0.48940000  0.50920000  1
  O  O4  1  0.56128000  0.51058000  0.55999000  1
  O  O5  1  0.56141000  0.51059000  0.49080000  1
  O  O6  1  0.43873000  0.48945000  0.44000000  1
  O  O7  1  0.48935000  0.43866000  0.49070000  1
  O  O8  1  0.51074000  0.56131000  0.44011000  1
  O  O9  1  0.06022000  0.56133000  0.98978000  1
  O  O10  1  0.00912000  0.43875000  0.01033000  1
  O  O11  1  0.06000000  0.48946000  0.06133000  1
  O  O12  1  0.00934000  0.51062000  0.93878000  1
  O  O13  1  0.94004000  0.51065000  0.93864000  1
  O  O14  1  0.99071000  0.48952000  0.06118000  1
  O  O15  1  0.93983000  0.43873000  0.01026000  1
  O  O16  1  0.99091000  0.56138000  0.98962000  1
  O  O17  1  0.99107000  0.56124000  0.44020000  1
  O  O18  1  0.93972000  0.43866000  0.49054000  1
  O  O19  1  0.99072000  0.48935000  0.43998000  1
  O  O20  1  0.94007000  0.51054000  0.49076000  1
  O  O21  1  0.00926000  0.51057000  0.56006000  1
  O  O22  1  0.05993000  0.48942000  0.50927000  1
  O  O23  1  0.00892000  0.43864000  0.55983000  1
  O  O24  1  0.06027000  0.56129000  0.50950000  1
  O  O25  1  0.56239000  0.05943000  0.01128000  1
  O  O26  1  0.43965000  0.00852000  0.99018000  1
  O  O27  1  0.49054000  0.05923000  0.93950000  1
  O  O28  1  0.51150000  0.00872000  0.06196000  1
  O  O29  1  0.51152000  0.93940000  0.06211000  1
  O  O30  1  0.49058000  0.98993000  0.93966000  1
  O  O31  1  0.43962000  0.93922000  0.99025000  1
  O  O32  1  0.56243000  0.99011000  0.01145000  1
  O  O33  1  0.56133000  0.99112000  0.55998000  1
  O  O34  1  0.43864000  0.93990000  0.50913000  1
  O  O35  1  0.48934000  0.99090000  0.55984000  1
  O  O36  1  0.51063000  0.94012000  0.50926000  1
  O  O37  1  0.51080000  0.00922000  0.44006000  1
  O  O38  1  0.48954000  0.06001000  0.49066000  1
  O  O39  1  0.43876000  0.00901000  0.43994000  1
  O  O40  1  0.56151000  0.06021000  0.49078000  1
  O  O41  1  0.01027000  0.05957000  0.94098000  1
  O  O42  1  0.06083000  0.00868000  0.06341000  1
  O  O43  1  0.01015000  0.05939000  0.01282000  1
  O  O44  1  0.06094000  0.00886000  0.99156000  1
  O  O45  1  0.99153000  0.93954000  0.99112000  1
  O  O46  1  0.94072000  0.99010000  0.01235000  1
  O  O47  1  0.99140000  0.93938000  0.06301000  1
  O  O48  1  0.94085000  0.99026000  0.94052000  1
