data_DB1-Zn2O8N2-irmof10_A-irmof20_A_No417_repeat
_audit_creation_date              2024-02-20
_audit_creation_method            'Materials Studio'
_symmetry_space_group_name_H-M    'P1'
_symmetry_Int_Tables_number       1
_symmetry_cell_setting            triclinic
loop_
_symmetry_equiv_pos_as_xyz
  x,y,z
_cell_length_a                    12.7017
_cell_length_b                    27.8474
_cell_length_c                    14.2624
_cell_angle_alpha                 90.0416
_cell_angle_beta                  89.8755
_cell_angle_gamma                 89.7872
loop_
_atom_site_label
_atom_site_type_symbol
_atom_site_fract_x
_atom_site_fract_y
_atom_site_fract_z
_atom_site_U_iso_or_equiv
_atom_site_adp_type
_atom_site_occupancy
O1     O     0.50097   0.43075   0.59520   0.00000  Uiso   1.00
O2     O     0.50044   0.43075   0.40463   0.00000  Uiso   1.00
C1     C     0.50065   0.40635   0.49993   0.00000  Uiso   1.00
Zn1    Zn    0.50000   0.50001   0.61623   0.00000  Uiso   1.00
O3     O     0.65180   0.50003   0.40453   0.00000  Uiso   1.00
O4     O     0.65187   0.50009   0.59511   0.00000  Uiso   1.00
C2     C     0.70535   0.50004   0.49985   0.00000  Uiso   1.00
O5     O     0.49923   0.56927   0.40480   0.00000  Uiso   1.00
O6     O     0.49936   0.56926   0.59538   0.00000  Uiso   1.00
C3     C     0.49927   0.59367   0.50008   0.00000  Uiso   1.00
Zn2    Zn    0.50001   0.50001   0.38377   0.00000  Uiso   1.00
O7     O     0.34821   0.49989   0.59547   0.00000  Uiso   1.00
O8     O     0.34814   0.50000   0.40489   0.00000  Uiso   1.00
C4     C     0.29466   0.49981   0.50016   0.00000  Uiso   1.00
O9     O     0.50009   0.02537   0.40485   0.00000  Uiso   1.00
O10    O     0.49983   0.02537   0.59542   0.00000  Uiso   1.00
C5     C     0.49984   0.04977   0.50012   0.00000  Uiso   1.00
Zn3    Zn    0.49926   0.95611   0.38382   0.00000  Uiso   1.00
O11    O     0.65136   0.95566   0.59477   0.00000  Uiso   1.00
O12    O     0.65116   0.95559   0.40418   0.00000  Uiso   1.00
C6     C     0.70478   0.95549   0.49918   0.00000  Uiso   1.00
O13    O     0.49896   0.88685   0.59526   0.00000  Uiso   1.00
O14    O     0.49883   0.88686   0.40468   0.00000  Uiso   1.00
C7     C     0.49893   0.86246   0.49998   0.00000  Uiso   1.00
Zn4    Zn    0.49960   0.95612   0.61628   0.00000  Uiso   1.00
O15    O     0.34750   0.95667   0.40533   0.00000  Uiso   1.00
O16    O     0.34770   0.95655   0.59592   0.00000  Uiso   1.00
C8     C     0.29408   0.95690   0.50092   0.00000  Uiso   1.00
N1     N     0.50000   0.50001   0.75296   0.00000  Uiso   1.00
N2     N     0.50002   0.50000   0.24704   0.00000  Uiso   1.00
C9     C     0.43287   0.53041   0.80258   0.00000  Uiso   1.00
C10    C     0.43225   0.53069   0.90091   0.00000  Uiso   1.00
C11    C     0.56715   0.46960   0.19742   0.00000  Uiso   1.00
C12    C     0.56777   0.46932   0.09909   0.00000  Uiso   1.00
C13    C     0.43289   0.53041   0.19777   0.00000  Uiso   1.00
C14    C     0.43226   0.53069   0.09945   0.00000  Uiso   1.00
C15    C     0.56714   0.46960   0.80223   0.00000  Uiso   1.00
C16    C     0.56777   0.46932   0.90055   0.00000  Uiso   1.00
C17    C     0.50001   0.50001   0.95046   0.00000  Uiso   1.00
C18    C     0.50002   0.50001   0.04954   0.00000  Uiso   1.00
H1     H     0.38633   0.55149   0.76905   0.00000  Uiso   1.00
H2     H     0.61369   0.44852   0.23095   0.00000  Uiso   1.00
H3     H     0.38635   0.55148   0.23154   0.00000  Uiso   1.00
H4     H     0.38553   0.55185   0.06633   0.00000  Uiso   1.00
H5     H     0.61367   0.44853   0.76846   0.00000  Uiso   1.00
H6     H     0.61449   0.44816   0.93367   0.00000  Uiso   1.00
C19    C     0.49911   0.67835   0.42568   0.00000  Uiso   1.00
S1     S     0.49924   0.67622   0.60738   0.00000  Uiso   1.00
C20    C     0.49909   0.77777   0.57438   0.00000  Uiso   1.00
S2     S     0.49896   0.77991   0.39268   0.00000  Uiso   1.00
C21    C     0.49920   0.64725   0.50006   0.00000  Uiso   1.00
C22    C     0.49900   0.80887   0.50000   0.00000  Uiso   1.00
C23    C     0.49913   0.72808   0.54795   0.00000  Uiso   1.00
C24    C     0.49906   0.72804   0.45211   0.00000  Uiso   1.00
C25    C     0.50054   0.35458   0.49995   0.00000  Uiso   1.00
C26    C     0.49996   0.10154   0.50009   0.00000  Uiso   1.00
C27    C     0.50071   0.32930   0.58406   0.00000  Uiso   1.00
C28    C     0.50060   0.27894   0.58487   0.00000  Uiso   1.00
C29    C     0.49979   0.12682   0.41598   0.00000  Uiso   1.00
C30    C     0.49990   0.17718   0.41518   0.00000  Uiso   1.00
C31    C     0.50025   0.12690   0.58417   0.00000  Uiso   1.00
C32    C     0.50037   0.17726   0.58493   0.00000  Uiso   1.00
C33    C     0.50024   0.32922   0.41587   0.00000  Uiso   1.00
C34    C     0.50013   0.27886   0.41512   0.00000  Uiso   1.00
C35    C     0.50031   0.25343   0.50001   0.00000  Uiso   1.00
C36    C     0.50019   0.20269   0.50004   0.00000  Uiso   1.00
H7     H     0.50091   0.34657   0.64235   0.00000  Uiso   1.00
H8     H     0.49959   0.10955   0.35770   0.00000  Uiso   1.00
H9     H     0.50038   0.10970   0.64248   0.00000  Uiso   1.00
H10    H     0.50057   0.19432   0.64345   0.00000  Uiso   1.00
H11    H     0.50012   0.34642   0.35757   0.00000  Uiso   1.00
H12    H     0.49993   0.26180   0.35660   0.00000  Uiso   1.00
C37    C     0.89086   0.49999   0.57431   0.00000  Uiso   1.00
S3     S     0.88656   0.49993   0.39261   0.00000  Uiso   1.00
C38    C     0.10914   0.49986   0.42569   0.00000  Uiso   1.00
S4     S     0.11345   0.49992   0.60739   0.00000  Uiso   1.00
C39    C     0.82283   0.49999   0.49991   0.00000  Uiso   1.00
C40    C     0.17718   0.49986   0.50009   0.00000  Uiso   1.00
C41    C     0.00015   0.49991   0.45208   0.00000  Uiso   1.00
C42    C     0.99985   0.49994   0.54792   0.00000  Uiso   1.00
N3     N     0.49908   0.95611   0.24709   0.00000  Uiso   1.00
N4     N     0.49840   0.95612   0.75301   0.00000  Uiso   1.00
C43    C     0.43195   0.92590   0.19781   0.00000  Uiso   1.00
C44    C     0.43120   0.92562   0.09948   0.00000  Uiso   1.00
C45    C     0.56553   0.98633   0.80230   0.00000  Uiso   1.00
C46    C     0.56629   0.98661   0.90063   0.00000  Uiso   1.00
C47    C     0.43141   0.92591   0.80261   0.00000  Uiso   1.00
C48    C     0.43093   0.92563   0.90095   0.00000  Uiso   1.00
C49    C     0.56607   0.98633   0.19749   0.00000  Uiso   1.00
C50    C     0.56656   0.98661   0.09916   0.00000  Uiso   1.00
C51    C     0.49881   0.95612   0.04959   0.00000  Uiso   1.00
C52    C     0.49867   0.95612   0.95052   0.00000  Uiso   1.00
H13    H     0.38551   0.90496   0.23157   0.00000  Uiso   1.00
H14    H     0.61197   0.00727   0.76854   0.00000  Uiso   1.00
H15    H     0.38488   0.90496   0.76907   0.00000  Uiso   1.00
H16    H     0.38430   0.90460   0.93430   0.00000  Uiso   1.00
H17    H     0.61260   0.00727   0.23103   0.00000  Uiso   1.00
H18    H     0.61319   0.00764   0.06581   0.00000  Uiso   1.00
C53    C     0.89019   0.95501   0.42379   0.00000  Uiso   1.00
S5     S     0.88614   0.95508   0.60551   0.00000  Uiso   1.00
C54    C     0.10868   0.95452   0.57133   0.00000  Uiso   1.00
S6     S     0.11273   0.95444   0.38960   0.00000  Uiso   1.00
C55    C     0.82226   0.95520   0.49853   0.00000  Uiso   1.00
C56    C     0.17660   0.95432   0.49658   0.00000  Uiso   1.00
C57    C     0.99965   0.95478   0.54548   0.00000  Uiso   1.00
C58    C     0.99922   0.95475   0.44964   0.00000  Uiso   1.00
H19    H     0.31484   0.55072   0.01550   0.00000  Uiso   1.00
H20    H     0.34865   0.60169   0.92984   0.00000  Uiso   1.00
N5     N     0.35876   0.56398   0.95339   0.00000  Uiso   1.00
H21    H     0.61253   0.41591   0.98459   0.00000  Uiso   1.00
H22    H     0.72403   0.43170   0.07006   0.00000  Uiso   1.00
N6     N     0.64127   0.43604   0.04661   0.00000  Uiso   1.00
H23    H     0.44909   0.22055   0.68669   0.00000  Uiso   1.00
H24    H     0.55264   0.26423   0.73489   0.00000  Uiso   1.00
N7     N     0.50079   0.25221   0.67695   0.00000  Uiso   1.00
H25    H     0.44809   0.23579   0.31378   0.00000  Uiso   1.00
H26    H     0.55117   0.19167   0.26473   0.00000  Uiso   1.00
N8     N     0.49970   0.20391   0.32310   0.00000  Uiso   1.00
H27    H     0.31368   0.90593   0.98547   0.00000  Uiso   1.00
H28    H     0.34774   0.85486   0.07096   0.00000  Uiso   1.00
N9     N     0.35771   0.89255   0.04737   0.00000  Uiso   1.00
H29    H     0.61107   0.03989   0.01490   0.00000  Uiso   1.00
H30    H     0.72248   0.02378   0.92887   0.00000  Uiso   1.00
N10    N     0.63977   0.01968   0.95274   0.00000  Uiso   1.00
O17    O     0.49906   0.66428   0.33889   0.00000  Uiso   1.00
Li1    Li    0.49895   0.69446   0.23445   0.00000  Uiso   1.00
O18    O     0.49913   0.79185   0.66116   0.00000  Uiso   1.00
Li2    Li    0.49924   0.76166   0.76561   0.00000  Uiso   1.00
O19    O     0.85983   0.50004   0.66108   0.00000  Uiso   1.00
Li3    Li    0.92579   0.50005   0.76556   0.00000  Uiso   1.00
O20    O     0.14018   0.49981   0.33892   0.00000  Uiso   1.00
Li4    Li    0.07422   0.49980   0.23445   0.00000  Uiso   1.00
O21    O     0.85903   0.95505   0.33718   0.00000  Uiso   1.00
Li5    Li    0.92485   0.95485   0.23237   0.00000  Uiso   1.00
O22    O     0.13984   0.95447   0.65794   0.00000  Uiso   1.00
Li6    Li    0.07402   0.95467   0.76274   0.00000  Uiso   1.00
