# Generated by REPEAT Assigner based on pymatgen
data_DB1-Al2O6-ADC_B-AZO_B_No128
_audit_creation_date              2022-05-24
_audit_creation_method            REPEAT_Assigner
_cell_length_a                    33.885800
_cell_length_b                    23.673700
_cell_length_c                    6.607200
_cell_angle_alpha                 90.000000
_cell_angle_beta                  93.305200
_cell_angle_gamma                 45.682800
_cell_volume                      3779.950091
_symmetry_space_group_name_H-M    P1
_symmetry_Int_Tables_number       1
loop_
    _symmetry_equiv_pos_site_id
    _symmetry_equiv_pos_as_xyz
    1  x,y,z
loop_
    _atom_site_type_symbol
    _atom_site_label
    _atom_site_fract_x
    _atom_site_fract_y
    _atom_site_fract_z
    _atom_type_partial_charge
    Al  Al1  0.500000  0.500000  0.000000  1.143304
    Al  Al2  0.500000  0.500000  0.500000  1.095850
    O   O1   0.449600  0.602370  0.061390  -0.491590
    O   O2   0.550400  0.501570  0.438610  -0.478359
    O   O3   0.550400  0.397630  0.591190  -0.545754
    O   O4   0.449600  0.498430  0.908810  -0.556014
    O   O5   0.550400  0.397630  0.938610  -0.491543
    O   O6   0.449600  0.498430  0.561390  -0.478340
    O   O7   0.449600  0.602360  0.408810  -0.545690
    O   O8   0.550400  0.501570  0.091190  -0.556027
    O   O9   0.500000  0.524620  0.750000  -0.454161
    O   O10  0.500000  0.475370  0.250000  -0.454026
    C   C1   0.431500  0.638430  0.229750  0.717951
    C   C2   0.568500  0.501420  0.270260  0.727717
    C   C3   0.568500  0.361570  0.770260  0.718006
    C   C4   0.431500  0.498570  0.729750  0.727787
    H   H1   0.500000  0.565400  0.750000  0.291941
    H   H2   0.500000  0.434600  0.250000  0.292034
    Al  Al3  -0.000000  0.500000  0.000000  1.095401
    Al  Al4  -0.000000  0.500000  0.500000  1.141955
    O   O11  0.050400  0.397630  0.091190  -0.545657
    O   O12  0.949600  0.498430  0.408810  -0.555882
    O   O13  0.949600  0.602370  0.561390  -0.490952
    O   O14  0.050400  0.501570  0.938610  -0.478353
    O   O15  0.949600  0.602360  0.908810  -0.545517
    O   O16  0.050400  0.501570  0.591190  -0.555879
    O   O17  0.050400  0.397630  0.438610  -0.491195
    O   O18  0.949600  0.498430  0.061390  -0.478401
    O   O19  -0.000000  0.475370  0.750000  -0.453539
    O   O20  -0.000000  0.524620  0.250000  -0.453563
    C   C5   0.068500  0.361570  0.270260  0.717813
    C   C6   0.931500  0.498570  0.229750  0.728001
    C   C7   0.931500  0.638430  0.729750  0.717585
    C   C8   0.068500  0.501420  0.770260  0.727754
    H   H3   -0.000000  0.434600  0.750000  0.291991
    H   H4   -0.000000  0.565400  0.250000  0.291943
    C   C9   0.887210  0.498920  0.216640  -0.354464
    C   C10  0.865810  0.499090  0.393660  -0.155500
    C   C11  0.824210  0.499420  0.380880  -0.070715
    C   C12  0.803170  0.499580  0.191080  0.388609
    C   C13  0.824270  0.499420  0.014800  -0.353573
    C   C14  0.865850  0.499090  0.026890  0.461984
    N   N1   0.760560  0.499920  0.173070  -0.225765
    N   N2   0.739440  0.500080  0.326930  -0.225721
    C   C15  0.675730  0.500580  0.485200  -0.352405
    C   C16  0.696830  0.500420  0.308920  0.387748
    C   C17  0.675790  0.500580  0.119120  -0.070182
    C   C18  0.634190  0.500910  0.106340  -0.156022
    C   C19  0.612790  0.501080  0.283360  -0.353784
    C   C20  0.634150  0.500910  0.473110  0.461127
    H   H5   0.881460  0.498970  0.541430  0.211902
    H   H6   0.808320  0.499540  0.518330  0.069589
    H   H7   0.808330  0.499540  0.867950  0.133553
    H   H8   0.691680  0.500460  0.632050  0.133174
    H   H9   0.691680  0.500460  0.981680  0.069567
    H   H10  0.618540  0.501030  0.958580  0.212006
    C   C21  0.112790  0.501080  0.783360  -0.353870
    C   C22  0.134190  0.500910  0.606340  -0.155901
    C   C23  0.175790  0.500580  0.619130  -0.070277
    C   C24  0.196830  0.500420  0.808920  0.387862
    C   C25  0.175730  0.500580  0.985200  -0.352515
    C   C26  0.134150  0.500910  0.973110  0.461186
    N   N3   0.239440  0.500080  0.826930  -0.225793
    N   N4   0.260560  0.499920  0.673070  -0.225630
    C   C27  0.324270  0.499420  0.514800  -0.352935
    C   C28  0.303170  0.499580  0.691080  0.388311
    C   C29  0.324210  0.499420  0.880880  -0.070789
    C   C30  0.365810  0.499090  0.893670  -0.155546
    C   C31  0.387210  0.498920  0.716640  -0.354142
    C   C32  0.365850  0.499090  0.526890  0.461512
    H   H11  0.118540  0.501030  0.458580  0.211953
    H   H12  0.191680  0.500460  0.481670  0.069551
    H   H13  0.191680  0.500460  0.132050  0.133227
    H   H14  0.308320  0.499540  0.367950  0.133232
    H   H15  0.308320  0.499540  0.018330  0.069751
    H   H16  0.381460  0.498970  0.041420  0.211872
    C   C33  0.887210  0.726660  0.716640  -0.336915
    C   C34  0.865810  0.769290  0.893670  -0.161400
    C   C35  0.824210  0.852160  0.880880  -0.062348
    C   C36  0.803170  0.894070  0.691080  0.367636
    C   C37  0.824270  0.852040  0.514800  -0.342816
    C   C38  0.865850  0.769220  0.526890  0.456753
    N   N5   0.760560  0.978960  0.673070  -0.214555
    N   N6   0.739440  0.021040  0.826930  -0.214536
    C   C39  0.675730  0.147950  0.985200  -0.343047
    C   C40  0.696830  0.105920  0.808920  0.367685
    C   C41  0.675790  0.147840  0.619130  -0.062227
    C   C42  0.634190  0.230700  0.606340  -0.161428
    C   C43  0.612790  0.273340  0.783360  -0.337170
    C   C44  0.634150  0.230780  0.973110  0.457042
    H   H17  0.881460  0.738110  0.041420  0.212364
    H   H18  0.808320  0.883820  0.018330  0.065237
    H   H19  0.808320  0.883810  0.367950  0.131238
    H   H20  0.691680  0.116190  0.132050  0.131348
    H   H21  0.691680  0.116180  0.481670  0.065136
    H   H22  0.618540  0.261880  0.458580  0.212419
    C   C45  0.112790  0.273340  0.283360  -0.337089
    C   C46  0.134190  0.230700  0.106340  -0.161460
    C   C47  0.175790  0.147840  0.119120  -0.062156
    C   C48  0.196830  0.105920  0.308920  0.367572
    C   C49  0.175730  0.147950  0.485200  -0.342958
    C   C50  0.134150  0.230780  0.473110  0.456957
    N   N7   0.239440  0.021040  0.326930  -0.214523
    N   N8   0.260560  0.978960  0.173070  -0.214479
    C   C51  0.324270  0.852040  0.014800  -0.342641
    C   C52  0.303170  0.894080  0.191080  0.367418
    C   C53  0.324210  0.852160  0.380880  -0.062258
    C   C54  0.365810  0.769290  0.393660  -0.161292
    C   C55  0.387210  0.726660  0.216640  -0.337083
    C   C56  0.365850  0.769220  0.026890  0.456797
    H   H23  0.118540  0.261880  0.958580  0.212407
    H   H24  0.191680  0.116180  0.981680  0.065120
    H   H25  0.191680  0.116190  0.632050  0.131336
    H   H26  0.308320  0.883810  0.867950  0.131191
    H   H27  0.308320  0.883820  0.518330  0.065219
    H   H28  0.381460  0.738110  0.541430  0.212314
    O   O21  0.887700  0.498920  0.833850  -0.518730
    H   H29  0.920170  0.498660  0.871840  0.241528
    O   O22  0.612300  0.501080  0.666150  -0.518563
    H   H30  0.579840  0.501340  0.628160  0.241634
    O   O23  0.112300  0.501080  0.166150  -0.518541
    H   H31  0.079840  0.501340  0.128160  0.241581
    O   O24  0.387700  0.498920  0.333850  -0.518498
    H   H32  0.420160  0.498660  0.371840  0.241482
    O   O25  0.887700  0.725670  0.333850  -0.523002
    H   H33  0.920160  0.661010  0.371840  0.247556
    O   O26  0.612300  0.274320  0.166150  -0.523234
    H   H34  0.579840  0.338990  0.128160  0.247833
    O   O27  0.112300  0.274320  0.666150  -0.523189
    H   H35  0.079840  0.338990  0.628160  0.247769
    O   O28  0.387700  0.725670  0.833850  -0.523318
    H   H36  0.420170  0.661010  0.871840  0.248100
