# generated using pymatgen
data_LiZnH7C13N2O5
_symmetry_space_group_name_H-M   'P 1'
_cell_length_a   13.19050000
_cell_length_b   37.26650000
_cell_length_c   10.00000000
_cell_angle_alpha   90.00000000
_cell_angle_beta   90.00000000
_cell_angle_gamma   110.53500000
_symmetry_Int_Tables_number   1
_chemical_formula_structural   LiZnH7C13N2O5
_chemical_formula_sum   'Li4 Zn4 H28 C52 N8 O20'
_cell_volume   4603.28865063
_cell_formula_units_Z   4
loop_
 _symmetry_equiv_pos_site_id
 _symmetry_equiv_pos_as_xyz
  1  'x, y, z'
loop_
 _atom_site_type_symbol
 _atom_site_label
 _atom_site_symmetry_multiplicity
 _atom_site_fract_x
 _atom_site_fract_y
 _atom_site_fract_z
 _atom_site_occupancy
  Li  Li1  1  0.90817000  0.50032000  0.94478000  1
  Li  Li2  1  0.09184000  0.49964000  0.05523000  1
  Li  Li3  1  0.40427000  0.99933000  0.95755000  1
  Li  Li4  1  0.58913000  0.99985000  0.84710000  1
  Zn  Zn1  1  0.50004000  0.50011000  0.66577000  1
  Zn  Zn2  1  0.49999000  0.49989000  0.33423000  1
  Zn  Zn3  1  0.99693000  0.99991000  0.23657000  1
  Zn  Zn4  1  0.99731000  0.00013000  0.56810000  1
  H  H1  1  0.87499000  0.87693000  0.61823000  1
  H  H2  1  0.80477000  0.80630000  0.61715000  1
  H  H3  1  0.80483000  0.80636000  0.18743000  1
  H  H4  1  0.69278000  0.69366000  0.71491000  1
  H  H5  1  0.69283000  0.69371000  0.28519000  1
  H  H6  1  0.62262000  0.62309000  0.28411000  1
  H  H7  1  0.11937000  0.12305000  0.61785000  1
  H  H8  1  0.19079000  0.19367000  0.61698000  1
  H  H9  1  0.19143000  0.19372000  0.18726000  1
  H  H10  1  0.30453000  0.30630000  0.71507000  1
  H  H11  1  0.30518000  0.30634000  0.28535000  1
  H  H12  1  0.37660000  0.37697000  0.28448000  1
  H  H13  1  0.14557000  0.50021000  0.70249000  1
  H  H14  1  0.21674000  0.49989000  0.28661000  1
  H  H15  1  0.85443000  0.49976000  0.29752000  1
  H  H16  1  0.78325000  0.50007000  0.71338000  1
  H  H17  1  0.64168000  0.99923000  0.19984000  1
  H  H18  1  0.71343000  0.99949000  0.61572000  1
  H  H19  1  0.35170000  0.99994000  0.60481000  1
  H  H20  1  0.27995000  0.99969000  0.18895000  1
  H  H21  1  0.95594000  0.90833000  0.13537000  1
  H  H22  1  0.82157000  0.87323000  0.06677000  1
  H  H23  1  0.64110000  0.59164000  0.76697000  1
  H  H24  1  0.57660000  0.62683000  0.83556000  1
  H  H25  1  0.03879000  0.09189000  0.13478000  1
  H  H26  1  0.17363000  0.12676000  0.06653000  1
  H  H27  1  0.35798000  0.40842000  0.76732000  1
  H  H28  1  0.42153000  0.37297000  0.83605000  1
  C  C1  1  0.30240000  0.50011000  0.49991000  1
  C  C2  1  0.57456000  0.57474000  0.49974000  1
  C  C3  1  0.69760000  0.49986000  0.50010000  1
  C  C4  1  0.42513000  0.42526000  0.50026000  1
  C  C5  1  0.79946000  0.00008000  0.40243000  1
  C  C6  1  0.92305000  0.92528000  0.40259000  1
  C  C7  1  0.19481000  0.99998000  0.40223000  1
  C  C8  1  0.07084000  0.07476000  0.40207000  1
  C  C9  1  0.88053000  0.88251000  0.40252000  1
  C  C10  1  0.85997000  0.86183000  0.52364000  1
  C  C11  1  0.82004000  0.82166000  0.52325000  1
  C  C12  1  0.79985000  0.80136000  0.40193000  1
  C  C13  1  0.82012000  0.82175000  0.28137000  1
  C  C14  1  0.86004000  0.86190000  0.28129000  1
  C  C15  1  0.67748000  0.67827000  0.62097000  1
  C  C16  1  0.69775000  0.69866000  0.50041000  1
  C  C17  1  0.67757000  0.67835000  0.37908000  1
  C  C18  1  0.63764000  0.63819000  0.37870000  1
  C  C19  1  0.61707000  0.61751000  0.49981000  1
  C  C20  1  0.63757000  0.63812000  0.62104000  1
  C  C21  1  0.11408000  0.11752000  0.40213000  1
  C  C22  1  0.13480000  0.13818000  0.52330000  1
  C  C23  1  0.17541000  0.17834000  0.52304000  1
  C  C24  1  0.19614000  0.19867000  0.40178000  1
  C  C25  1  0.17572000  0.17831000  0.28115000  1
  C  C26  1  0.13513000  0.13817000  0.28096000  1
  C  C27  1  0.32024000  0.32170000  0.62118000  1
  C  C28  1  0.29983000  0.30135000  0.50056000  1
  C  C29  1  0.32056000  0.32168000  0.37930000  1
  C  C30  1  0.36117000  0.36184000  0.37903000  1
  C  C31  1  0.38188000  0.38249000  0.50021000  1
  C  C32  1  0.36084000  0.36185000  0.62138000  1
  C  C33  1  0.12174000  0.50012000  0.59784000  1
  C  C34  1  0.15939000  0.49994000  0.36377000  1
  C  C35  1  0.05642000  0.49986000  0.32763000  1
  C  C36  1  0.98396000  0.49992000  0.43234000  1
  C  C37  1  0.87826000  0.49985000  0.40216000  1
  C  C38  1  0.84061000  0.50003000  0.63623000  1
  C  C39  1  0.94358000  0.50011000  0.67237000  1
  C  C40  1  0.01604000  0.50005000  0.56766000  1
  C  C41  1  0.19011000  0.50006000  0.49994000  1
  C  C42  1  0.80989000  0.49990000  0.50006000  1
  C  C43  1  0.61806000  0.99934000  0.30448000  1
  C  C44  1  0.65604000  0.99949000  0.53855000  1
  C  C45  1  0.55331000  0.99966000  0.57469000  1
  C  C46  1  0.48079000  0.99966000  0.46999000  1
  C  C47  1  0.37532000  0.99983000  0.50017000  1
  C  C48  1  0.33734000  0.99968000  0.26610000  1
  C  C49  1  0.44007000  0.99951000  0.22996000  1
  C  C50  1  0.51259000  0.99951000  0.33467000  1
  C  C51  1  0.68647000  0.99934000  0.40238000  1
  C  C52  1  0.30691000  0.99984000  0.40227000  1
  N  N1  1  0.75895000  0.76022000  0.39829000  1
  N  N2  1  0.73866000  0.73980000  0.50405000  1
  N  N3  1  0.23775000  0.23982000  0.39826000  1
  N  N4  1  0.25822000  0.26020000  0.50408000  1
  N  N5  1  0.88104000  0.88302000  0.14951000  1
  N  N6  1  0.61657000  0.61700000  0.75283000  1
  N  N7  1  0.11398000  0.11708000  0.14911000  1
  N  N8  1  0.38198000  0.38294000  0.75322000  1
  O  O1  1  0.35407000  0.50035000  0.63579000  1
  O  O2  1  0.35386000  0.49998000  0.36398000  1
  O  O3  1  0.55509000  0.55516000  0.36380000  1
  O  O4  1  0.55529000  0.55536000  0.63562000  1
  O  O5  1  0.64603000  0.49972000  0.36421000  1
  O  O6  1  0.64610000  0.49995000  0.63602000  1
  O  O7  1  0.44474000  0.44484000  0.63620000  1
  O  O8  1  0.44491000  0.44464000  0.36438000  1
  O  O9  1  0.85061000  0.99980000  0.26655000  1
  O  O10  1  0.85114000  0.00017000  0.53835000  1
  O  O11  1  0.94252000  0.94486000  0.53853000  1
  O  O12  1  0.94231000  0.94465000  0.26672000  1
  O  O13  1  0.14356000  0.00017000  0.53812000  1
  O  O14  1  0.14317000  0.99994000  0.26632000  1
  O  O15  1  0.05151000  0.05518000  0.26614000  1
  O  O16  1  0.05210000  0.05538000  0.53795000  1
  O  O17  1  0.97267000  0.50022000  0.79641000  1
  O  O18  1  0.02733000  0.49974000  0.20359000  1
  O  O19  1  0.46891000  0.99937000  0.10592000  1
  O  O20  1  0.52448000  0.99980000  0.69874000  1
