# generated using pymatgen
data_Zn4H14C49S10(NO5)6
_symmetry_space_group_name_H-M   'P 1'
_cell_length_a   23.44530000
_cell_length_b   12.70140000
_cell_length_c   11.71640000
_cell_angle_alpha   90.03830000
_cell_angle_beta   89.87930000
_cell_angle_gamma   89.81700000
_symmetry_Int_Tables_number   1
_chemical_formula_structural   Zn4H14C49S10(NO5)6
_chemical_formula_sum   'Zn4 H14 C49 S10 N6 O30'
_cell_volume   3488.97855314
_cell_formula_units_Z   1
loop_
 _symmetry_equiv_pos_site_id
 _symmetry_equiv_pos_as_xyz
  1  'x, y, z'
loop_
 _atom_site_type_symbol
 _atom_site_label
 _atom_site_symmetry_multiplicity
 _atom_site_fract_x
 _atom_site_fract_y
 _atom_site_fract_z
 _atom_site_occupancy
  Zn  Zn1  1  0.50000000  0.50002000  0.64148000  1
  Zn  Zn2  1  0.50000000  0.50001000  0.35852000  1
  Zn  Zn3  1  0.95826000  0.49810000  0.35847000  1
  Zn  Zn4  1  0.95825000  0.49845000  0.64144000  1
  H  H1  1  0.55898000  0.39161000  0.14164000  1
  H  H2  1  0.50001000  0.13084000  0.33370000  1
  H  H3  1  0.82574000  0.63205000  0.64421000  1
  H  H4  1  0.63196000  0.63278000  0.64396000  1
  H  H5  1  0.68263000  0.38688000  0.37784000  1
  H  H6  1  0.77610000  0.38652000  0.37796000  1
  H  H7  1  0.15795000  0.49779000  0.66616000  1
  H  H8  1  0.89941000  0.38951000  0.85832000  1
  H  H9  1  0.95747000  0.12932000  0.66624000  1
  H  H10  1  0.43245000  0.71246000  0.98446000  1
  H  H11  1  0.46611000  0.98575000  0.75807000  1
  H  H12  1  0.23721000  0.56153000  0.24223000  1
  H  H13  1  0.02554000  0.70959000  0.01549000  1
  H  H14  1  0.99154000  0.98343000  0.24187000  1
  C  C1  1  0.50016000  0.29467000  0.49992000  1
  C  C2  1  0.61125000  0.49984000  0.49983000  1
  C  C3  1  0.49979000  0.70536000  0.50008000  1
  C  C4  1  0.38875000  0.49983000  0.50018000  1
  C  C5  1  0.95835000  0.29293000  0.50004000  1
  C  C6  1  0.84700000  0.49894000  0.50013000  1
  C  C7  1  0.95821000  0.70362000  0.49987000  1
  C  C8  1  0.06950000  0.49725000  0.49978000  1
  C  C9  1  0.46790000  0.55904000  0.88212000  1
  C  C10  1  0.53212000  0.44099000  0.11788000  1
  C  C11  1  0.52070000  0.46198000  0.99988000  1
  C  C12  1  0.47932000  0.53804000  0.00012000  1
  C  C13  1  0.49994000  0.89118000  0.59056000  1
  C  C14  1  0.50002000  0.10885000  0.40944000  1
  C  C15  1  0.49987000  0.82284000  0.50005000  1
  C  C16  1  0.50009000  0.17719000  0.49995000  1
  C  C17  1  0.49996000  0.99996000  0.44167000  1
  C  C18  1  0.50000000  0.00007000  0.55834000  1
  C  C19  1  0.78476000  0.49918000  0.50005000  1
  C  C20  1  0.75542000  0.56749000  0.57390000  1
  C  C21  1  0.75571000  0.43109000  0.42613000  1
  C  C22  1  0.78613000  0.63400000  0.64611000  1
  C  C23  1  0.75855000  0.70310000  0.72081000  1
  C  C24  1  0.67350000  0.49960000  0.49991000  1
  C  C25  1  0.70283000  0.43129000  0.42606000  1
  C  C26  1  0.70254000  0.56769000  0.57383000  1
  C  C27  1  0.67156000  0.63443000  0.64596000  1
  C  C28  1  0.69884000  0.70332000  0.72074000  1
  C  C29  1  0.28825000  0.49911000  0.40952000  1
  C  C30  1  0.17000000  0.49796000  0.59044000  1
  C  C31  1  0.32511000  0.49932000  0.50010000  1
  C  C32  1  0.13315000  0.49776000  0.49986000  1
  C  C33  1  0.22905000  0.49848000  0.55831000  1
  C  C34  1  0.22921000  0.49860000  0.44164000  1
  C  C35  1  0.99029000  0.55657000  0.11784000  1
  C  C36  1  0.92621000  0.43871000  0.88208000  1
  C  C37  1  0.93761000  0.45977000  0.00008000  1
  C  C38  1  0.97889000  0.53552000  0.99984000  1
  C  C39  1  0.95783000  0.88933000  0.40938000  1
  C  C40  1  0.95749000  0.10723000  0.59050000  1
  C  C41  1  0.95799000  0.82110000  0.49990000  1
  C  C42  1  0.95733000  0.17546000  0.49998000  1
  C  C43  1  0.95768000  0.99830000  0.55827000  1
  C  C44  1  0.95764000  0.99825000  0.44161000  1
  C  C45  1  0.42407000  0.63959000  0.84335000  1
  C  C46  1  0.49996000  0.85530000  0.71414000  1
  C  C47  1  0.30791000  0.49941000  0.28598000  1
  C  C48  1  0.03401000  0.63685000  0.15660000  1
  C  C49  1  0.95786000  0.85329000  0.28581000  1
  S  S1  1  0.54634000  0.41484000  0.87639000  1
  S  S2  1  0.45367000  0.58519000  0.12361000  1
  S  S3  1  0.49987000  0.88612000  0.36938000  1
  S  S4  1  0.50009000  0.11391000  0.63063000  1
  S  S5  1  0.29059000  0.49890000  0.63071000  1
  S  S6  1  0.16767000  0.49818000  0.36925000  1
  S  S7  1  0.91202000  0.41297000  0.12357000  1
  S  S8  1  0.00448000  0.58231000  0.87634000  1
  S  S9  1  0.95791000  0.88455000  0.63057000  1
  S  S10  1  0.95741000  0.11201000  0.36931000  1
  N  N1  1  0.50000000  0.50002000  0.80793000  1
  N  N2  1  0.50001000  0.50001000  0.19207000  1
  N  N3  1  0.95825000  0.49789000  0.19203000  1
  N  N4  1  0.95824000  0.49740000  0.80789000  1
  N  N5  1  0.79190000  0.77493000  0.79881000  1
  N  N6  1  0.66519000  0.77541000  0.79865000  1
  O  O1  1  0.50039000  0.34816000  0.61590000  1
  O  O2  1  0.50010000  0.34818000  0.38391000  1
  O  O3  1  0.58224000  0.49987000  0.38379000  1
  O  O4  1  0.58228000  0.50002000  0.61579000  1
  O  O5  1  0.49972000  0.65187000  0.38410000  1
  O  O6  1  0.49980000  0.65185000  0.61609000  1
  O  O7  1  0.41776000  0.49994000  0.61621000  1
  O  O8  1  0.41773000  0.50019000  0.38421000  1
  O  O9  1  0.95806000  0.34628000  0.38406000  1
  O  O10  1  0.95834000  0.34659000  0.61605000  1
  O  O11  1  0.87601000  0.49891000  0.61617000  1
  O  O12  1  0.87598000  0.49876000  0.38417000  1
  O  O13  1  0.95834000  0.65028000  0.61585000  1
  O  O14  1  0.95827000  0.64996000  0.38386000  1
  O  O15  1  0.04049000  0.49743000  0.38375000  1
  O  O16  1  0.04053000  0.49797000  0.61574000  1
  O  O17  1  0.41360000  0.72364000  0.90755000  1
  O  O18  1  0.39954000  0.62809000  0.75135000  1
  O  O19  1  0.47510000  0.91468000  0.79326000  1
  O  O20  1  0.52167000  0.77019000  0.73998000  1
  O  O21  1  0.27581000  0.54523000  0.20703000  1
  O  O22  1  0.35414000  0.45965000  0.26002000  1
  O  O23  1  0.04437000  0.72073000  0.09240000  1
  O  O24  1  0.05855000  0.62528000  0.24860000  1
  O  O25  1  0.98264000  0.91238000  0.20669000  1
  O  O26  1  0.93626000  0.76832000  0.25997000  1
  O  O27  1  0.84234000  0.73410000  0.86032000  1
  O  O28  1  0.77403000  0.88588000  0.81345000  1
  O  O29  1  0.61472000  0.83225000  0.75449000  1
  O  O30  1  0.68280000  0.78894000  0.91887000  1
