# generated using pymatgen
data_CuH6C15SN3O11
_symmetry_space_group_name_H-M   'P 1'
_cell_length_a   17.37220000
_cell_length_b   34.49760000
_cell_length_c   10.00000000
_cell_angle_alpha   90.00000000
_cell_angle_beta   90.00000000
_cell_angle_gamma   90.09630000
_symmetry_Int_Tables_number   1
_chemical_formula_structural   CuH6C15SN3O11
_chemical_formula_sum   'Cu4 H24 C60 S4 N12 O44'
_cell_volume   5992.98360232
_cell_formula_units_Z   4
loop_
 _symmetry_equiv_pos_site_id
 _symmetry_equiv_pos_as_xyz
  1  'x, y, z'
loop_
 _atom_site_type_symbol
 _atom_site_label
 _atom_site_symmetry_multiplicity
 _atom_site_fract_x
 _atom_site_fract_y
 _atom_site_fract_z
 _atom_site_occupancy
  Cu  Cu1  1  0.50000000  0.50000000  0.62726000  1
  Cu  Cu2  1  0.50001000  0.50000000  0.37274000  1
  Cu  Cu3  1  0.50032000  0.00000000  0.27502000  1
  Cu  Cu4  1  0.49992000  0.00000000  0.52953000  1
  H  H1  1  0.50003000  0.87842000  0.61799000  1
  H  H2  1  0.50003000  0.80697000  0.61703000  1
  H  H3  1  0.50038000  0.80697000  0.18731000  1
  H  H4  1  0.49994000  0.69303000  0.71497000  1
  H  H5  1  0.50029000  0.69303000  0.28525000  1
  H  H6  1  0.50028000  0.62158000  0.28428000  1
  H  H7  1  0.49980000  0.12158000  0.61799000  1
  H  H8  1  0.49980000  0.19303000  0.61703000  1
  H  H9  1  0.50024000  0.19303000  0.18731000  1
  H  H10  1  0.49969000  0.30698000  0.71497000  1
  H  H11  1  0.50013000  0.30698000  0.28525000  1
  H  H12  1  0.50013000  0.37842000  0.28428000  1
  H  H13  1  0.12218000  0.49989000  0.71150000  1
  H  H14  1  0.12216000  0.50008000  0.28851000  1
  H  H15  1  0.87783000  0.49989000  0.71152000  1
  H  H16  1  0.87784000  0.50012000  0.28853000  1
  H  H17  1  0.12264000  0.00115000  0.19381000  1
  H  H18  1  0.12193000  0.00096000  0.61680000  1
  H  H19  1  0.87829000  0.00075000  0.19260000  1
  H  H20  1  0.87761000  0.00051000  0.61558000  1
  H  H21  1  0.57609000  0.93117000  0.05571000  1
  H  H22  1  0.57542000  0.56896000  0.84693000  1
  H  H23  1  0.42479000  0.06883000  0.05529000  1
  H  H24  1  0.42395000  0.43104000  0.84651000  1
  C  C1  1  0.64437000  0.50003000  0.50002000  1
  C  C2  1  0.35563000  0.49997000  0.49997000  1
  C  C3  1  0.49990000  0.42730000  0.50000000  1
  C  C4  1  0.50011000  0.57270000  0.50000000  1
  C  C5  1  0.64449000  0.00021000  0.40296000  1
  C  C6  1  0.35575000  0.99979000  0.40160000  1
  C  C7  1  0.50003000  0.07270000  0.40228000  1
  C  C8  1  0.50021000  0.92730000  0.40228000  1
  C  C9  1  0.50021000  0.88404000  0.40227000  1
  C  C10  1  0.50011000  0.86313000  0.52342000  1
  C  C11  1  0.50010000  0.82250000  0.52310000  1
  C  C12  1  0.50020000  0.80194000  0.40182000  1
  C  C13  1  0.50030000  0.82255000  0.28122000  1
  C  C14  1  0.50030000  0.86317000  0.28108000  1
  C  C15  1  0.50002000  0.67745000  0.62106000  1
  C  C16  1  0.50011000  0.69806000  0.50046000  1
  C  C17  1  0.50021000  0.67751000  0.37917000  1
  C  C18  1  0.50021000  0.63687000  0.37885000  1
  C  C19  1  0.50011000  0.61597000  0.50000000  1
  C  C20  1  0.50001000  0.63684000  0.62120000  1
  C  C21  1  0.50002000  0.11597000  0.40227000  1
  C  C22  1  0.49990000  0.13687000  0.52342000  1
  C  C23  1  0.49990000  0.17751000  0.52310000  1
  C  C24  1  0.50002000  0.19806000  0.40182000  1
  C  C25  1  0.50015000  0.17745000  0.28122000  1
  C  C26  1  0.50015000  0.13684000  0.28108000  1
  C  C27  1  0.49979000  0.32255000  0.62105000  1
  C  C28  1  0.49991000  0.30194000  0.50046000  1
  C  C29  1  0.50003000  0.32250000  0.37917000  1
  C  C30  1  0.50003000  0.36313000  0.37885000  1
  C  C31  1  0.49991000  0.38404000  0.50000000  1
  C  C32  1  0.49978000  0.36317000  0.62120000  1
  C  C33  1  0.27406000  0.49997000  0.49998000  1
  C  C34  1  0.23168000  0.49992000  0.62133000  1
  C  C35  1  0.15062000  0.49993000  0.62170000  1
  C  C36  1  0.10954000  0.49998000  0.50001000  1
  C  C37  1  0.15061000  0.50003000  0.37830000  1
  C  C38  1  0.23167000  0.50003000  0.37865000  1
  C  C39  1  0.03442000  0.49999000  0.50002000  1
  C  C40  1  0.96559000  0.50000000  0.50003000  1
  C  C41  1  0.89047000  0.50000000  0.50003000  1
  C  C42  1  0.84939000  0.49994000  0.62173000  1
  C  C43  1  0.76833000  0.49995000  0.62137000  1
  C  C44  1  0.72594000  0.50002000  0.50003000  1
  C  C45  1  0.76834000  0.50008000  0.37869000  1
  C  C46  1  0.84939000  0.50007000  0.37833000  1
  C  C47  1  0.27418000  0.00131000  0.40607000  1
  C  C48  1  0.23199000  0.00130000  0.28452000  1
  C  C49  1  0.15093000  0.00116000  0.28375000  1
  C  C50  1  0.10965000  0.00103000  0.40524000  1
  C  C51  1  0.15052000  0.00105000  0.52715000  1
  C  C52  1  0.23158000  0.00119000  0.52720000  1
  C  C53  1  0.03453000  0.00090000  0.40486000  1
  C  C54  1  0.96570000  0.00078000  0.40451000  1
  C  C55  1  0.89058000  0.00065000  0.40415000  1
  C  C56  1  0.84970000  0.00064000  0.28226000  1
  C  C57  1  0.76864000  0.00050000  0.28222000  1
  C  C58  1  0.72606000  0.00036000  0.40335000  1
  C  C59  1  0.76825000  0.00037000  0.52490000  1
  C  C60  1  0.84931000  0.00051000  0.52565000  1
  S  S1  1  0.50043000  0.88784000  0.12874000  1
  S  S2  1  0.49989000  0.61216000  0.77353000  1
  S  S3  1  0.50031000  0.11216000  0.12874000  1
  S  S4  1  0.49962000  0.38784000  0.77353000  1
  N  N1  1  0.50020000  0.76032000  0.39824000  1
  N  N2  1  0.50011000  0.73968000  0.50403000  1
  N  N3  1  0.50002000  0.23968000  0.39824000  1
  N  N4  1  0.49991000  0.26032000  0.50403000  1
  N  N5  1  0.27323000  0.49986000  0.75416000  1
  N  N6  1  0.27320000  0.50009000  0.24581000  1
  N  N7  1  0.72679000  0.49988000  0.75420000  1
  N  N8  1  0.72680000  0.50016000  0.24585000  1
  N  N9  1  0.27375000  0.00143000  0.15189000  1
  N  N10  1  0.27290000  0.00120000  0.66024000  1
  N  N11  1  0.72732000  0.00050000  0.14918000  1
  N  N12  1  0.72650000  0.00022000  0.65753000  1
  O  O1  1  0.60008000  0.49998000  0.61870000  1
  O  O2  1  0.39970000  0.49991000  0.61866000  1
  O  O3  1  0.49978000  0.44949000  0.61868000  1
  O  O4  1  0.50001000  0.55040000  0.61868000  1
  O  O5  1  0.50020000  0.55051000  0.38132000  1
  O  O6  1  0.50002000  0.44961000  0.38132000  1
  O  O7  1  0.39984000  0.49997000  0.38130000  1
  O  O8  1  0.60030000  0.50010000  0.38134000  1
  O  O9  1  0.60039000  0.00020000  0.28406000  1
  O  O10  1  0.40001000  0.99992000  0.28313000  1
  O  O11  1  0.50009000  0.05051000  0.28359000  1
  O  O12  1  0.50031000  0.94961000  0.28359000  1
  O  O13  1  0.50012000  0.94949000  0.52095000  1
  O  O14  1  0.49995000  0.05040000  0.52096000  1
  O  O15  1  0.39976000  0.99986000  0.52048000  1
  O  O16  1  0.60023000  0.00007000  0.52142000  1
  O  O17  1  0.58849000  0.90560000  0.09229000  1
  O  O18  1  0.47488000  0.86132000  0.00625000  1
  O  O19  1  0.44548000  0.92467000  0.13169000  1
  O  O20  1  0.58789000  0.59455000  0.81041000  1
  O  O21  1  0.47415000  0.63864000  0.89590000  1
  O  O22  1  0.44494000  0.57524000  0.77032000  1
  O  O23  1  0.41231000  0.09440000  0.09181000  1
  O  O24  1  0.52607000  0.13868000  0.00640000  1
  O  O25  1  0.55525000  0.07533000  0.13200000  1
  O  O26  1  0.41155000  0.40545000  0.80992000  1
  O  O27  1  0.52514000  0.36136000  0.89604000  1
  O  O28  1  0.55457000  0.42477000  0.77062000  1
  O  O29  1  0.34098000  0.52519000  0.77441000  1
  O  O30  1  0.24603000  0.47447000  0.86359000  1
  O  O31  1  0.34077000  0.47475000  0.22554000  1
  O  O32  1  0.24618000  0.52548000  0.13638000  1
  O  O33  1  0.65903000  0.47453000  0.77416000  1
  O  O34  1  0.75399000  0.52516000  0.86393000  1
  O  O35  1  0.65923000  0.52552000  0.22589000  1
  O  O36  1  0.75381000  0.47487000  0.13612000  1
  O  O37  1  0.34153000  0.97621000  0.13197000  1
  O  O38  1  0.24674000  0.02678000  0.04233000  1
  O  O39  1  0.34044000  0.02665000  0.68084000  1
  O  O40  1  0.24570000  0.97576000  0.76953000  1
  O  O41  1  0.65959000  0.02574000  0.12889000  1
  O  O42  1  0.75469000  0.97527000  0.03958000  1
  O  O43  1  0.65890000  0.97475000  0.67716000  1
  O  O44  1  0.75333000  0.02555000  0.76739000  1
