# generated using pymatgen
data_Zn2H36C44N17O8
_symmetry_space_group_name_H-M   'P 1'
_cell_length_a   30.62040000
_cell_length_b   16.73770000
_cell_length_c   17.57240000
_cell_angle_alpha   90.04070000
_cell_angle_beta   89.92950000
_cell_angle_gamma   91.56690000
_symmetry_Int_Tables_number   1
_chemical_formula_structural   Zn2H36C44N17O8
_chemical_formula_sum   'Zn4 H72 C88 N34 O16'
_cell_volume   9002.74334162
_cell_formula_units_Z   2
loop_
 _symmetry_equiv_pos_site_id
 _symmetry_equiv_pos_as_xyz
  1  'x, y, z'
loop_
 _atom_site_type_symbol
 _atom_site_label
 _atom_site_symmetry_multiplicity
 _atom_site_fract_x
 _atom_site_fract_y
 _atom_site_fract_z
 _atom_site_occupancy
  Zn  Zn1  1  0.50001000  0.40096000  0.50002000  1
  Zn  Zn2  1  0.95314000  0.94813000  0.49134000  1
  Zn  Zn3  1  0.04693000  0.05187000  0.48979000  1
  Zn  Zn4  1  0.50000000  0.59904000  0.50001000  1
  H  H1  1  0.00504000  0.23621000  0.50036000  1
  H  H2  1  0.04833000  0.37668000  0.51433000  1
  H  H3  1  0.13549000  0.85577000  0.50357000  1
  H  H4  1  0.17917000  0.71988000  0.51796000  1
  H  H5  1  0.00428000  0.70976000  0.49992000  1
  H  H6  1  0.04797000  0.57396000  0.51409000  1
  H  H7  1  0.13658000  0.10482000  0.50467000  1
  H  H8  1  0.17987000  0.24548000  0.51848000  1
  H  H9  1  0.36011000  0.63123000  0.51091000  1
  H  H10  1  0.27271000  0.62628000  0.52096000  1
  H  H11  1  0.57758000  0.34005000  0.41852000  1
  H  H12  1  0.56297000  0.26550000  0.33864000  1
  H  H13  1  0.42245000  0.33241000  0.58153000  1
  H  H14  1  0.43706000  0.25942000  0.66140000  1
  H  H15  1  0.45273000  0.05779000  0.63428000  1
  H  H16  1  0.40684000  0.12903000  0.60848000  1
  H  H17  1  0.54728000  0.06234000  0.36572000  1
  H  H18  1  0.59318000  0.13820000  0.39153000  1
  H  H19  1  0.57744000  0.94374000  0.41864000  1
  H  H20  1  0.56296000  0.86940000  0.33851000  1
  H  H21  1  0.42257000  0.93613000  0.58134000  1
  H  H22  1  0.43704000  0.86336000  0.66148000  1
  H  H23  1  0.45263000  0.66151000  0.63451000  1
  H  H24  1  0.40689000  0.73297000  0.60846000  1
  H  H25  1  0.54736000  0.66603000  0.36549000  1
  H  H26  1  0.59311000  0.74211000  0.39153000  1
  H  H27  1  0.52165000  0.66185000  0.32033000  1
  H  H28  1  0.47877000  0.69987000  0.25027000  1
  H  H29  1  0.47863000  0.33804000  0.32020000  1
  H  H30  1  0.52144000  0.30005000  0.24974000  1
  H  H31  1  0.52136000  0.34047000  0.05700000  1
  H  H32  1  0.47850000  0.29791000  0.12718000  1
  H  H33  1  0.47864000  0.65954000  0.05745000  1
  H  H34  1  0.52157000  0.70206000  0.12738000  1
  H  H35  1  0.52143000  0.66165000  0.94286000  1
  H  H36  1  0.47853000  0.70002000  0.87298000  1
  H  H37  1  0.47846000  0.33841000  0.94275000  1
  H  H38  1  0.52128000  0.30005000  0.87250000  1
  H  H39  1  0.52120000  0.34024000  0.67955000  1
  H  H40  1  0.47835000  0.29806000  0.74993000  1
  H  H41  1  0.47843000  0.65988000  0.67996000  1
  H  H42  1  0.52135000  0.70205000  0.75011000  1
  H  H43  1  0.91970000  0.94312000  0.31264000  1
  H  H44  1  0.92156000  0.85579000  0.24168000  1
  H  H45  1  0.09353000  0.04450000  0.30877000  1
  H  H46  1  0.09057000  0.13280000  0.23921000  1
  H  H47  1  0.06991000  0.11302000  0.04681000  1
  H  H48  1  0.11103000  0.06684000  0.11545000  1
  H  H49  1  0.93916000  0.87824000  0.04857000  1
  H  H50  1  0.89914000  0.92345000  0.12003000  1
  H  H51  1  0.91686000  0.94583000  0.93521000  1
  H  H52  1  0.91855000  0.85830000  0.86445000  1
  H  H53  1  0.09039000  0.04701000  0.93136000  1
  H  H54  1  0.08760000  0.13552000  0.86203000  1
  H  H55  1  0.06704000  0.11586000  0.66942000  1
  H  H56  1  0.10799000  0.06948000  0.73826000  1
  H  H57  1  0.93605000  0.88068000  0.67114000  1
  H  H58  1  0.89621000  0.92606000  0.74281000  1
  H  H59  1  0.63954000  0.64616000  0.51265000  1
  H  H60  1  0.72689000  0.65101000  0.52364000  1
  H  H61  1  0.99494000  0.76383000  0.50600000  1
  H  H62  1  0.95158000  0.62338000  0.51952000  1
  H  H63  1  0.86449000  0.14426000  0.50796000  1
  H  H64  1  0.82073000  0.28017000  0.52173000  1
  H  H65  1  0.99571000  0.29027000  0.50584000  1
  H  H66  1  0.95195000  0.42609000  0.51939000  1
  H  H67  1  0.86338000  0.89521000  0.50860000  1
  H  H68  1  0.82002000  0.75457000  0.52196000  1
  H  H69  1  0.63984000  0.36880000  0.51238000  1
  H  H70  1  0.72717000  0.37377000  0.52352000  1
  H  H71  1  0.36040000  0.35387000  0.51135000  1
  H  H72  1  0.27299000  0.34904000  0.52126000  1
  C  C1  1  0.06713000  0.31885000  0.51227000  1
  C  C2  1  0.11691000  0.79588000  0.50589000  1
  C  C3  1  0.14201000  0.71783000  0.51410000  1
  C  C4  1  0.04146000  0.71189000  0.50373000  1
  C  C5  1  0.06657000  0.63388000  0.51192000  1
  C  C6  1  0.11777000  0.16262000  0.50655000  1
  C  C7  1  0.14270000  0.24343000  0.51469000  1
  C  C8  1  0.34160000  0.57122000  0.51303000  1
  C  C9  1  0.29139000  0.56834000  0.51881000  1
  C  C10  1  0.26636000  0.48732000  0.52114000  1
  C  C11  1  0.21609000  0.48459000  0.52410000  1
  C  C12  1  0.11736000  0.32154000  0.51690000  1
  C  C13  1  0.14226000  0.40249000  0.52186000  1
  C  C14  1  0.11685000  0.63684000  0.51633000  1
  C  C15  1  0.14201000  0.55868000  0.52179000  1
  C  C16  1  0.00622000  0.99416000  0.26139000  1
  C  C17  1  0.97155000  0.95654000  0.22012000  1
  C  C18  1  0.41479000  0.49553000  0.49953000  1
  C  C19  1  0.97081000  0.95698000  0.14000000  1
  C  C20  1  0.00494000  0.99528000  0.09876000  1
  C  C21  1  0.03971000  0.03301000  0.13872000  1
  C  C22  1  0.04024000  0.03235000  0.21885000  1
  C  C23  1  0.00435000  0.99579000  0.02451000  1
  C  C24  1  0.00380000  0.99626000  0.95647000  1
  C  C25  1  0.00322000  0.99678000  0.88222000  1
  C  C26  1  0.96846000  0.95902000  0.84225000  1
  C  C27  1  0.96793000  0.95970000  0.76212000  1
  C  C28  1  0.00193000  0.99792000  0.71959000  1
  C  C29  1  0.03660000  0.03556000  0.76087000  1
  C  C30  1  0.03734000  0.03511000  0.84099000  1
  C  C31  1  0.99879000  0.00145000  0.34217000  1
  C  C32  1  0.50016000  0.49994000  0.35159000  1
  C  C33  1  0.95734000  0.13271000  0.49321000  1
  C  C34  1  0.00129000  0.99850000  0.63896000  1
  C  C35  1  0.04272000  0.86730000  0.48766000  1
  C  C36  1  0.52817000  0.24183000  0.45135000  1
  C  C37  1  0.52825000  0.15770000  0.45120000  1
  C  C38  1  0.50001000  0.11369000  0.50001000  1
  C  C39  1  0.47177000  0.15494000  0.54882000  1
  C  C40  1  0.47186000  0.23908000  0.54868000  1
  C  C41  1  0.50001000  0.03572000  0.50000000  1
  C  C42  1  0.50001000  0.96428000  0.49999000  1
  C  C43  1  0.50000000  0.88631000  0.49999000  1
  C  C44  1  0.52823000  0.84505000  0.45117000  1
  C  C45  1  0.52815000  0.76092000  0.45131000  1
  C  C46  1  0.47185000  0.75818000  0.54868000  1
  C  C47  1  0.47177000  0.84231000  0.54882000  1
  C  C48  1  0.50011000  0.49995000  0.27095000  1
  C  C49  1  0.50013000  0.57246000  0.22910000  1
  C  C50  1  0.50008000  0.57269000  0.14897000  1
  C  C51  1  0.50003000  0.49999000  0.10830000  1
  C  C52  1  0.50001000  0.42727000  0.14884000  1
  C  C53  1  0.50006000  0.42747000  0.22897000  1
  C  C54  1  0.49999000  0.50001000  0.03403000  1
  C  C55  1  0.49996000  0.50003000  0.96599000  1
  C  C56  1  0.49992000  0.50003000  0.89173000  1
  C  C57  1  0.49992000  0.57275000  0.85118000  1
  C  C58  1  0.49988000  0.57255000  0.77104000  1
  C  C59  1  0.49984000  0.50006000  0.72908000  1
  C  C60  1  0.49984000  0.42755000  0.77093000  1
  C  C61  1  0.49988000  0.42733000  0.85106000  1
  C  C62  1  0.63315000  0.50710000  0.51105000  1
  C  C63  1  0.93335000  0.20723000  0.50539000  1
  C  C64  1  0.65817000  0.58816000  0.51467000  1
  C  C65  1  0.58522000  0.50448000  0.50024000  1
  C  C66  1  0.70836000  0.59101000  0.52110000  1
  C  C67  1  0.95775000  0.76198000  0.50933000  1
  C  C68  1  0.93279000  0.68120000  0.51719000  1
  C  C69  1  0.88306000  0.20416000  0.51048000  1
  C  C70  1  0.85791000  0.28222000  0.51832000  1
  C  C71  1  0.95851000  0.28815000  0.50920000  1
  C  C72  1  0.93336000  0.36617000  0.51703000  1
  C  C73  1  0.88218000  0.83741000  0.51075000  1
  C  C74  1  0.85721000  0.75662000  0.51863000  1
  C  C75  1  0.65833000  0.42881000  0.51469000  1
  C  C76  1  0.70850000  0.43170000  0.52109000  1
  C  C77  1  0.73353000  0.51273000  0.52369000  1
  C  C78  1  0.78378000  0.51547000  0.52727000  1
  C  C79  1  0.88253000  0.67851000  0.52120000  1
  C  C80  1  0.85761000  0.59757000  0.52590000  1
  C  C81  1  0.88305000  0.36321000  0.52082000  1
  C  C82  1  0.85786000  0.44139000  0.52592000  1
  C  C83  1  0.49981000  0.50007000  0.64843000  1
  C  C84  1  0.36680000  0.49293000  0.50975000  1
  C  C85  1  0.06665000  0.79280000  0.50019000  1
  C  C86  1  0.34176000  0.41187000  0.51310000  1
  C  C87  1  0.29154000  0.40904000  0.51891000  1
  C  C88  1  0.04222000  0.23806000  0.50415000  1
  N  N1  1  0.19157000  0.40516000  0.52434000  1
  N  N2  1  0.11746000  0.47924000  0.52201000  1
  N  N3  1  0.19135000  0.56135000  0.52414000  1
  N  N4  1  0.55896000  0.28639000  0.39814000  1
  N  N5  1  0.44107000  0.28064000  0.60191000  1
  N  N6  1  0.44107000  0.10995000  0.60188000  1
  N  N7  1  0.55895000  0.11571000  0.39813000  1
  N  N8  1  0.55892000  0.89004000  0.39808000  1
  N  N9  1  0.44108000  0.88431000  0.60190000  1
  N  N10  1  0.44107000  0.71362000  0.60192000  1
  N  N11  1  0.55892000  0.71935000  0.39808000  1
  N  N12  1  0.50019000  0.65173000  0.27020000  1
  N  N13  1  0.50004000  0.34818000  0.26992000  1
  N  N14  1  0.49995000  0.34824000  0.10734000  1
  N  N15  1  0.50010000  0.65174000  0.10762000  1
  N  N16  1  0.49997000  0.65179000  0.89267000  1
  N  N17  1  0.49987000  0.34828000  0.89242000  1
  N  N18  1  0.49979000  0.34829000  0.72984000  1
  N  N19  1  0.49989000  0.65182000  0.73009000  1
  N  N20  1  0.93431000  0.91480000  0.26183000  1
  N  N21  1  0.07812000  0.07352000  0.25917000  1
  N  N22  1  0.07683000  0.07463000  0.09661000  1
  N  N23  1  0.93303000  0.91593000  0.09927000  1
  N  N24  1  0.93135000  0.91738000  0.88435000  1
  N  N25  1  0.07511000  0.07617000  0.88172000  1
  N  N26  1  0.07383000  0.07732000  0.71916000  1
  N  N27  1  0.93005000  0.91851000  0.72179000  1
  N  N28  1  0.50001000  0.28445000  0.50002000  1
  N  N29  1  0.50000000  0.71555000  0.50000000  1
  N  N30  1  0.93246000  0.84014000  0.50562000  1
  N  N31  1  0.80829000  0.59490000  0.52777000  1
  N  N32  1  0.88241000  0.52082000  0.52640000  1
  N  N33  1  0.80852000  0.43871000  0.52766000  1
  N  N34  1  0.06752000  0.15989000  0.50081000  1
  O  O1  1  0.50032000  0.58113000  0.39025000  1
  O  O2  1  0.50010000  0.41873000  0.39027000  1
  O  O3  1  0.43701000  0.57795000  0.49969000  1
  O  O4  1  0.43698000  0.41555000  0.49988000  1
  O  O5  1  0.96058000  0.95888000  0.38146000  1
  O  O6  1  0.03758000  0.04358000  0.38021000  1
  O  O7  1  0.00695000  0.14065000  0.49188000  1
  O  O8  1  0.93004000  0.05565000  0.49325000  1
  O  O9  1  0.03945000  0.04125000  0.59967000  1
  O  O10  1  0.96252000  0.95629000  0.60092000  1
  O  O11  1  0.99311000  0.85935000  0.48910000  1
  O  O12  1  0.07003000  0.94436000  0.48801000  1
  O  O13  1  0.56300000  0.42205000  0.50018000  1
  O  O14  1  0.56302000  0.58445000  0.50027000  1
  O  O15  1  0.49977000  0.41887000  0.60978000  1
  O  O16  1  0.49982000  0.58127000  0.60975000  1
