# generated using pymatgen
data_V(C2O)5
_symmetry_space_group_name_H-M   'P 1'
_cell_length_a   11.31030000
_cell_length_b   24.31660000
_cell_length_c   6.81800000
_cell_angle_alpha   98.74180000
_cell_angle_beta   108.20900000
_cell_angle_gamma   62.74750000
_symmetry_Int_Tables_number   1
_chemical_formula_structural   V(C2O)5
_chemical_formula_sum   'V4 C40 O20'
_cell_volume   1583.42926051
_cell_formula_units_Z   4
loop_
 _symmetry_equiv_pos_site_id
 _symmetry_equiv_pos_as_xyz
  1  'x, y, z'
loop_
 _atom_site_type_symbol
 _atom_site_label
 _atom_site_symmetry_multiplicity
 _atom_site_fract_x
 _atom_site_fract_y
 _atom_site_fract_z
 _atom_site_occupancy
  V  V1  1  0.49490000  0.49601000  0.01103000  1
  V  V2  1  0.50678000  0.50531000  0.52223000  1
  V  V3  1  0.99233000  0.00068000  0.00188000  1
  V  V4  1  0.01532000  0.99617000  0.51226000  1
  C  C1  1  0.40250000  0.61378000  0.24774000  1
  C  C2  1  0.59912000  0.38761000  0.72706000  1
  C  C3  1  0.26674000  0.50747000  0.61973000  1
  C  C4  1  0.73493000  0.49385000  0.35506000  1
  C  C5  1  0.22905000  0.00119000  0.34778000  1
  C  C6  1  0.77275000  0.00019000  0.60708000  1
  C  C7  1  0.88209000  0.11642000  0.71672000  1
  C  C8  1  0.11957000  0.88496000  0.23808000  1
  C  C9  1  0.86468000  0.56019000  0.49385000  1
  C  C10  1  0.00434000  0.56384000  0.56235000  1
  C  C11  1  0.12981000  0.50396000  0.55159000  1
  C  C12  1  0.11723000  0.46053000  0.67167000  1
  C  C13  1  0.97768000  0.45675000  0.60150000  1
  C  C14  1  0.87051000  0.49732000  0.42254000  1
  C  C15  1  0.94857000  0.47947000  0.26163000  1
  C  C16  1  0.08869000  0.48279000  0.33148000  1
  C  C17  1  0.18002000  0.71168000  0.24321000  1
  C  C18  1  0.10549000  0.78293000  0.23955000  1
  C  C19  1  0.19242000  0.81514000  0.24056000  1
  C  C20  1  0.31559000  0.78665000  0.42428000  1
  C  C21  1  0.39032000  0.71538000  0.42635000  1
  C  C22  1  0.33038000  0.68291000  0.24528000  1
  C  C23  1  0.32570000  0.71309000  0.06328000  1
  C  C24  1  0.25185000  0.78440000  0.06120000  1
  C  C25  1  0.82161000  0.28971000  0.84705000  1
  C  C26  1  0.89616000  0.21845000  0.84341000  1
  C  C27  1  0.80924000  0.18624000  0.71938000  1
  C  C28  1  0.68607000  0.21473000  0.80629000  1
  C  C29  1  0.61132000  0.28600000  0.80815000  1
  C  C30  1  0.67126000  0.31847000  0.72443000  1
  C  C31  1  0.67594000  0.28830000  0.51456000  1
  C  C32  1  0.74980000  0.21698000  0.51173000  1
  C  C33  1  0.34527000  0.07245000  0.49868000  1
  C  C34  1  0.47983000  0.08058000  0.56960000  1
  C  C35  1  0.60961000  0.02392000  0.55111000  1
  C  C36  1  0.60672000  0.97581000  0.66346000  1
  C  C37  1  0.47225000  0.96757000  0.59085000  1
  C  C38  1  0.35971000  0.00899000  0.41759000  1
  C  C39  1  0.43452000  0.99713000  0.25568000  1
  C  C40  1  0.56960000  0.00490000  0.32790000  1
  O  O1  1  0.67771000  0.49265000  0.16165000  1
  O  O2  1  0.42159000  0.58504000  0.07896000  1
  O  O3  1  0.42830000  0.58948000  0.41457000  1
  O  O4  1  0.32401000  0.50862000  0.48695000  1
  O  O5  1  0.57337000  0.41184000  0.89348000  1
  O  O6  1  0.31872000  0.50367000  0.81125000  1
  O  O7  1  0.68300000  0.49760000  0.49680000  1
  O  O8  1  0.58008000  0.41628000  0.56964000  1
  O  O9  1  0.53287000  0.52573000  0.77196000  1
  O  O10  1  0.46881000  0.47559000  0.21158000  1
  O  O11  1  0.08647000  0.91211000  0.06959000  1
  O  O12  1  0.17082000  0.00166000  0.15411000  1
  O  O13  1  0.18115000  0.99992000  0.48868000  1
  O  O14  1  0.91951000  0.08592000  0.55962000  1
  O  O15  1  0.81601000  0.00488000  0.79870000  1
  O  O16  1  0.89978000  0.09392000  0.88269000  1
  O  O17  1  0.09727000  0.91088000  0.40463000  1
  O  O18  1  0.83527000  0.99638000  0.47515000  1
  O  O19  1  0.07761000  0.97733000  0.76192000  1
  O  O20  1  0.92394000  0.02414000  0.20159000  1
