# generated using pymatgen
data_CuH9C15(N5O)2
_symmetry_space_group_name_H-M   'P 1'
_cell_length_a   20.45110000
_cell_length_b   19.68640000
_cell_length_c   7.05280000
_cell_angle_alpha   82.55880000
_cell_angle_beta   107.28300000
_cell_angle_gamma   128.10700000
_symmetry_Int_Tables_number   1
_chemical_formula_structural   CuH9C15(N5O)2
_chemical_formula_sum   'Cu2 H18 C30 N20 O4'
_cell_volume   2127.93681765
_cell_formula_units_Z   2
loop_
 _symmetry_equiv_pos_site_id
 _symmetry_equiv_pos_as_xyz
  1  'x, y, z'
loop_
 _atom_site_type_symbol
 _atom_site_label
 _atom_site_symmetry_multiplicity
 _atom_site_fract_x
 _atom_site_fract_y
 _atom_site_fract_z
 _atom_site_occupancy
  Cu  Cu1  1  0.50000000  0.50000000  0.00000000  1
  Cu  Cu2  1  0.50000000  0.50000000  0.50000000  1
  H  H1  1  0.49979000  0.22682000  0.65443000  1
  H  H2  1  0.49991000  0.10063000  0.69876000  1
  H  H3  1  0.49991000  0.10063000  0.08947000  1
  H  H4  1  0.50009000  0.89937000  0.91053000  1
  H  H5  1  0.50009000  0.89937000  0.30124000  1
  H  H6  1  0.50021000  0.77318000  0.34558000  1
  H  H7  1  0.94528000  0.94533000  0.18262000  1
  H  H8  1  0.05472000  0.05467000  0.81738000  1
  H  H9  1  0.19163000  0.19148000  0.30792000  1
  H  H10  1  0.05472000  0.05467000  0.23736000  1
  H  H11  1  0.80836000  0.80852000  0.69208000  1
  H  H12  1  0.94528000  0.94533000  0.76264000  1
  H  H13  1  0.45729000  0.25688000  0.92224000  1
  H  H14  1  0.54225000  0.24603000  0.90216000  1
  H  H15  1  0.45781000  0.69117000  0.02341000  1
  H  H16  1  0.54265000  0.80592000  0.15219000  1
  H  H17  1  0.90214000  0.85683000  0.98932000  1
  H  H18  1  0.14315000  0.09765000  0.06615000  1
  C  C1  1  0.71152000  0.71175000  0.35568000  1
  C  C2  1  0.49971000  0.31316000  0.31730000  1
  C  C3  1  0.28848000  0.28824000  0.64432000  1
  C  C4  1  0.50028000  0.68684000  0.68270000  1
  C  C5  1  0.49978000  0.23674000  0.34497000  1
  C  C6  1  0.49982000  0.19981000  0.53012000  1
  C  C7  1  0.49988000  0.12805000  0.55566000  1
  C  C8  1  0.49992000  0.09174000  0.39684000  1
  C  C9  1  0.49988000  0.12814000  0.21267000  1
  C  C10  1  0.49982000  0.19988000  0.18648000  1
  C  C11  1  0.50012000  0.87186000  0.78734000  1
  C  C12  1  0.50008000  0.90826000  0.60316000  1
  C  C13  1  0.50012000  0.87195000  0.44434000  1
  C  C14  1  0.50018000  0.80019000  0.46988000  1
  C  C15  1  0.50021000  0.76326000  0.65503000  1
  C  C16  1  0.50018000  0.80012000  0.81352000  1
  C  C17  1  0.79528000  0.79544000  0.39758000  1
  C  C18  1  0.20472000  0.20456000  0.60242000  1
  C  C19  1  0.83625000  0.83638000  0.24802000  1
  C  C20  1  0.91773000  0.91780000  0.28720000  1
  C  C21  1  0.16375000  0.16362000  0.75198000  1
  C  C22  1  0.08226000  0.08220000  0.71280000  1
  C  C23  1  0.16375000  0.16362000  0.41186000  1
  C  C24  1  0.08226000  0.08220000  0.36951000  1
  C  C25  1  0.83625000  0.83638000  0.58814000  1
  C  C26  1  0.91773000  0.91780000  0.63049000  1
  C  C27  1  0.95895000  0.95898000  0.47946000  1
  C  C28  1  0.04105000  0.04102000  0.52054000  1
  C  C29  1  0.79215000  0.79232000  0.03952000  1
  C  C30  1  0.20785000  0.20768000  0.96048000  1
  N  N1  1  0.59721000  0.59657000  0.20504000  1
  N  N2  1  0.66862000  0.66889000  0.17712000  1
  N  N3  1  0.50071000  0.41498000  0.37515000  1
  N  N4  1  0.49968000  0.35096000  0.46070000  1
  N  N5  1  0.40279000  0.40343000  0.60736000  1
  N  N6  1  0.33137000  0.33111000  0.50868000  1
  N  N7  1  0.49928000  0.58502000  0.81245000  1
  N  N8  1  0.50032000  0.64904000  0.85350000  1
  N  N9  1  0.40279000  0.40343000  0.79496000  1
  N  N10  1  0.33137000  0.33111000  0.82288000  1
  N  N11  1  0.49928000  0.58502000  0.62485000  1
  N  N12  1  0.50032000  0.64904000  0.53930000  1
  N  N13  1  0.59721000  0.59657000  0.39264000  1
  N  N14  1  0.66862000  0.66889000  0.49132000  1
  N  N15  1  0.50071000  0.41498000  0.18755000  1
  N  N16  1  0.49968000  0.35096000  0.14650000  1
  N  N17  1  0.49998000  0.01822000  0.41840000  1
  N  N18  1  0.50001000  0.98177000  0.58160000  1
  N  N19  1  0.49978000  0.23759000  0.98592000  1
  N  N20  1  0.50021000  0.76241000  0.01408000  1
  O  O1  1  0.83976000  0.80657000  0.92425000  1
  O  O2  1  0.71261000  0.74193000  0.98019000  1
  O  O3  1  0.19349000  0.16001000  0.11647000  1
  O  O4  1  0.25836000  0.28725000  0.98425000  1
