# generated using pymatgen
data_ZnH4C14(BrO)4
_symmetry_space_group_name_H-M   'P 1'
_cell_length_a   13.19050000
_cell_length_b   37.73320000
_cell_length_c   10.00000000
_cell_angle_alpha   90.00000000
_cell_angle_beta   90.00000000
_cell_angle_gamma   110.26600000
_symmetry_Int_Tables_number   1
_chemical_formula_structural   ZnH4C14(BrO)4
_chemical_formula_sum   'Zn4 H16 C56 Br16 O16'
_cell_volume   4669.08255376
_cell_formula_units_Z   4
loop_
 _symmetry_equiv_pos_site_id
 _symmetry_equiv_pos_as_xyz
  1  'x, y, z'
loop_
 _atom_site_type_symbol
 _atom_site_label
 _atom_site_symmetry_multiplicity
 _atom_site_fract_x
 _atom_site_fract_y
 _atom_site_fract_z
 _atom_site_occupancy
  Zn  Zn1  1  0.50004000  0.50011000  0.66577000  1
  Zn  Zn2  1  0.49999000  0.49989000  0.33423000  1
  Zn  Zn3  1  0.99686000  0.99991000  0.24343000  1
  Zn  Zn4  1  0.99725000  0.00013000  0.57496000  1
  H  H1  1  0.74869000  0.74993000  0.30207000  1
  H  H2  1  0.74885000  0.75009000  0.60719000  1
  H  H3  1  0.24828000  0.25013000  0.30205000  1
  H  H4  1  0.24762000  0.24990000  0.60717000  1
  H  H5  1  0.14556000  0.50021000  0.70249000  1
  H  H6  1  0.21674000  0.49989000  0.28661000  1
  H  H7  1  0.03201000  0.49977000  0.22353000  1
  H  H8  1  0.85444000  0.49977000  0.29752000  1
  H  H9  1  0.78325000  0.50007000  0.71338000  1
  H  H10  1  0.96800000  0.50020000  0.77648000  1
  H  H11  1  0.64162000  0.99924000  0.20670000  1
  H  H12  1  0.71337000  0.99950000  0.62258000  1
  H  H13  1  0.52906000  0.99979000  0.68566000  1
  H  H14  1  0.35164000  0.99995000  0.61167000  1
  H  H15  1  0.27988000  0.99969000  0.19581000  1
  H  H16  1  0.46421000  0.99940000  0.13271000  1
  C  C1  1  0.30240000  0.50011000  0.49991000  1
  C  C2  1  0.57350000  0.57369000  0.49974000  1
  C  C3  1  0.69761000  0.49986000  0.50010000  1
  C  C4  1  0.42619000  0.42632000  0.50026000  1
  C  C5  1  0.79939000  0.00008000  0.40929000  1
  C  C6  1  0.92404000  0.92633000  0.40948000  1
  C  C7  1  0.19475000  0.99998000  0.40910000  1
  C  C8  1  0.06971000  0.07370000  0.40891000  1
  C  C9  1  0.88210000  0.88414000  0.40941000  1
  C  C10  1  0.86183000  0.86375000  0.53029000  1
  C  C11  1  0.82249000  0.82417000  0.53040000  1
  C  C12  1  0.80227000  0.80383000  0.40905000  1
  C  C13  1  0.82260000  0.82428000  0.28847000  1
  C  C14  1  0.86190000  0.86381000  0.28845000  1
  C  C15  1  0.76039000  0.76170000  0.40149000  1
  C  C16  1  0.73715000  0.73832000  0.50778000  1
  C  C17  1  0.67494000  0.67574000  0.62078000  1
  C  C18  1  0.69527000  0.69619000  0.50020000  1
  C  C19  1  0.67505000  0.67584000  0.37885000  1
  C  C20  1  0.63571000  0.63627000  0.37894000  1
  C  C21  1  0.61544000  0.61588000  0.49982000  1
  C  C22  1  0.63564000  0.63620000  0.62078000  1
  C  C23  1  0.11238000  0.11589000  0.40898000  1
  C  C24  1  0.13280000  0.13625000  0.52992000  1
  C  C25  1  0.17282000  0.17583000  0.53015000  1
  C  C26  1  0.19360000  0.19620000  0.40886000  1
  C  C27  1  0.17312000  0.17578000  0.28822000  1
  C  C28  1  0.13314000  0.13625000  0.28808000  1
  C  C29  1  0.23622000  0.23833000  0.40143000  1
  C  C30  1  0.25969000  0.26169000  0.50779000  1
  C  C31  1  0.32279000  0.32424000  0.62098000  1
  C  C32  1  0.30230000  0.30382000  0.50035000  1
  C  C33  1  0.32308000  0.32419000  0.37905000  1
  C  C34  1  0.36310000  0.36376000  0.37927000  1
  C  C35  1  0.38352000  0.38413000  0.50021000  1
  C  C36  1  0.36277000  0.36378000  0.62111000  1
  C  C37  1  0.12174000  0.50012000  0.59784000  1
  C  C38  1  0.15939000  0.49994000  0.36377000  1
  C  C39  1  0.05643000  0.49987000  0.32763000  1
  C  C40  1  0.98396000  0.49992000  0.43234000  1
  C  C41  1  0.87826000  0.49985000  0.40216000  1
  C  C42  1  0.84061000  0.50003000  0.63623000  1
  C  C43  1  0.94358000  0.50011000  0.67237000  1
  C  C44  1  0.01604000  0.50005000  0.56766000  1
  C  C45  1  0.19011000  0.50006000  0.49994000  1
  C  C46  1  0.80989000  0.49991000  0.50006000  1
  C  C47  1  0.61800000  0.99935000  0.31135000  1
  C  C48  1  0.65598000  0.99950000  0.54541000  1
  C  C49  1  0.55325000  0.99967000  0.58155000  1
  C  C50  1  0.48073000  0.99967000  0.47685000  1
  C  C51  1  0.37526000  0.99983000  0.50703000  1
  C  C52  1  0.33728000  0.99968000  0.27296000  1
  C  C53  1  0.44001000  0.99952000  0.23682000  1
  C  C54  1  0.51253000  0.99951000  0.34153000  1
  C  C55  1  0.68642000  0.99935000  0.40925000  1
  C  C56  1  0.30684000  0.99984000  0.40913000  1
  Br  Br1  1  0.89032000  0.89241000  0.10706000  1
  Br  Br2  1  0.79460000  0.79611000  0.10625000  1
  Br  Br3  1  0.89026000  0.89235000  0.71167000  1
  Br  Br4  1  0.79562000  0.79714000  0.71475000  1
  Br  Br5  1  0.70192000  0.70288000  0.19449000  1
  Br  Br6  1  0.60728000  0.60768000  0.19756000  1
  Br  Br7  1  0.70294000  0.70390000  0.80301000  1
  Br  Br8  1  0.60722000  0.60760000  0.80217000  1
  Br  Br9  1  0.10452000  0.10770000  0.10661000  1
  Br  Br10  1  0.20190000  0.20399000  0.10608000  1
  Br  Br11  1  0.10358000  0.10761000  0.71121000  1
  Br  Br12  1  0.19986000  0.20282000  0.71458000  1
  Br  Br13  1  0.29604000  0.29720000  0.19461000  1
  Br  Br14  1  0.39231000  0.39240000  0.19797000  1
  Br  Br15  1  0.29401000  0.29604000  0.80313000  1
  Br  Br16  1  0.39139000  0.39233000  0.80258000  1
  O  O1  1  0.35407000  0.50035000  0.63579000  1
  O  O2  1  0.35386000  0.49998000  0.36398000  1
  O  O3  1  0.55431000  0.55438000  0.36380000  1
  O  O4  1  0.55451000  0.55458000  0.63562000  1
  O  O5  1  0.64604000  0.49973000  0.36421000  1
  O  O6  1  0.64610000  0.49995000  0.63602000  1
  O  O7  1  0.44552000  0.44562000  0.63620000  1
  O  O8  1  0.44570000  0.44542000  0.36438000  1
  O  O9  1  0.85054000  0.99980000  0.27341000  1
  O  O10  1  0.85107000  0.00017000  0.54522000  1
  O  O11  1  0.94323000  0.94564000  0.54541000  1
  O  O12  1  0.94303000  0.94543000  0.27359000  1
  O  O13  1  0.14349000  0.00017000  0.54499000  1
  O  O14  1  0.14310000  0.99993000  0.27318000  1
  O  O15  1  0.05066000  0.05440000  0.27298000  1
  O  O16  1  0.05125000  0.05460000  0.54480000  1
