# generated using pymatgen
data_CuH11C20(NO4)3
_symmetry_space_group_name_H-M   'P 1'
_cell_length_a   15.60630000
_cell_length_b   17.27650000
_cell_length_c   10.54320000
_cell_angle_alpha   89.92270000
_cell_angle_beta   87.46100000
_cell_angle_gamma   95.77320000
_symmetry_Int_Tables_number   1
_chemical_formula_structural   CuH11C20(NO4)3
_chemical_formula_sum   'Cu2 H22 C40 N6 O24'
_cell_volume   2825.43806960
_cell_formula_units_Z   2
loop_
 _symmetry_equiv_pos_site_id
 _symmetry_equiv_pos_as_xyz
  1  'x, y, z'
loop_
 _atom_site_type_symbol
 _atom_site_label
 _atom_site_symmetry_multiplicity
 _atom_site_fract_x
 _atom_site_fract_y
 _atom_site_fract_z
 _atom_site_occupancy
  Cu  Cu1  1  0.41809000  0.49671000  0.50538000  1
  Cu  Cu2  1  0.58191000  0.50328000  0.49463000  1
  H  H1  1  0.28945000  0.58004000  0.36904000  1
  H  H2  1  0.13078000  0.57328000  0.38009000  1
  H  H3  1  0.88030000  0.60342000  0.33078000  1
  H  H4  1  0.86921000  0.42671000  0.61992000  1
  H  H5  1  0.62355000  0.26178000  0.49230000  1
  H  H6  1  0.61394000  0.11850000  0.49286000  1
  H  H7  1  0.66264000  0.89256000  0.48970000  1
  H  H8  1  0.38606000  0.88149000  0.50716000  1
  H  H9  1  0.60232000  0.40607000  0.20901000  1
  H  H10  1  0.60230000  0.40598000  0.77810000  1
  H  H11  1  0.36178000  0.39836000  0.66630000  1
  H  H12  1  0.03528000  0.38610000  0.68637000  1
  H  H13  1  0.63821000  0.60163000  0.33371000  1
  H  H14  1  0.62625000  0.40893000  0.64901000  1
  H  H15  1  0.33869000  0.32599000  0.51031000  1
  H  H16  1  0.32147000  0.03116000  0.51129000  1
  H  H17  1  0.66131000  0.67400000  0.48971000  1
  H  H18  1  0.35971000  0.66205000  0.50875000  1
  H  H19  1  0.39234000  0.66817000  0.01553000  1
  H  H20  1  0.46828000  0.59849000  0.27493000  1
  H  H21  1  0.63518000  0.30662000  0.27272000  1
  H  H22  1  0.71223000  0.23578000  0.98629000  1
  C  C1  1  0.49999000  0.49994000  0.73789000  1
  C  C2  1  0.50001000  0.50005000  0.26213000  1
  C  C3  1  0.50914000  0.64576000  0.49931000  1
  C  C4  1  0.49086000  0.35423000  0.50071000  1
  C  C5  1  0.25306000  0.53979000  0.43489000  1
  C  C6  1  0.16283000  0.53604000  0.44103000  1
  C  C7  1  0.11406000  0.48434000  0.52563000  1
  C  C8  1  0.15670000  0.43658000  0.60377000  1
  C  C9  1  0.24689000  0.44013000  0.59795000  1
  C  C10  1  0.84329000  0.56341000  0.39624000  1
  C  C11  1  0.88594000  0.51566000  0.47438000  1
  C  C12  1  0.83717000  0.46395000  0.55899000  1
  C  C13  1  0.74694000  0.46020000  0.56512000  1
  C  C14  1  0.75311000  0.55986000  0.40206000  1
  C  C15  1  0.48542000  0.26748000  0.50102000  1
  C  C16  1  0.56076000  0.22869000  0.49625000  1
  C  C17  1  0.55544000  0.14721000  0.49656000  1
  C  C18  1  0.47479000  0.10287000  0.50164000  1
  C  C19  1  0.39976000  0.14108000  0.50639000  1
  C  C20  1  0.40478000  0.22251000  0.50610000  1
  C  C21  1  0.60024000  0.85891000  0.49363000  1
  C  C22  1  0.52521000  0.89712000  0.49838000  1
  C  C23  1  0.44456000  0.85278000  0.50346000  1
  C  C24  1  0.43924000  0.77130000  0.50376000  1
  C  C25  1  0.51458000  0.73251000  0.49899000  1
  C  C26  1  0.59522000  0.77748000  0.49392000  1
  C  C27  1  0.50001000  0.50002000  0.12372000  1
  C  C28  1  0.55246000  0.45183000  0.05549000  1
  C  C29  1  0.44755000  0.54819000  0.06211000  1
  C  C30  1  0.60370000  0.40479000  0.12085000  1
  C  C31  1  0.65676000  0.35604000  0.05651000  1
  C  C32  1  0.50000000  0.49997000  0.87629000  1
  C  C33  1  0.44754000  0.54816000  0.94452000  1
  C  C34  1  0.55245000  0.45181000  0.93791000  1
  C  C35  1  0.60369000  0.40473000  0.86608000  1
  C  C36  1  0.65675000  0.35601000  0.92373000  1
  C  C37  1  0.39166000  0.59947000  0.87433000  1
  C  C38  1  0.39167000  0.59952000  0.13935000  1
  C  C39  1  0.71234000  0.30501000  0.12782000  1
  C  C40  1  0.71233000  0.30495000  0.84541000  1
  N  N1  1  0.29635000  0.49183000  0.51336000  1
  N  N2  1  0.02155000  0.47916000  0.53409000  1
  N  N3  1  0.97845000  0.52083000  0.46592000  1
  N  N4  1  0.70365000  0.50816000  0.48665000  1
  N  N5  1  0.46725000  0.01932000  0.50208000  1
  N  N6  1  0.53275000  0.98067000  0.49793000  1
  O  O1  1  0.42361000  0.49699000  0.66993000  1
  O  O2  1  0.42363000  0.49710000  0.33976000  1
  O  O3  1  0.42996000  0.59821000  0.50429000  1
  O  O4  1  0.41728000  0.39589000  0.50541000  1
  O  O5  1  0.57004000  0.40178000  0.49568000  1
  O  O6  1  0.58272000  0.60410000  0.49465000  1
  O  O7  1  0.57639000  0.50311000  0.32994000  1
  O  O8  1  0.57637000  0.50286000  0.66025000  1
  O  O9  1  0.29089000  0.38783000  0.68354000  1
  O  O10  1  0.10506000  0.38074000  0.69512000  1
  O  O11  1  0.70911000  0.61216000  0.31648000  1
  O  O12  1  0.69619000  0.40407000  0.65695000  1
  O  O13  1  0.32263000  0.26192000  0.51130000  1
  O  O14  1  0.31267000  0.09412000  0.51187000  1
  O  O15  1  0.67738000  0.73807000  0.48872000  1
  O  O16  1  0.35168000  0.72515000  0.50928000  1
  O  O17  1  0.37382000  0.66674000  0.92448000  1
  O  O18  1  0.36503000  0.57948000  0.76991000  1
  O  O19  1  0.41747000  0.62674000  0.25051000  1
  O  O20  1  0.32392000  0.61732000  0.09720000  1
  O  O21  1  0.68610000  0.27826000  0.24259000  1
  O  O22  1  0.78028000  0.28702000  0.07774000  1
  O  O23  1  0.73038000  0.23751000  0.89266000  1
  O  O24  1  0.73853000  0.32528000  0.73737000  1
