data_DB1-Zn2O8-ADC_A-AZO_A_No740_repeat
_audit_creation_date              2024-02-24
_audit_creation_method            'Materials Studio'
_symmetry_space_group_name_H-M    'P1'
_symmetry_Int_Tables_number       1
_symmetry_cell_setting            triclinic
loop_
_symmetry_equiv_pos_as_xyz
  x,y,z
_cell_length_a                    35.3975
_cell_length_b                    55.7117
_cell_length_c                    10.0000
_cell_angle_alpha                 90.0000
_cell_angle_beta                  90.0000
_cell_angle_gamma                 71.6707
loop_
_atom_site_label
_atom_site_type_symbol
_atom_site_fract_x
_atom_site_fract_y
_atom_site_fract_z
_atom_site_U_iso_or_equiv
_atom_site_adp_type
_atom_site_occupancy
C1     C     0.11547   0.50085   0.40897   0.00000  Uiso   1.00
C2     C     0.13582   0.50087   0.52992   0.00000  Uiso   1.00
C3     C     0.17545   0.50076   0.53014   0.00000  Uiso   1.00
C4     C     0.19589   0.50062   0.40886   0.00000  Uiso   1.00
C5     C     0.17548   0.50060   0.28822   0.00000  Uiso   1.00
C6     C     0.13589   0.50071   0.28808   0.00000  Uiso   1.00
C7     C     0.23808   0.50050   0.40143   0.00000  Uiso   1.00
C8     C     0.26144   0.50050   0.50779   0.00000  Uiso   1.00
C9     C     0.32404   0.50040   0.62098   0.00000  Uiso   1.00
C10    C     0.30363   0.50038   0.50034   0.00000  Uiso   1.00
C11    C     0.32407   0.50024   0.37905   0.00000  Uiso   1.00
C12    C     0.36370   0.50013   0.37927   0.00000  Uiso   1.00
C13    C     0.38405   0.50015   0.50021   0.00000  Uiso   1.00
C14    C     0.36363   0.50029   0.62111   0.00000  Uiso   1.00
C15    C     0.62870   0.24287   0.41116   0.00000  Uiso   1.00
C16    C     0.62195   0.25654   0.53198   0.00000  Uiso   1.00
C17    C     0.42630   0.50003   0.50026   0.00000  Uiso   1.00
C18    C     0.60866   0.28303   0.53195   0.00000  Uiso   1.00
C19    C     0.60173   0.29663   0.41054   0.00000  Uiso   1.00
C20    C     0.60851   0.28292   0.29003   0.00000  Uiso   1.00
C21    C     0.62179   0.25646   0.29014   0.00000  Uiso   1.00
C22    C     0.58758   0.32482   0.40285   0.00000  Uiso   1.00
C23    C     0.57981   0.34049   0.50906   0.00000  Uiso   1.00
C24    C     0.55888   0.38240   0.62186   0.00000  Uiso   1.00
C25    C     0.56566   0.36869   0.50136   0.00000  Uiso   1.00
C26    C     0.55874   0.38228   0.37994   0.00000  Uiso   1.00
C27    C     0.54545   0.40877   0.37991   0.00000  Uiso   1.00
C28    C     0.53869   0.42244   0.50072   0.00000  Uiso   1.00
C29    C     0.54560   0.40886   0.62175   0.00000  Uiso   1.00
C30    C     0.37296   0.75237   0.40047   0.00000  Uiso   1.00
C31    C     0.37998   0.73877   0.52170   0.00000  Uiso   1.00
C32    C     0.39334   0.71226   0.52155   0.00000  Uiso   1.00
C33    C     0.39995   0.69882   0.40035   0.00000  Uiso   1.00
C34    C     0.39303   0.71224   0.27967   0.00000  Uiso   1.00
C35    C     0.37967   0.73873   0.27936   0.00000  Uiso   1.00
C36    C     0.44116   0.61767   0.62011   0.00000  Uiso   1.00
C37    C     0.43423   0.63108   0.49943   0.00000  Uiso   1.00
C38    C     0.97506   0.55003   0.40887   0.00000  Uiso   1.00
C39    C     0.44084   0.61765   0.37823   0.00000  Uiso   1.00
C40    C     0.45420   0.59114   0.37808   0.00000  Uiso   1.00
C41    C     0.46123   0.57753   0.49932   0.00000  Uiso   1.00
C42    C     0.45451   0.59118   0.62042   0.00000  Uiso   1.00
C43    C     0.12717   0.24364   0.50230   0.00000  Uiso   1.00
C44    C     0.12034   0.25724   0.38126   0.00000  Uiso   1.00
C45    C     0.10723   0.28373   0.38084   0.00000  Uiso   1.00
C46    C     0.10057   0.29740   0.50203   0.00000  Uiso   1.00
C47    C     0.10742   0.28376   0.62277   0.00000  Uiso   1.00
C48    C     0.12052   0.25730   0.62310   0.00000  Uiso   1.00
C49    C     0.08662   0.32560   0.50925   0.00000  Uiso   1.00
C50    C     0.07881   0.34120   0.40278   0.00000  Uiso   1.00
C51    C     0.05801   0.38304   0.28928   0.00000  Uiso   1.00
C52    C     0.06486   0.36940   0.41002   0.00000  Uiso   1.00
C53    C     0.05820   0.38307   0.53121   0.00000  Uiso   1.00
C54    C     0.04509   0.40956   0.53080   0.00000  Uiso   1.00
C55    C     0.03826   0.42316   0.40976   0.00000  Uiso   1.00
C56    C     0.04492   0.40950   0.28896   0.00000  Uiso   1.00
C57    C     0.87517   0.75315   0.50452   0.00000  Uiso   1.00
C58    C     0.88174   0.73947   0.38352   0.00000  Uiso   1.00
C59    C     0.89479   0.71297   0.38411   0.00000  Uiso   1.00
C60    C     0.90154   0.69960   0.50553   0.00000  Uiso   1.00
C61    C     0.89507   0.71309   0.62599   0.00000  Uiso   1.00
C62    C     0.88202   0.73958   0.62586   0.00000  Uiso   1.00
C63    C     0.47545   0.54931   0.49950   0.00000  Uiso   1.00
C64    C     0.92606   0.50054   0.40947   0.00000  Uiso   1.00
C65    C     0.94127   0.61831   0.28712   0.00000  Uiso   1.00
C66    C     0.93480   0.63180   0.40758   0.00000  Uiso   1.00
C67    C     0.94154   0.61844   0.52900   0.00000  Uiso   1.00
C68    C     0.95460   0.59193   0.52959   0.00000  Uiso   1.00
C69    C     0.96117   0.57825   0.40858   0.00000  Uiso   1.00
C70    C     0.95432   0.59182   0.28725   0.00000  Uiso   1.00
C71    C     0.79892   0.90824   0.50340   0.00000  Uiso   1.00
C72    C     0.79192   0.92185   0.38240   0.00000  Uiso   1.00
C73    C     0.77838   0.94834   0.38207   0.00000  Uiso   1.00
C74    C     0.77143   0.96200   0.50330   0.00000  Uiso   1.00
C75    C     0.77845   0.94835   0.62400   0.00000  Uiso   1.00
C76    C     0.79198   0.92189   0.62424   0.00000  Uiso   1.00
C77    C     0.75702   0.99019   0.51061   0.00000  Uiso   1.00
C78    C     0.74900   0.00581   0.40419   0.00000  Uiso   1.00
C79    C     0.72756   0.04766   0.29082   0.00000  Uiso   1.00
C80    C     0.73458   0.03401   0.41151   0.00000  Uiso   1.00
C81    C     0.72764   0.04766   0.53275   0.00000  Uiso   1.00
C82    C     0.71410   0.07415   0.53242   0.00000  Uiso   1.00
C83    C     0.70710   0.08776   0.41143   0.00000  Uiso   1.00
C84    C     0.71404   0.07412   0.29058   0.00000  Uiso   1.00
C85    C     0.02429   0.45140   0.40950   0.00000  Uiso   1.00
C86    C     0.28404   0.16456   0.50630   0.00000  Uiso   1.00
C87    C     0.30427   0.16464   0.38515   0.00000  Uiso   1.00
C88    C     0.34381   0.16470   0.38454   0.00000  Uiso   1.00
C89    C     0.36429   0.16468   0.50563   0.00000  Uiso   1.00
C90    C     0.34400   0.16460   0.62647   0.00000  Uiso   1.00
C91    C     0.30450   0.16454   0.62699   0.00000  Uiso   1.00
C92    C     0.40640   0.16474   0.51265   0.00000  Uiso   1.00
C93    C     0.42963   0.16481   0.40606   0.00000  Uiso   1.00
C94    C     0.49203   0.16495   0.29226   0.00000  Uiso   1.00
C95    C     0.47174   0.16487   0.41309   0.00000  Uiso   1.00
C96    C     0.49222   0.16486   0.53418   0.00000  Uiso   1.00
C97    C     0.53176   0.16491   0.53358   0.00000  Uiso   1.00
C98    C     0.55199   0.16499   0.41244   0.00000  Uiso   1.00
C99    C     0.53153   0.16501   0.29174   0.00000  Uiso   1.00
C100   C     0.04475   0.16560   0.50481   0.00000  Uiso   1.00
C101   C     0.02422   0.16568   0.38390   0.00000  Uiso   1.00
C102   C     0.98463   0.16567   0.38468   0.00000  Uiso   1.00
C103   C     0.96476   0.16557   0.50620   0.00000  Uiso   1.00
C104   C     0.98499   0.16549   0.62656   0.00000  Uiso   1.00
C105   C     0.02457   0.16550   0.62624   0.00000  Uiso   1.00
C106   C     0.84317   0.16568   0.28839   0.00000  Uiso   1.00
C107   C     0.86341   0.16560   0.40874   0.00000  Uiso   1.00
C108   C     0.84354   0.16550   0.53026   0.00000  Uiso   1.00
C109   C     0.80395   0.16549   0.53105   0.00000  Uiso   1.00
C110   C     0.78342   0.16557   0.41014   0.00000  Uiso   1.00
C111   C     0.80360   0.16567   0.28870   0.00000  Uiso   1.00
C112   C     0.07322   0.50097   0.40891   0.00000  Uiso   1.00
C113   C     0.71659   0.83257   0.47733   0.00000  Uiso   1.00
C114   C     0.69596   0.83239   0.35714   0.00000  Uiso   1.00
C115   C     0.65652   0.83213   0.35838   0.00000  Uiso   1.00
C116   C     0.63655   0.83203   0.48042   0.00000  Uiso   1.00
C117   C     0.65724   0.83220   0.60030   0.00000  Uiso   1.00
C118   C     0.69664   0.83247   0.59897   0.00000  Uiso   1.00
C119   C     0.59459   0.83175   0.48941   0.00000  Uiso   1.00
C120   C     0.57102   0.83156   0.38392   0.00000  Uiso   1.00
C121   C     0.50836   0.83111   0.27305   0.00000  Uiso   1.00
C122   C     0.52905   0.83128   0.39293   0.00000  Uiso   1.00
C123   C     0.50909   0.83118   0.51497   0.00000  Uiso   1.00
C124   C     0.46965   0.83092   0.51622   0.00000  Uiso   1.00
C125   C     0.44901   0.83074   0.39604   0.00000  Uiso   1.00
C126   C     0.46896   0.83084   0.27439   0.00000  Uiso   1.00
C127   C     0.95174   0.82591   0.50388   0.00000  Uiso   1.00
C128   C     0.97170   0.82606   0.38224   0.00000  Uiso   1.00
C129   C     0.74126   0.16555   0.41063   0.00000  Uiso   1.00
C130   C     0.01105   0.82649   0.38067   0.00000  Uiso   1.00
C131   C     0.03160   0.82680   0.50126   0.00000  Uiso   1.00
C132   C     0.01158   0.82665   0.62259   0.00000  Uiso   1.00
C133   C     0.97226   0.82622   0.62407   0.00000  Uiso   1.00
C134   C     0.07351   0.82727   0.50726   0.00000  Uiso   1.00
C135   C     0.09648   0.82745   0.40011   0.00000  Uiso   1.00
C136   C     0.15841   0.82807   0.28480   0.00000  Uiso   1.00
C137   C     0.13839   0.82792   0.40612   0.00000  Uiso   1.00
C138   C     0.15894   0.82823   0.52671   0.00000  Uiso   1.00
C139   C     0.19829   0.82866   0.52515   0.00000  Uiso   1.00
C140   C     0.21825   0.82881   0.40353   0.00000  Uiso   1.00
C141   C     0.19772   0.82850   0.28333   0.00000  Uiso   1.00
C142   C     0.20328   0.08703   0.48866   0.00000  Uiso   1.00
C143   C     0.20998   0.07336   0.36785   0.00000  Uiso   1.00
C144   C     0.22339   0.04687   0.36787   0.00000  Uiso   1.00
C145   C     0.23051   0.03327   0.48928   0.00000  Uiso   1.00
C146   C     0.22379   0.04698   0.60979   0.00000  Uiso   1.00
C147   C     0.21039   0.07344   0.60968   0.00000  Uiso   1.00
C148   C     0.24480   0.00508   0.49697   0.00000  Uiso   1.00
C149   C     0.25254   0.98941   0.39075   0.00000  Uiso   1.00
C150   C     0.27355   0.94750   0.27795   0.00000  Uiso   1.00
C151   C     0.26683   0.96121   0.39846   0.00000  Uiso   1.00
C152   C     0.27395   0.94762   0.51987   0.00000  Uiso   1.00
C153   C     0.28736   0.92113   0.51990   0.00000  Uiso   1.00
C154   C     0.29406   0.90746   0.39909   0.00000  Uiso   1.00
C155   C     0.28695   0.92104   0.27807   0.00000  Uiso   1.00
C156   C     0.64287   0.21463   0.41136   0.00000  Uiso   1.00
C157   C     0.59415   0.16506   0.41198   0.00000  Uiso   1.00
C158   C     0.69266   0.11600   0.41126   0.00000  Uiso   1.00
C159   C     0.35873   0.78059   0.40029   0.00000  Uiso   1.00
C160   C     0.40697   0.83046   0.39755   0.00000  Uiso   1.00
C161   C     0.30836   0.87922   0.39930   0.00000  Uiso   1.00
C162   C     0.26020   0.82927   0.40204   0.00000  Uiso   1.00
C163   C     0.09177   0.16610   0.50414   0.00000  Uiso   1.00
C164   C     0.57366   0.50005   0.49974   0.00000  Uiso   1.00
C165   C     0.14115   0.21540   0.50258   0.00000  Uiso   1.00
C166   C     0.23917   0.16604   0.50275   0.00000  Uiso   1.00
C167   C     0.18965   0.11676   0.50432   0.00000  Uiso   1.00
C168   C     0.86127   0.78137   0.50424   0.00000  Uiso   1.00
C169   C     0.76345   0.83102   0.50617   0.00000  Uiso   1.00
C170   C     0.81335   0.88000   0.50359   0.00000  Uiso   1.00
C171   C     0.91119   0.83027   0.50165   0.00000  Uiso   1.00
C172   C     0.88390   0.50048   0.40941   0.00000  Uiso   1.00
C173   C     0.86350   0.50049   0.53029   0.00000  Uiso   1.00
C174   C     0.82396   0.50043   0.53039   0.00000  Uiso   1.00
C175   C     0.80365   0.50036   0.40905   0.00000  Uiso   1.00
C176   C     0.82410   0.50036   0.28847   0.00000  Uiso   1.00
C177   C     0.86361   0.50042   0.28845   0.00000  Uiso   1.00
C178   C     0.52452   0.45068   0.50051   0.00000  Uiso   1.00
C179   C     0.76155   0.50030   0.40149   0.00000  Uiso   1.00
C180   C     0.73817   0.50029   0.50777   0.00000  Uiso   1.00
C181   C     0.67562   0.50024   0.62077   0.00000  Uiso   1.00
C182   C     0.69608   0.50023   0.50020   0.00000  Uiso   1.00
C183   C     0.67576   0.50016   0.37885   0.00000  Uiso   1.00
C184   C     0.63622   0.50010   0.37894   0.00000  Uiso   1.00
C185   C     0.61582   0.50011   0.49982   0.00000  Uiso   1.00
C186   C     0.63611   0.50018   0.62078   0.00000  Uiso   1.00
H1     H     0.80944   0.50031   0.19346   0.00000  Uiso   1.00
H2     H     0.69028   0.50029   0.71578   0.00000  Uiso   1.00
H3     H     0.68980   0.50015   0.28317   0.00000  Uiso   1.00
H4     H     0.62134   0.50005   0.28438   0.00000  Uiso   1.00
H5     H     0.74980   0.50025   0.30207   0.00000  Uiso   1.00
H6     H     0.74992   0.50034   0.60719   0.00000  Uiso   1.00
H7     H     0.12084   0.50097   0.62443   0.00000  Uiso   1.00
H8     H     0.18945   0.50078   0.62586   0.00000  Uiso   1.00
H9     H     0.19024   0.50050   0.19326   0.00000  Uiso   1.00
H10    H     0.30929   0.50050   0.71594   0.00000  Uiso   1.00
H11    H     0.31007   0.50022   0.28333   0.00000  Uiso   1.00
H12    H     0.37868   0.50003   0.28475   0.00000  Uiso   1.00
H13    H     0.24993   0.50040   0.30205   0.00000  Uiso   1.00
H14    H     0.24959   0.50060   0.60717   0.00000  Uiso   1.00
H15    H     0.62702   0.24658   0.62658   0.00000  Uiso   1.00
H16    H     0.60402   0.29244   0.62758   0.00000  Uiso   1.00
H17    H     0.60351   0.29273   0.19498   0.00000  Uiso   1.00
H18    H     0.56388   0.37259   0.71692   0.00000  Uiso   1.00
H19    H     0.56338   0.37288   0.28430   0.00000  Uiso   1.00
H20    H     0.54037   0.41873   0.28530   0.00000  Uiso   1.00
H21    H     0.58355   0.33268   0.30340   0.00000  Uiso   1.00
H22    H     0.58384   0.33263   0.60852   0.00000  Uiso   1.00
H23    H     0.37507   0.74876   0.61620   0.00000  Uiso   1.00
H24    H     0.39856   0.70216   0.61554   0.00000  Uiso   1.00
H25    H     0.39803   0.70206   0.18583   0.00000  Uiso   1.00
H26    H     0.43615   0.62785   0.71396   0.00000  Uiso   1.00
H27    H     0.43562   0.62775   0.28424   0.00000  Uiso   1.00
H28    H     0.45911   0.58115   0.28358   0.00000  Uiso   1.00
H29    H     0.12522   0.24722   0.28682   0.00000  Uiso   1.00
H30    H     0.10252   0.29308   0.28506   0.00000  Uiso   1.00
H31    H     0.10262   0.29363   0.71765   0.00000  Uiso   1.00
H32    H     0.06281   0.37317   0.19439   0.00000  Uiso   1.00
H33    H     0.06291   0.37372   0.62700   0.00000  Uiso   1.00
H34    H     0.04022   0.41958   0.62524   0.00000  Uiso   1.00
H35    H     0.08279   0.33352   0.60857   0.00000  Uiso   1.00
H36    H     0.08265   0.33328   0.30345   0.00000  Uiso   1.00
H37    H     0.87672   0.74941   0.28885   0.00000  Uiso   1.00
H38    H     0.89967   0.70280   0.29029   0.00000  Uiso   1.00
H39    H     0.90018   0.70296   0.72000   0.00000  Uiso   1.00
H40    H     0.93616   0.62844   0.19311   0.00000  Uiso   1.00
H41    H     0.93667   0.62860   0.62282   0.00000  Uiso   1.00
H42    H     0.95962   0.58199   0.62426   0.00000  Uiso   1.00
H43    H     0.79701   0.91184   0.28793   0.00000  Uiso   1.00
H44    H     0.77356   0.95770   0.28631   0.00000  Uiso   1.00
H45    H     0.77344   0.95820   0.71891   0.00000  Uiso   1.00
H46    H     0.73258   0.03780   0.19590   0.00000  Uiso   1.00
H47    H     0.73245   0.03830   0.62851   0.00000  Uiso   1.00
H48    H     0.70901   0.08415   0.62690   0.00000  Uiso   1.00
H49    H     0.75300   0.99810   0.60996   0.00000  Uiso   1.00
H50    H     0.75301   0.99790   0.30484   0.00000  Uiso   1.00
H51    H     0.28925   0.16465   0.29079   0.00000  Uiso   1.00
H52    H     0.35772   0.16476   0.28869   0.00000  Uiso   1.00
H53    H     0.35879   0.16458   0.72128   0.00000  Uiso   1.00
H54    H     0.47724   0.16497   0.19744   0.00000  Uiso   1.00
H55    H     0.47831   0.16480   0.63004   0.00000  Uiso   1.00
H56    H     0.54677   0.16490   0.62795   0.00000  Uiso   1.00
H57    H     0.41828   0.16472   0.61191   0.00000  Uiso   1.00
H58    H     0.41775   0.16484   0.30679   0.00000  Uiso   1.00
H59    H     0.03899   0.16576   0.28916   0.00000  Uiso   1.00
H60    H     0.96938   0.16573   0.29094   0.00000  Uiso   1.00
H61    H     0.96994   0.16541   0.72065   0.00000  Uiso   1.00
H62    H     0.85823   0.16576   0.19430   0.00000  Uiso   1.00
H63    H     0.85879   0.16544   0.62401   0.00000  Uiso   1.00
H64    H     0.78917   0.16541   0.62579   0.00000  Uiso   1.00
H65    H     0.71058   0.83246   0.26208   0.00000  Uiso   1.00
H66    H     0.64229   0.83201   0.26319   0.00000  Uiso   1.00
H67    H     0.64285   0.83213   0.69580   0.00000  Uiso   1.00
H68    H     0.52275   0.83118   0.17755   0.00000  Uiso   1.00
H69    H     0.52331   0.83131   0.61016   0.00000  Uiso   1.00
H70    H     0.45503   0.83085   0.61128   0.00000  Uiso   1.00
H71    H     0.58311   0.83170   0.58922   0.00000  Uiso   1.00
H72    H     0.58249   0.83161   0.28411   0.00000  Uiso   1.00
H73    H     0.95662   0.82583   0.28825   0.00000  Uiso   1.00
H74    H     0.02475   0.82659   0.28449   0.00000  Uiso   1.00
H75    H     0.02643   0.82688   0.71704   0.00000  Uiso   1.00
H76    H     0.14356   0.82784   0.19034   0.00000  Uiso   1.00
H77    H     0.14524   0.82813   0.62291   0.00000  Uiso   1.00
H78    H     0.21336   0.82889   0.61916   0.00000  Uiso   1.00
H79    H     0.08547   0.82746   0.60623   0.00000  Uiso   1.00
H80    H     0.08452   0.82726   0.30114   0.00000  Uiso   1.00
H81    H     0.20475   0.08332   0.27325   0.00000  Uiso   1.00
H82    H     0.22798   0.03746   0.27224   0.00000  Uiso   1.00
H83    H     0.22894   0.03717   0.70483   0.00000  Uiso   1.00
H84    H     0.26840   0.95731   0.18290   0.00000  Uiso   1.00
H85    H     0.26936   0.95703   0.61550   0.00000  Uiso   1.00
H86    H     0.29259   0.91117   0.61451   0.00000  Uiso   1.00
H87    H     0.24897   0.99722   0.59641   0.00000  Uiso   1.00
H88    H     0.24837   0.99727   0.29130   0.00000  Uiso   1.00
H89    H     0.87839   0.50054   0.62485   0.00000  Uiso   1.00
H90    H     0.80992   0.50044   0.62607   0.00000  Uiso   1.00
Li1    Li    0.86670   0.50034   0.01223   0.00000  Uiso   1.00
Li2    Li    0.63301   0.50025   0.89700   0.00000  Uiso   1.00
Li3    Li    0.13298   0.50054   0.01185   0.00000  Uiso   1.00
Li4    Li    0.36654   0.50046   0.89733   0.00000  Uiso   1.00
Li5    Li    0.62261   0.25436   0.01393   0.00000  Uiso   1.00
Li6    Li    0.54478   0.41096   0.89796   0.00000  Uiso   1.00
Li7    Li    0.12171   0.25537   0.89934   0.00000  Uiso   1.00
Li8    Li    0.04372   0.41144   0.01272   0.00000  Uiso   1.00
Li9    Li    0.79307   0.91992   0.90048   0.00000  Uiso   1.00
Li10   Li    0.71295   0.07608   0.01434   0.00000  Uiso   1.00
Li11   Li    0.30178   0.16442   0.90325   0.00000  Uiso   1.00
Li12   Li    0.53426   0.16513   0.01549   0.00000  Uiso   1.00
Li13   Li    0.70040   0.83257   0.87507   0.00000  Uiso   1.00
Li14   Li    0.46520   0.83074   0.99829   0.00000  Uiso   1.00
Li15   Li    0.96994   0.82637   0.90039   0.00000  Uiso   1.00
Li16   Li    0.20005   0.82835   0.00701   0.00000  Uiso   1.00
Li17   Li    0.20985   0.07554   0.88589   0.00000  Uiso   1.00
Li18   Li    0.28750   0.91894   0.00186   0.00000  Uiso   1.00
N1     N     0.41363   0.67167   0.39695   0.00000  Uiso   1.00
N2     N     0.42055   0.65824   0.50283   0.00000  Uiso   1.00
N3     N     0.91492   0.67245   0.50938   0.00000  Uiso   1.00
N4     N     0.92142   0.65895   0.40373   0.00000  Uiso   1.00
N5     N     0.92421   0.16555   0.51025   0.00000  Uiso   1.00
N6     N     0.90396   0.16562   0.40470   0.00000  Uiso   1.00
N7     N     0.37248   0.75264   0.14730   0.00000  Uiso   1.00
N8     N     0.46170   0.57727   0.75248   0.00000  Uiso   1.00
N9     N     0.87531   0.75357   0.75769   0.00000  Uiso   1.00
N10    N     0.96103   0.57783   0.15542   0.00000  Uiso   1.00
N11    N     0.04557   0.16541   0.75797   0.00000  Uiso   1.00
N12    N     0.78260   0.16576   0.15698   0.00000  Uiso   1.00
O1     O     0.48208   0.53652   0.63548   0.00000  Uiso   1.00
O2     O     0.48177   0.53640   0.36368   0.00000  Uiso   1.00
O3     O     0.44559   0.50007   0.63619   0.00000  Uiso   1.00
O4     O     0.44547   0.49989   0.36438   0.00000  Uiso   1.00
O5     O     0.98122   0.53716   0.27310   0.00000  Uiso   1.00
O6     O     0.98157   0.53720   0.54490   0.00000  Uiso   1.00
O7     O     0.94533   0.50061   0.54540   0.00000  Uiso   1.00
O8     O     0.94516   0.50053   0.27359   0.00000  Uiso   1.00
O9     O     0.01804   0.46427   0.54528   0.00000  Uiso   1.00
O10    O     0.01782   0.46422   0.27347   0.00000  Uiso   1.00
O11    O     0.05396   0.50086   0.27298   0.00000  Uiso   1.00
O12    O     0.05418   0.50085   0.54479   0.00000  Uiso   1.00
O13    O     0.72194   0.16564   0.27495   0.00000  Uiso   1.00
O14    O     0.72221   0.16544   0.54676   0.00000  Uiso   1.00
O15    O     0.64946   0.20173   0.54735   0.00000  Uiso   1.00
O16    O     0.64918   0.20183   0.27553   0.00000  Uiso   1.00
O17    O     0.88148   0.50041   0.17510   0.00000  Uiso   1.00
O18    O     0.61824   0.50018   0.73413   0.00000  Uiso   1.00
O19    O     0.11806   0.50069   0.17467   0.00000  Uiso   1.00
O20    O     0.38146   0.50031   0.73450   0.00000  Uiso   1.00
O21    O     0.61344   0.16503   0.54767   0.00000  Uiso   1.00
O22    O     0.62770   0.24448   0.17685   0.00000  Uiso   1.00
O23    O     0.53969   0.42084   0.73503   0.00000  Uiso   1.00
O24    O     0.12651   0.24539   0.73659   0.00000  Uiso   1.00
O25    O     0.03892   0.42142   0.17547   0.00000  Uiso   1.00
O26    O     0.79811   0.90996   0.73770   0.00000  Uiso   1.00
O27    O     0.61322   0.16514   0.27586   0.00000  Uiso   1.00
O28    O     0.70790   0.08604   0.17713   0.00000  Uiso   1.00
O29    O     0.28678   0.16447   0.74057   0.00000  Uiso   1.00
O30    O     0.54925   0.16508   0.17817   0.00000  Uiso   1.00
O31    O     0.71474   0.83262   0.71171   0.00000  Uiso   1.00
O32    O     0.45086   0.83069   0.16166   0.00000  Uiso   1.00
O33    O     0.95479   0.82610   0.73808   0.00000  Uiso   1.00
O34    O     0.21520   0.82862   0.16932   0.00000  Uiso   1.00
O35    O     0.20453   0.08542   0.72297   0.00000  Uiso   1.00
O36    O     0.29281   0.90906   0.16478   0.00000  Uiso   1.00
O37    O     0.38588   0.77501   0.12801   0.00000  Uiso   1.00
O38    O     0.35206   0.74386   0.03766   0.00000  Uiso   1.00
O39    O     0.49760   0.55510   0.77093   0.00000  Uiso   1.00
O40    O     0.43283   0.58585   0.86296   0.00000  Uiso   1.00
O41    O     0.83965   0.77588   0.77661   0.00000  Uiso   1.00
O42    O     0.90442   0.74493   0.86746   0.00000  Uiso   1.00
O43    O     0.94726   0.55558   0.13735   0.00000  Uiso   1.00
O44    O     0.98134   0.58642   0.04480   0.00000  Uiso   1.00
O45    O     0.68602   0.12890   0.27527   0.00000  Uiso   1.00
O46    O     0.07066   0.18195   0.77665   0.00000  Uiso   1.00
O47    O     0.04098   0.14879   0.86788   0.00000  Uiso   1.00
O48    O     0.74111   0.18229   0.13899   0.00000  Uiso   1.00
O49    O     0.80358   0.14931   0.04637   0.00000  Uiso   1.00
O50    O     0.55439   0.49998   0.36380   0.00000  Uiso   1.00
O51    O     0.68616   0.12880   0.54708   0.00000  Uiso   1.00
O52    O     0.35210   0.79338   0.26430   0.00000  Uiso   1.00
O53    O     0.35241   0.79350   0.53611   0.00000  Uiso   1.00
O54    O     0.38808   0.83037   0.53414   0.00000  Uiso   1.00
O55    O     0.38758   0.83029   0.26233   0.00000  Uiso   1.00
O56    O     0.31509   0.86643   0.53529   0.00000  Uiso   1.00
O57    O     0.55455   0.50006   0.63562   0.00000  Uiso   1.00
O58    O     0.31465   0.86631   0.26349   0.00000  Uiso   1.00
O59    O     0.27908   0.82939   0.26546   0.00000  Uiso   1.00
O60    O     0.27952   0.82957   0.53726   0.00000  Uiso   1.00
O61    O     0.11094   0.16633   0.63981   0.00000  Uiso   1.00
O62    O     0.11095   0.16597   0.36801   0.00000  Uiso   1.00
O63    O     0.14746   0.20242   0.36680   0.00000  Uiso   1.00
O64    O     0.14756   0.20268   0.63861   0.00000  Uiso   1.00
O65    O     0.21996   0.16588   0.36707   0.00000  Uiso   1.00
O66    O     0.22000   0.16615   0.63888   0.00000  Uiso   1.00
O67    O     0.18340   0.12974   0.64009   0.00000  Uiso   1.00
O68    O     0.18343   0.12949   0.36828   0.00000  Uiso   1.00
O69    O     0.51799   0.46347   0.36451   0.00000  Uiso   1.00
O70    O     0.85512   0.79424   0.64001   0.00000  Uiso   1.00
O71    O     0.85477   0.79420   0.36820   0.00000  Uiso   1.00
O72    O     0.78244   0.83091   0.36958   0.00000  Uiso   1.00
O73    O     0.78294   0.83099   0.64139   0.00000  Uiso   1.00
O74    O     0.81940   0.86714   0.36781   0.00000  Uiso   1.00
O75    O     0.81990   0.86718   0.63961   0.00000  Uiso   1.00
O76    O     0.51816   0.46359   0.63632   0.00000  Uiso   1.00
O77    O     0.89218   0.83042   0.63824   0.00000  Uiso   1.00
O78    O     0.89163   0.83043   0.36643   0.00000  Uiso   1.00
Zn1    Zn    0.49993   0.49993   0.33423   0.00000  Uiso   1.00
Zn2    Zn    0.99956   0.50068   0.24342   0.00000  Uiso   1.00
Zn3    Zn    0.99976   0.50074   0.57496   0.00000  Uiso   1.00
Zn4    Zn    0.50007   0.50007   0.66577   0.00000  Uiso   1.00
Zn5    Zn    0.66757   0.16536   0.24554   0.00000  Uiso   1.00
Zn6    Zn    0.66783   0.16527   0.57708   0.00000  Uiso   1.00
Zn7    Zn    0.33326   0.82984   0.23403   0.00000  Uiso   1.00
Zn8    Zn    0.33387   0.82998   0.56556   0.00000  Uiso   1.00
Zn9    Zn    0.16550   0.16623   0.66921   0.00000  Uiso   1.00
Zn10   Zn    0.16543   0.16594   0.33768   0.00000  Uiso   1.00
Zn11   Zn    0.83763   0.83072   0.66967   0.00000  Uiso   1.00
Zn12   Zn    0.83697   0.83066   0.33815   0.00000  Uiso   1.00
