data_DB1-Zn2O8N2-AZO_A-DPAC_A_No715_repeat
_audit_creation_date              2024-02-20
_audit_creation_method            'Materials Studio'
_symmetry_space_group_name_H-M    'P1'
_symmetry_Int_Tables_number       1
_symmetry_cell_setting            triclinic
loop_
_symmetry_equiv_pos_as_xyz
  x,y,z
_cell_length_a                    16.4924
_cell_length_b                    17.4766
_cell_length_c                    17.5727
_cell_angle_alpha                 89.8772
_cell_angle_beta                  92.2753
_cell_angle_gamma                 84.4493
loop_
_atom_site_label
_atom_site_type_symbol
_atom_site_fract_x
_atom_site_fract_y
_atom_site_fract_z
_atom_site_U_iso_or_equiv
_atom_site_adp_type
_atom_site_occupancy
O1     O     0.58923   0.38596   0.50408   0.00000  Uiso   1.00
O2     O     0.42376   0.39251   0.49716   0.00000  Uiso   1.00
C1     C     0.50882   0.35020   0.50062   0.00000  Uiso   1.00
Zn1    Zn    0.60091   0.49603   0.50398   0.00000  Uiso   1.00
O3     O     0.41709   0.50335   0.60645   0.00000  Uiso   1.00
O4     O     0.58255   0.49692   0.61303   0.00000  Uiso   1.00
C2     C     0.49984   0.50012   0.64843   0.00000  Uiso   1.00
O5     O     0.41077   0.61407   0.49607   0.00000  Uiso   1.00
O6     O     0.57624   0.60752   0.50270   0.00000  Uiso   1.00
C3     C     0.49118   0.64982   0.49933   0.00000  Uiso   1.00
Zn2    Zn    0.39909   0.50400   0.49602   0.00000  Uiso   1.00
O7     O     0.58292   0.49651   0.39356   0.00000  Uiso   1.00
O8     O     0.41744   0.50323   0.38698   0.00000  Uiso   1.00
C4     C     0.50017   0.49964   0.35158   0.00000  Uiso   1.00
N1     N     0.28037   0.50869   0.49134   0.00000  Uiso   1.00
C5     C     0.23922   0.46132   0.53867   0.00000  Uiso   1.00
C6     C     0.15388   0.46482   0.53517   0.00000  Uiso   1.00
C7     C     0.10796   0.51569   0.48435   0.00000  Uiso   1.00
C8     C     0.14849   0.56285   0.43723   0.00000  Uiso   1.00
C9     C     0.23379   0.55954   0.44054   0.00000  Uiso   1.00
N2     N     0.02047   0.52059   0.47945   0.00000  Uiso   1.00
N3     N     0.97953   0.47943   0.52057   0.00000  Uiso   1.00
C10    C     0.85150   0.43717   0.56279   0.00000  Uiso   1.00
C11    C     0.89204   0.48433   0.51567   0.00000  Uiso   1.00
C12    C     0.84611   0.53520   0.46486   0.00000  Uiso   1.00
C13    C     0.76078   0.53870   0.46136   0.00000  Uiso   1.00
N4     N     0.71963   0.49133   0.50868   0.00000  Uiso   1.00
C14    C     0.76621   0.44048   0.55948   0.00000  Uiso   1.00
H1     H     0.27348   0.42172   0.57823   0.00000  Uiso   1.00
H2     H     0.12342   0.42805   0.57191   0.00000  Uiso   1.00
H3     H     0.88635   0.39781   0.60211   0.00000  Uiso   1.00
H4     H     0.87658   0.57197   0.42811   0.00000  Uiso   1.00
C15    C     0.51393   0.26447   0.50075   0.00000  Uiso   1.00
C16    C     0.44265   0.22589   0.49786   0.00000  Uiso   1.00
C17    C     0.44764   0.14536   0.49799   0.00000  Uiso   1.00
C18    C     0.52389   0.10178   0.50102   0.00000  Uiso   1.00
C19    C     0.59487   0.13978   0.50389   0.00000  Uiso   1.00
C20    C     0.59017   0.22026   0.50377   0.00000  Uiso   1.00
N5     N     0.53098   0.01921   0.50123   0.00000  Uiso   1.00
N6     N     0.46902   0.98081   0.49871   0.00000  Uiso   1.00
C21    C     0.40513   0.86024   0.49605   0.00000  Uiso   1.00
C22    C     0.47611   0.89825   0.49893   0.00000  Uiso   1.00
C23    C     0.55236   0.85466   0.50195   0.00000  Uiso   1.00
C24    C     0.55735   0.77414   0.50208   0.00000  Uiso   1.00
C25    C     0.48607   0.73556   0.49919   0.00000  Uiso   1.00
C26    C     0.40983   0.77976   0.49617   0.00000  Uiso   1.00
H5     H     0.38328   0.25841   0.49551   0.00000  Uiso   1.00
H6     H     0.39230   0.11681   0.49575   0.00000  Uiso   1.00
H7     H     0.34612   0.89332   0.49371   0.00000  Uiso   1.00
H8     H     0.60770   0.88321   0.50419   0.00000  Uiso   1.00
C27    C     0.50014   0.49970   0.27094   0.00000  Uiso   1.00
C28    C     0.57398   0.49684   0.23177   0.00000  Uiso   1.00
C29    C     0.57417   0.49689   0.15164   0.00000  Uiso   1.00
C30    C     0.50007   0.49982   0.10829   0.00000  Uiso   1.00
C31    C     0.42600   0.50270   0.14616   0.00000  Uiso   1.00
C32    C     0.42625   0.50263   0.22630   0.00000  Uiso   1.00
C33    C     0.50004   0.49987   0.03403   0.00000  Uiso   1.00
C34    C     0.50001   0.49992   0.96599   0.00000  Uiso   1.00
C35    C     0.49997   0.49997   0.89172   0.00000  Uiso   1.00
C36    C     0.57403   0.49712   0.85385   0.00000  Uiso   1.00
C37    C     0.57377   0.49718   0.77370   0.00000  Uiso   1.00
C38    C     0.49988   0.50007   0.72907   0.00000  Uiso   1.00
C39    C     0.42604   0.50292   0.76825   0.00000  Uiso   1.00
C40    C     0.42587   0.50288   0.84838   0.00000  Uiso   1.00
H9     H     0.62876   0.49468   0.26160   0.00000  Uiso   1.00
H10    H     0.62882   0.49477   0.12554   0.00000  Uiso   1.00
H11    H     0.37133   0.50486   0.11602   0.00000  Uiso   1.00
H12    H     0.62870   0.49498   0.88398   0.00000  Uiso   1.00
H13    H     0.37127   0.50506   0.73842   0.00000  Uiso   1.00
H14    H     0.37122   0.50498   0.87448   0.00000  Uiso   1.00
O9     O     0.26975   0.60394   0.39618   0.00000  Uiso   1.00
Li1    Li    0.23420   0.67122   0.32896   0.00000  Uiso   1.00
O10    O     0.10669   0.61007   0.39006   0.00000  Uiso   1.00
Li2    Li    0.00441   0.62994   0.37020   0.00000  Uiso   1.00
O11    O     0.73024   0.39608   0.60384   0.00000  Uiso   1.00
Li3    Li    0.76580   0.32880   0.67106   0.00000  Uiso   1.00
O12    O     0.71971   0.58616   0.41393   0.00000  Uiso   1.00
Li4    Li    0.74793   0.65091   0.34925   0.00000  Uiso   1.00
O13    O     0.65698   0.25396   0.50648   0.00000  Uiso   1.00
Li5    Li    0.75793   0.22008   0.51050   0.00000  Uiso   1.00
O14    O     0.66566   0.10010   0.50670   0.00000  Uiso   1.00
Li6    Li    0.69518   0.00351   0.50780   0.00000  Uiso   1.00
O15    O     0.34302   0.74606   0.49347   0.00000  Uiso   1.00
Li7    Li    0.24207   0.77995   0.48945   0.00000  Uiso   1.00
O16    O     0.62852   0.73515   0.50491   0.00000  Uiso   1.00
Li8    Li    0.72586   0.76144   0.50883   0.00000  Uiso   1.00
H15    H     0.33403   0.54378   0.31406   0.00000  Uiso   1.00
H16    H     0.29761   0.47005   0.24256   0.00000  Uiso   1.00
N7     N     0.34550   0.50576   0.26433   0.00000  Uiso   1.00
H17    H     0.66153   0.53143   0.68566   0.00000  Uiso   1.00
H18    H     0.70687   0.45442   0.75771   0.00000  Uiso   1.00
N8     N     0.65452   0.49407   0.73567   0.00000  Uiso   1.00
