# generated using pymatgen
data_Cu2H44C51N3O8
_symmetry_space_group_name_H-M   'P 1'
_cell_length_a   28.17680000
_cell_length_b   17.37220000
_cell_length_c   15.85000000
_cell_angle_alpha   89.99440000
_cell_angle_beta   89.99310000
_cell_angle_gamma   89.86620000
_symmetry_Int_Tables_number   1
_chemical_formula_structural   Cu2H44C51N3O8
_chemical_formula_sum   'Cu4 H88 C102 N6 O16'
_cell_volume   7758.44288054
_cell_formula_units_Z   2
loop_
 _symmetry_equiv_pos_site_id
 _symmetry_equiv_pos_as_xyz
  1  'x, y, z'
loop_
 _atom_site_type_symbol
 _atom_site_label
 _atom_site_symmetry_multiplicity
 _atom_site_fract_x
 _atom_site_fract_y
 _atom_site_fract_z
 _atom_site_occupancy
  Cu  Cu1  1  0.50001000  0.50000000  0.41971000  1
  Cu  Cu2  1  0.50000000  0.49999000  0.58029000  1
  Cu  Cu3  1  0.88346000  0.49944000  0.58030000  1
  Cu  Cu4  1  0.88346000  0.49999000  0.41972000  1
  H  H1  1  0.44690000  0.58623000  0.13391000  1
  H  H2  1  0.55310000  0.41376000  0.13389000  1
  H  H3  1  0.44687000  0.58620000  0.86610000  1
  H  H4  1  0.55311000  0.41378000  0.86610000  1
  H  H5  1  0.49991000  0.12219000  0.36656000  1
  H  H6  1  0.50011000  0.12214000  0.63343000  1
  H  H7  1  0.49985000  0.87784000  0.36655000  1
  H  H8  1  0.50009000  0.87782000  0.63342000  1
  H  H9  1  0.73406000  0.44954000  0.31064000  1
  H  H10  1  0.73419000  0.55051000  0.31135000  1
  H  H11  1  0.64943000  0.55061000  0.31082000  1
  H  H12  1  0.64931000  0.44963000  0.31114000  1
  H  H13  1  0.11640000  0.49976000  0.63345000  1
  H  H14  1  0.11642000  0.50005000  0.36658000  1
  H  H15  1  0.26705000  0.49995000  0.63345000  1
  H  H16  1  0.26706000  0.50015000  0.36659000  1
  H  H17  1  0.93637000  0.58805000  0.86644000  1
  H  H18  1  0.83056000  0.41573000  0.86579000  1
  H  H19  1  0.93639000  0.58709000  0.13425000  1
  H  H20  1  0.83055000  0.41484000  0.13358000  1
  H  H21  1  0.88211000  0.12144000  0.63589000  1
  H  H22  1  0.88191000  0.12231000  0.36902000  1
  H  H23  1  0.88274000  0.87709000  0.63494000  1
  H  H24  1  0.88249000  0.87799000  0.36807000  1
  H  H25  1  0.44251000  0.65723000  0.28532000  1
  H  H26  1  0.43903000  0.59887000  0.36050000  1
  H  H27  1  0.40315000  0.59360000  0.28515000  1
  H  H28  1  0.55751000  0.34277000  0.28532000  1
  H  H29  1  0.56100000  0.40113000  0.36048000  1
  H  H30  1  0.59687000  0.40639000  0.28510000  1
  H  H31  1  0.40310000  0.59339000  0.71469000  1
  H  H32  1  0.43909000  0.59899000  0.63951000  1
  H  H33  1  0.44237000  0.65717000  0.71487000  1
  H  H34  1  0.59688000  0.40659000  0.71468000  1
  H  H35  1  0.56089000  0.40099000  0.63951000  1
  H  H36  1  0.55761000  0.34280000  0.71488000  1
  H  H37  1  0.52775000  0.26022000  0.30600000  1
  H  H38  1  0.49987000  0.32892000  0.34691000  1
  H  H39  1  0.47211000  0.26029000  0.30603000  1
  H  H40  1  0.47232000  0.26040000  0.69401000  1
  H  H41  1  0.50023000  0.32887000  0.65311000  1
  H  H42  1  0.52796000  0.25999000  0.69398000  1
  H  H43  1  0.47192000  0.73980000  0.30614000  1
  H  H44  1  0.49988000  0.67110000  0.34689000  1
  H  H45  1  0.52756000  0.73975000  0.30586000  1
  H  H46  1  0.52799000  0.73955000  0.69384000  1
  H  H47  1  0.50002000  0.67108000  0.65309000  1
  H  H48  1  0.47235000  0.73995000  0.69411000  1
  H  H49  1  0.03130000  0.45442000  0.69389000  1
  H  H50  1  0.98894000  0.49972000  0.65311000  1
  H  H51  1  0.03124000  0.54466000  0.69411000  1
  H  H52  1  0.03117000  0.54521000  0.30613000  1
  H  H53  1  0.98896000  0.49982000  0.34690000  1
  H  H54  1  0.03144000  0.45497000  0.30591000  1
  H  H55  1  0.35214000  0.54515000  0.69399000  1
  H  H56  1  0.39451000  0.49992000  0.65311000  1
  H  H57  1  0.35219000  0.45491000  0.69402000  1
  H  H58  1  0.35232000  0.45510000  0.30604000  1
  H  H59  1  0.39452000  0.50040000  0.34691000  1
  H  H60  1  0.35205000  0.54534000  0.30601000  1
  H  H61  1  0.94058000  0.65956000  0.71531000  1
  H  H62  1  0.94420000  0.60145000  0.63990000  1
  H  H63  1  0.98009000  0.59587000  0.71523000  1
  H  H64  1  0.82632000  0.34527000  0.71408000  1
  H  H65  1  0.82269000  0.40390000  0.63915000  1
  H  H66  1  0.78681000  0.40895000  0.71455000  1
  H  H67  1  0.98014000  0.59370000  0.28569000  1
  H  H68  1  0.94414000  0.59909000  0.36089000  1
  H  H69  1  0.94073000  0.65754000  0.28576000  1
  H  H70  1  0.78680000  0.40718000  0.28497000  1
  H  H71  1  0.82280000  0.40128000  0.36011000  1
  H  H72  1  0.82621000  0.34334000  0.28451000  1
  H  H73  1  0.85395000  0.25931000  0.69699000  1
  H  H74  1  0.88168000  0.32811000  0.65635000  1
  H  H75  1  0.90959000  0.25929000  0.69695000  1
  H  H76  1  0.90938000  0.26074000  0.30898000  1
  H  H77  1  0.88131000  0.32911000  0.35015000  1
  H  H78  1  0.85374000  0.26041000  0.30901000  1
  H  H79  1  0.91099000  0.73881000  0.69481000  1
  H  H80  1  0.88319000  0.67029000  0.65379000  1
  H  H81  1  0.85535000  0.73884000  0.69509000  1
  H  H82  1  0.85492000  0.73997000  0.30711000  1
  H  H83  1  0.88305000  0.67132000  0.34759000  1
  H  H84  1  0.91056000  0.74029000  0.30684000  1
  H  H85  1  0.61246000  0.46178000  0.66615000  1
  H  H86  1  0.65763000  0.53721000  0.70356000  1
  H  H87  1  0.77097000  0.53710000  0.66633000  1
  H  H88  1  0.72578000  0.46156000  0.70341000  1
  C  C1  1  0.58901000  0.49982000  0.50000000  1
  C  C2  1  0.41099000  0.50016000  0.50001000  1
  C  C3  1  0.49995000  0.64436000  0.49999000  1
  C  C4  1  0.50006000  0.35563000  0.50001000  1
  C  C5  1  0.79445000  0.49967000  0.50001000  1
  C  C6  1  0.97247000  0.49975000  0.50000000  1
  C  C7  1  0.88318000  0.64408000  0.50059000  1
  C  C8  1  0.88374000  0.35534000  0.49943000  1
  C  C9  1  0.46954000  0.54948000  0.25392000  1
  C  C10  1  0.46944000  0.54962000  0.16508000  1
  C  C11  1  0.50000000  0.49999000  0.12006000  1
  C  C12  1  0.53056000  0.45037000  0.16507000  1
  C  C13  1  0.53047000  0.45052000  0.25391000  1
  C  C14  1  0.49999000  0.50000000  0.03772000  1
  C  C15  1  0.49999000  0.50000000  0.96228000  1
  C  C16  1  0.49999000  0.49999000  0.87995000  1
  C  C17  1  0.46942000  0.54960000  0.83493000  1
  C  C18  1  0.46951000  0.54945000  0.74608000  1
  C  C19  1  0.53047000  0.45053000  0.74608000  1
  C  C20  1  0.53056000  0.45038000  0.83493000  1
  C  C21  1  0.50004000  0.27406000  0.50001000  1
  C  C22  1  0.49998000  0.23168000  0.42345000  1
  C  C23  1  0.49996000  0.15062000  0.42322000  1
  C  C24  1  0.50001000  0.10953000  0.49999000  1
  C  C25  1  0.50007000  0.15059000  0.57678000  1
  C  C26  1  0.50009000  0.23165000  0.57656000  1
  C  C27  1  0.50000000  0.03441000  0.49999000  1
  C  C28  1  0.49999000  0.96558000  0.49998000  1
  C  C29  1  0.49998000  0.89046000  0.49998000  1
  C  C30  1  0.49990000  0.84939000  0.42320000  1
  C  C31  1  0.49989000  0.76833000  0.42343000  1
  C  C32  1  0.49995000  0.72593000  0.49999000  1
  C  C33  1  0.50003000  0.76832000  0.57654000  1
  C  C34  1  0.50004000  0.84938000  0.57677000  1
  C  C35  1  0.74355000  0.49971000  0.50001000  1
  C  C36  1  0.63991000  0.49979000  0.50000000  1
  C  C37  1  0.71760000  0.49984000  0.43337000  1
  C  C38  1  0.66586000  0.49965000  0.56664000  1
  C  C39  1  0.66587000  0.49988000  0.43337000  1
  C  C40  1  0.71759000  0.49962000  0.56664000  1
  C  C41  1  0.71651000  0.50001000  0.33860000  1
  C  C42  1  0.66698000  0.50004000  0.33860000  1
  C  C43  1  0.02276000  0.49980000  0.50001000  1
  C  C44  1  0.04889000  0.49975000  0.57656000  1
  C  C45  1  0.09887000  0.49980000  0.57679000  1
  C  C46  1  0.12420000  0.49991000  0.50002000  1
  C  C47  1  0.09888000  0.49997000  0.42323000  1
  C  C48  1  0.04891000  0.49992000  0.42346000  1
  C  C49  1  0.17051000  0.49996000  0.50002000  1
  C  C50  1  0.21295000  0.50000000  0.50003000  1
  C  C51  1  0.25926000  0.50004000  0.50002000  1
  C  C52  1  0.28459000  0.50000000  0.57680000  1
  C  C53  1  0.33456000  0.50005000  0.57657000  1
  C  C54  1  0.36070000  0.50013000  0.50001000  1
  C  C55  1  0.33457000  0.50017000  0.42346000  1
  C  C56  1  0.28459000  0.50012000  0.42324000  1
  C  C57  1  0.91380000  0.55174000  0.74629000  1
  C  C58  1  0.91390000  0.55158000  0.83513000  1
  C  C59  1  0.88346000  0.50184000  0.87996000  1
  C  C60  1  0.85302000  0.45242000  0.83475000  1
  C  C61  1  0.85310000  0.45287000  0.74591000  1
  C  C62  1  0.88347000  0.50156000  0.96230000  1
  C  C63  1  0.88347000  0.50130000  0.03773000  1
  C  C64  1  0.88347000  0.50102000  0.12007000  1
  C  C65  1  0.91392000  0.55042000  0.16528000  1
  C  C66  1  0.91383000  0.54997000  0.25412000  1
  C  C67  1  0.85311000  0.45114000  0.25374000  1
  C  C68  1  0.85302000  0.45130000  0.16489000  1
  C  C69  1  0.88163000  0.27377000  0.50304000  1
  C  C70  1  0.88179000  0.23112000  0.57943000  1
  C  C71  1  0.88200000  0.15006000  0.57934000  1
  C  C72  1  0.88204000  0.10924000  0.50240000  1
  C  C73  1  0.88188000  0.15057000  0.42578000  1
  C  C74  1  0.88168000  0.23163000  0.42632000  1
  C  C75  1  0.88223000  0.03412000  0.50212000  1
  C  C76  1  0.88240000  0.96529000  0.50186000  1
  C  C77  1  0.88258000  0.89017000  0.50156000  1
  C  C78  1  0.88276000  0.84884000  0.57818000  1
  C  C79  1  0.88295000  0.76778000  0.57763000  1
  C  C80  1  0.88298000  0.72565000  0.50091000  1
  C  C81  1  0.88281000  0.76830000  0.42452000  1
  C  C82  1  0.88261000  0.84936000  0.42461000  1
  C  C83  1  0.43529000  0.60510000  0.30069000  1
  C  C84  1  0.56473000  0.39490000  0.30066000  1
  C  C85  1  0.43525000  0.60505000  0.69933000  1
  C  C86  1  0.56473000  0.39492000  0.69933000  1
  C  C87  1  0.49992000  0.27435000  0.33739000  1
  C  C88  1  0.50016000  0.27430000  0.66263000  1
  C  C89  1  0.49980000  0.72568000  0.33737000  1
  C  C90  1  0.50010000  0.72566000  0.66261000  1
  C  C91  1  0.02258000  0.49963000  0.66263000  1
  C  C92  1  0.02261000  0.49999000  0.33739000  1
  C  C93  1  0.36086000  0.50000000  0.66263000  1
  C  C94  1  0.36087000  0.50026000  0.33739000  1
  C  C95  1  0.94793000  0.60747000  0.69974000  1
  C  C96  1  0.81897000  0.39746000  0.69895000  1
  C  C97  1  0.94797000  0.60536000  0.30110000  1
  C  C98  1  0.81897000  0.39542000  0.30027000  1
  C  C99  1  0.88175000  0.27350000  0.66566000  1
  C  C100  1  0.88151000  0.27457000  0.34042000  1
  C  C101  1  0.88314000  0.72483000  0.66353000  1
  C  C102  1  0.88284000  0.72593000  0.33829000  1
  N  N1  1  0.50001000  0.50000000  0.30038000  1
  N  N2  1  0.49999000  0.49999000  0.69962000  1
  N  N3  1  0.88345000  0.50247000  0.69964000  1
  N  N4  1  0.88347000  0.50039000  0.30039000  1
  N  N5  1  0.64333000  0.49954000  0.65308000  1
  N  N6  1  0.74010000  0.49940000  0.65309000  1
  O  O1  1  0.56171000  0.49997000  0.42512000  1
  O  O2  1  0.43817000  0.50025000  0.42513000  1
  O  O3  1  0.49988000  0.60030000  0.42512000  1
  O  O4  1  0.50001000  0.39992000  0.42513000  1
  O  O5  1  0.50011000  0.39969000  0.57488000  1
  O  O6  1  0.50001000  0.60007000  0.57487000  1
  O  O7  1  0.43824000  0.50012000  0.57488000  1
  O  O8  1  0.56183000  0.49972000  0.57487000  1
  O  O9  1  0.82175000  0.49952000  0.57489000  1
  O  O10  1  0.94529000  0.49961000  0.57488000  1
  O  O11  1  0.88335000  0.59976000  0.57529000  1
  O  O12  1  0.88369000  0.39938000  0.57449000  1
  O  O13  1  0.88359000  0.39966000  0.42473000  1
  O  O14  1  0.88322000  0.60004000  0.42553000  1
  O  O15  1  0.94522000  0.50001000  0.42513000  1
  O  O16  1  0.82163000  0.49978000  0.42514000  1
