# generated using pymatgen
data_CuH7C14(BrN4)2
_symmetry_space_group_name_H-M   'P 1'
_cell_length_a   13.29130000
_cell_length_b   17.57500000
_cell_length_c   7.05280000
_cell_angle_alpha   78.42510000
_cell_angle_beta   105.38600000
_cell_angle_gamma   68.69970000
_symmetry_Int_Tables_number   1
_chemical_formula_structural   CuH7C14(BrN4)2
_chemical_formula_sum   'Cu2 H14 C28 Br4 N16'
_cell_volume   1396.69701467
_cell_formula_units_Z   2
loop_
 _symmetry_equiv_pos_site_id
 _symmetry_equiv_pos_as_xyz
  1  'x, y, z'
loop_
 _atom_site_type_symbol
 _atom_site_label
 _atom_site_symmetry_multiplicity
 _atom_site_fract_x
 _atom_site_fract_y
 _atom_site_fract_z
 _atom_site_occupancy
  Cu  Cu1  1  0.50000000  0.50000000  0.00000000  1
  Cu  Cu2  1  0.50000000  0.50000000  0.50000000  1
  H  H1  1  0.50007000  0.94528000  0.23738000  1
  H  H2  1  0.49993000  0.05472000  0.76262000  1
  H  H3  1  0.49977000  0.19163000  0.11612000  1
  H  H4  1  0.49993000  0.05472000  0.18260000  1
  H  H5  1  0.50024000  0.80836000  0.88388000  1
  H  H6  1  0.50007000  0.94528000  0.81740000  1
  H  H7  1  0.11277000  0.60910000  0.74124000  1
  H  H8  1  0.75806000  0.60942000  0.56372000  1
  H  H9  1  0.56848000  0.78219000  0.21120000  1
  H  H10  1  0.50015000  0.73637000  0.29605000  1
  H  H11  1  0.43218000  0.82702000  0.12038000  1
  H  H12  1  0.56800000  0.17310000  0.87940000  1
  H  H13  1  0.49950000  0.26374000  0.70372000  1
  H  H14  1  0.43170000  0.21758000  0.78926000  1
  C  C1  1  0.78423000  0.50020000  0.39202000  1
  C  C2  1  0.49965000  0.28848000  0.35559000  1
  C  C3  1  0.21577000  0.49980000  0.60798000  1
  C  C4  1  0.50035000  0.71152000  0.64442000  1
  C  C5  1  0.50025000  0.79528000  0.60249000  1
  C  C6  1  0.49975000  0.20472000  0.39751000  1
  C  C7  1  0.50020000  0.83625000  0.41191000  1
  C  C8  1  0.50010000  0.91773000  0.36954000  1
  C  C9  1  0.49980000  0.16375000  0.58809000  1
  C  C10  1  0.49990000  0.08226000  0.63046000  1
  C  C11  1  0.49980000  0.16375000  0.24797000  1
  C  C12  1  0.49990000  0.08226000  0.28718000  1
  C  C13  1  0.50020000  0.83625000  0.75204000  1
  C  C14  1  0.50010000  0.91774000  0.71282000  1
  C  C15  1  0.50005000  0.95895000  0.52055000  1
  C  C16  1  0.49995000  0.04105000  0.47945000  1
  C  C17  1  0.10184000  0.49991000  0.55096000  1
  C  C18  1  0.01528000  0.55597000  0.60240000  1
  C  C19  1  0.08151000  0.44394000  0.44604000  1
  C  C20  1  0.03940000  0.61064000  0.70702000  1
  C  C21  1  0.95570000  0.66735000  0.76097000  1
  C  C22  1  0.89817000  0.50009000  0.44904000  1
  C  C23  1  0.98472000  0.44403000  0.39760000  1
  C  C24  1  0.91849000  0.55606000  0.55396000  1
  C  C25  1  0.82968000  0.61083000  0.60206000  1
  C  C26  1  0.84640000  0.66745000  0.70627000  1
  C  C27  1  0.50026000  0.79116000  0.24385000  1
  C  C28  1  0.49975000  0.20884000  0.75615000  1
  Br  Br1  1  0.94996000  0.36245000  0.24211000  1
  Br  Br2  1  0.21279000  0.36221000  0.37365000  1
  Br  Br3  1  0.99196000  0.74849000  0.91647000  1
  Br  Br4  1  0.71413000  0.74874000  0.77743000  1
  N  N1  1  0.63063000  0.49924000  0.22189000  1
  N  N2  1  0.72659000  0.50025000  0.20607000  1
  N  N3  1  0.50098000  0.40279000  0.39289000  1
  N  N4  1  0.49960000  0.33138000  0.49121000  1
  N  N5  1  0.36938000  0.50076000  0.59051000  1
  N  N6  1  0.27341000  0.49975000  0.47973000  1
  N  N7  1  0.49902000  0.59721000  0.79471000  1
  N  N8  1  0.50041000  0.66862000  0.82299000  1
  N  N9  1  0.36938000  0.50076000  0.77811000  1
  N  N10  1  0.27341000  0.49975000  0.79393000  1
  N  N11  1  0.49902000  0.59721000  0.60711000  1
  N  N12  1  0.50041000  0.66862000  0.50879000  1
  N  N13  1  0.63063000  0.49924000  0.40949000  1
  N  N14  1  0.72659000  0.50025000  0.52027000  1
  N  N15  1  0.50098000  0.40279000  0.20529000  1
  N  N16  1  0.49960000  0.33138000  0.17701000  1
