# generated using pymatgen
data_VH2C8Cl2O5
_symmetry_space_group_name_H-M   'P 1'
_cell_length_a   25.87180000
_cell_length_b   11.15170000
_cell_length_c   6.81800000
_cell_angle_alpha   108.44300000
_cell_angle_beta   113.57100000
_cell_angle_gamma   58.72370000
_symmetry_Int_Tables_number   1
_chemical_formula_structural   VH2C8Cl2O5
_chemical_formula_sum   'V4 H8 C32 Cl8 O20'
_cell_volume   1526.02735430
_cell_formula_units_Z   4
loop_
 _symmetry_equiv_pos_site_id
 _symmetry_equiv_pos_as_xyz
  1  'x, y, z'
loop_
 _atom_site_type_symbol
 _atom_site_label
 _atom_site_symmetry_multiplicity
 _atom_site_fract_x
 _atom_site_fract_y
 _atom_site_fract_z
 _atom_site_occupancy
  V  V1  1  0.49568000  0.49567000  0.00705000  1
  V  V2  1  0.50574000  0.50575000  0.52752000  1
  V  V3  1  0.00578000  0.00574000  0.95163000  1
  V  V4  1  0.99571000  0.99568000  0.43115000  1
  H  H1  1  0.49623000  0.11236000  0.23800000  1
  H  H2  1  0.50519000  0.88905000  0.73811000  1
  H  H3  1  0.80824000  0.20350000  0.83599000  1
  H  H4  1  0.69325000  0.29809000  0.12282000  1
  H  H5  1  0.19325000  0.79789000  0.71034000  1
  H  H6  1  0.30824000  0.70327000  0.24826000  1
  H  H7  1  0.99553000  0.39086000  0.11209000  1
  H  H8  1  0.00575000  0.61063000  0.82894000  1
  C  C1  1  0.61645000  0.38362000  0.35309000  1
  C  C2  1  0.38504000  0.61773000  0.62309000  1
  C  C3  1  0.50147000  0.26854000  0.61906000  1
  C  C4  1  0.49995000  0.73288000  0.35705000  1
  C  C5  1  0.00140000  0.76858000  0.60151000  1
  C  C6  1  0.00009000  0.23269000  0.33965000  1
  C  C7  1  0.11645000  0.88343000  0.33551000  1
  C  C8  1  0.88504000  0.11797000  0.60572000  1
  C  C9  1  0.50034000  0.86872000  0.42349000  1
  C  C10  1  0.50109000  0.13270000  0.55262000  1
  C  C11  1  0.49770000  0.93569000  0.27631000  1
  C  C12  1  0.50373000  0.06572000  0.69980000  1
  C  C13  1  0.49807000  0.06677000  0.34043000  1
  C  C14  1  0.50336000  0.93464000  0.63568000  1
  C  C15  1  0.68456000  0.31625000  0.41715000  1
  C  C16  1  0.81693000  0.18534000  0.54165000  1
  C  C17  1  0.71903000  0.28781000  0.62824000  1
  C  C18  1  0.78245000  0.21378000  0.33057000  1
  C  C19  1  0.78476000  0.22280000  0.69006000  1
  C  C20  1  0.71673000  0.27879000  0.26875000  1
  C  C21  1  0.31693000  0.68511000  0.55016000  1
  C  C22  1  0.18456000  0.81605000  0.40844000  1
  C  C23  1  0.28245000  0.71356000  0.68606000  1
  C  C24  1  0.21904000  0.78760000  0.27254000  1
  C  C25  1  0.21673000  0.77858000  0.61569000  1
  C  C26  1  0.28476000  0.72258000  0.34291000  1
  C  C27  1  0.00101000  0.63274000  0.53507000  1
  C  C28  1  0.00026000  0.36875000  0.40596000  1
  C  C29  1  0.99799000  0.56681000  0.32288000  1
  C  C30  1  0.00328000  0.43468000  0.61814000  1
  C  C31  1  0.99762000  0.43573000  0.25877000  1
  C  C32  1  0.00366000  0.56576000  0.68226000  1
  Cl  Cl1  1  0.49386000  0.85344000  0.00740000  1
  Cl  Cl2  1  0.50756000  0.14797000  0.96871000  1
  Cl  Cl3  1  0.67892000  0.33466000  0.81756000  1
  Cl  Cl4  1  0.82256000  0.16693000  0.14125000  1
  Cl  Cl5  1  0.32256000  0.66666667  0.94862000  1
  Cl  Cl6  1  0.17893000  0.83445000  0.00998000  1
  Cl  Cl7  1  0.99463000  0.65038000  0.13508000  1
  Cl  Cl8  1  0.00665000  0.35111000  0.80595000  1
  O  O1  1  0.49713000  0.67663000  0.16057000  1
  O  O2  1  0.58689000  0.40755000  0.15752000  1
  O  O3  1  0.59172000  0.41339000  0.49759000  1
  O  O4  1  0.50424000  0.32484000  0.48930000  1
  O  O5  1  0.40971000  0.58803000  0.81177000  1
  O  O6  1  0.49891000  0.32050000  0.80869000  1
  O  O7  1  0.50246000  0.68097000  0.50062000  1
  O  O8  1  0.41454000  0.59386000  0.49240000  1
  O  O9  1  0.52782000  0.52786000  0.79761000  1
  O  O10  1  0.47360000  0.47356000  0.18724000  1
  O  O11  1  0.91457000  0.09407000  0.80126000  1
  O  O12  1  0.00422000  0.82489000  0.79802000  1
  O  O13  1  0.99888000  0.82055000  0.45796000  1
  O  O14  1  0.08691000  0.90745000  0.46622000  1
  O  O15  1  0.00260000  0.18084000  0.15002000  1
  O  O16  1  0.09175000  0.91326000  0.14684000  1
  O  O17  1  0.90974000  0.08824000  0.46119000  1
  O  O18  1  0.99727000  0.17652000  0.46941000  1
  O  O19  1  0.97361000  0.97362000  0.16106000  1
  O  O20  1  0.02788000  0.02778000  0.77144000  1
