# generated using pymatgen
data_Zn2H23C36S2N3O16
_symmetry_space_group_name_H-M   'P 1'
_cell_length_a   16.73580000
_cell_length_b   17.72200000
_cell_length_c   12.70170000
_cell_angle_alpha   89.85930000
_cell_angle_beta   92.08010000
_cell_angle_gamma   84.91510000
_symmetry_Int_Tables_number   1
_chemical_formula_structural   Zn2H23C36S2N3O16
_chemical_formula_sum   'Zn2 H23 C36 S2 N3 O16'
_cell_volume   3749.86112254
_cell_formula_units_Z   1
loop_
 _symmetry_equiv_pos_site_id
 _symmetry_equiv_pos_as_xyz
  1  'x, y, z'
loop_
 _atom_site_type_symbol
 _atom_site_label
 _atom_site_symmetry_multiplicity
 _atom_site_fract_x
 _atom_site_fract_y
 _atom_site_fract_z
 _atom_site_occupancy
  Zn  Zn1  1  0.59938000  0.49641000  0.50505000  1
  Zn  Zn2  1  0.40062000  0.50361000  0.49496000  1
  H  H1  1  0.27654000  0.42218000  0.60910000  1
  H  H2  1  0.13117000  0.42691000  0.60246000  1
  H  H3  1  0.87897000  0.40019000  0.63990000  1
  H  H4  1  0.86883000  0.57310000  0.39757000  1
  H  H5  1  0.99666000  0.56097000  0.41458000  1
  H  H6  1  0.00333000  0.43904000  0.58547000  1
  H  H7  1  0.38400000  0.26146000  0.49427000  1
  H  H8  1  0.39069000  0.12419000  0.49446000  1
  H  H9  1  0.34988000  0.88621000  0.49207000  1
  H  H10  1  0.60929000  0.87583000  0.50546000  1
  H  H11  1  0.59145000  0.99657000  0.50468000  1
  H  H12  1  0.40852000  0.00344000  0.49524000  1
  H  H13  1  0.38328000  0.50396000  0.12547000  1
  H  H14  1  0.34540000  0.59901000  0.36127000  1
  H  H15  1  0.04264000  0.61048000  0.34518000  1
  H  H16  1  0.64501000  0.58807000  0.37658000  1
  H  H17  1  0.65458000  0.40101000  0.63875000  1
  H  H18  1  0.64953000  0.32565000  0.50806000  1
  H  H19  1  0.66588000  0.03976000  0.50857000  1
  H  H20  1  0.63112000  0.66445000  0.50635000  1
  H  H21  1  0.35047000  0.67436000  0.49186000  1
  H  H22  1  0.69629000  0.45588000  0.90424000  1
  H  H23  1  0.66685000  0.53114000  0.79719000  1
  C  C1  1  0.50796000  0.35236000  0.50078000  1
  C  C2  1  0.49986000  0.50007000  0.70535000  1
  C  C3  1  0.49204000  0.64766000  0.49914000  1
  C  C4  1  0.50015000  0.49969000  0.29466000  1
  C  C5  1  0.24294000  0.46110000  0.55455000  1
  C  C6  1  0.15896000  0.46407000  0.55038000  1
  C  C7  1  0.11326000  0.51411000  0.48025000  1
  C  C8  1  0.15415000  0.56073000  0.41491000  1
  C  C9  1  0.23805000  0.55773000  0.41912000  1
  C  C10  1  0.02370000  0.52034000  0.47151000  1
  C  C11  1  0.97629000  0.47966000  0.52853000  1
  C  C12  1  0.84583000  0.43928000  0.58513000  1
  C  C13  1  0.88673000  0.48590000  0.51979000  1
  C  C14  1  0.84104000  0.53594000  0.44965000  1
  C  C15  1  0.75706000  0.53892000  0.44548000  1
  C  C16  1  0.76194000  0.44229000  0.58091000  1
  C  C17  1  0.51257000  0.26782000  0.50092000  1
  C  C18  1  0.44230000  0.22955000  0.49724000  1
  C  C19  1  0.44653000  0.15026000  0.49737000  1
  C  C20  1  0.52148000  0.10688000  0.50119000  1
  C  C21  1  0.59155000  0.14527000  0.50486000  1
  C  C22  1  0.58728000  0.22449000  0.50473000  1
  C  C23  1  0.53058000  0.02230000  0.50156000  1
  C  C24  1  0.46939000  0.97772000  0.49835000  1
  C  C25  1  0.40843000  0.85475000  0.49506000  1
  C  C26  1  0.47849000  0.89314000  0.49872000  1
  C  C27  1  0.55345000  0.84977000  0.50255000  1
  C  C28  1  0.55768000  0.77047000  0.50267000  1
  C  C29  1  0.48743000  0.73220000  0.49900000  1
  C  C30  1  0.41271000  0.77552000  0.49519000  1
  C  C31  1  0.56354000  0.49768000  0.89409000  1
  C  C32  1  0.43647000  0.50208000  0.10592000  1
  C  C33  1  0.49992000  0.49999000  0.82283000  1
  C  C34  1  0.50009000  0.49977000  0.17718000  1
  C  C35  1  0.45903000  0.50134000  0.99807000  1
  C  C36  1  0.54098000  0.49842000  0.00194000  1
  S  S1  1  0.40818000  0.50322000  0.88189000  1
  S  S2  1  0.59183000  0.49654000  0.11812000  1
  N  N1  1  0.28370000  0.50785000  0.48903000  1
  N  N2  1  0.71629000  0.49217000  0.51099000  1
  N  N3  1  0.64985000  0.49463000  0.86237000  1
  O  O1  1  0.58733000  0.38787000  0.50520000  1
  O  O2  1  0.42438000  0.39379000  0.49639000  1
  O  O3  1  0.41836000  0.50300000  0.64766000  1
  O  O4  1  0.58131000  0.49720000  0.65600000  1
  O  O5  1  0.41266000  0.61215000  0.49500000  1
  O  O6  1  0.57562000  0.60623000  0.50341000  1
  O  O7  1  0.58164000  0.49687000  0.35235000  1
  O  O8  1  0.41867000  0.50295000  0.34401000  1
  O  O9  1  0.27942000  0.60883000  0.34750000  1
  O  O10  1  0.10795000  0.61523000  0.33853000  1
  O  O11  1  0.71021000  0.59319000  0.36941000  1
  O  O12  1  0.72056000  0.39119000  0.65253000  1
  O  O13  1  0.66408000  0.26331000  0.50874000  1
  O  O14  1  0.67319000  0.10140000  0.50902000  1
  O  O15  1  0.63898000  0.72599000  0.50682000  1
  O  O16  1  0.33591000  0.73670000  0.49118000  1
