# Generated by REPEAT Assigner based on pymatgen
data_DB1-Cu2O8N2-irmof14_A-irmof8_A_No285
_audit_creation_date              2022-05-24
_audit_creation_method            REPEAT_Assigner
_cell_length_a                    12.990200
_cell_length_b                    27.887300
_cell_length_c                    13.534200
_cell_angle_alpha                 90.000300
_cell_angle_beta                  89.997100
_cell_angle_gamma                 89.902400
_cell_volume                      4902.913887
_symmetry_space_group_name_H-M    P1
_symmetry_Int_Tables_number       1
loop_
    _symmetry_equiv_pos_site_id
    _symmetry_equiv_pos_as_xyz
    1  x,y,z
loop_
    _atom_site_type_symbol
    _atom_site_label
    _atom_site_fract_x
    _atom_site_fract_y
    _atom_site_fract_z
    _atom_type_partial_charge
    Cu  Cu1  0.500010  0.500000  0.405970  0.995949
    Cu  Cu2  0.500010  0.500000  0.594030  0.980676
    O   O1   0.633860  0.500030  0.412300  -0.503828
    O   O2   0.365890  0.500110  0.412320  -0.501293
    O   O3   0.499720  0.562480  0.412310  -0.549813
    O   O4   0.500030  0.437660  0.412310  -0.595662
    O   O5   0.500260  0.437510  0.587690  -0.569949
    O   O6   0.500030  0.562340  0.587690  -0.522019
    O   O7   0.366050  0.500030  0.587690  -0.521854
    O   O8   0.634130  0.499870  0.587680  -0.519622
    C   C1   0.693080  0.499960  0.499990  0.537193
    C   C2   0.306940  0.500040  0.500010  0.540054
    C   C3   0.499870  0.589930  0.500000  0.515350
    C   C4   0.500150  0.410070  0.500000  0.592211
    Cu  Cu3  0.500360  0.965810  0.594050  0.993292
    Cu  Cu4  0.499700  0.965810  0.406000  0.976609
    O   O9   0.634190  0.965560  0.587270  -0.506745
    O   O10  0.366220  0.965920  0.588150  -0.515293
    O   O11  0.500040  0.903330  0.587710  -0.546043
    O   O12  0.500370  0.028150  0.587710  -0.590633
    O   O13  0.499990  0.028290  0.412340  -0.567415
    O   O14  0.499740  0.903470  0.412340  -0.522228
    O   O15  0.365760  0.965990  0.412780  -0.527959
    O   O16  0.633850  0.965720  0.411900  -0.516932
    C   C5   0.693100  0.965540  0.499390  0.538136
    C   C6   0.306970  0.966080  0.500660  0.570765
    C   C7   0.499890  0.875880  0.500020  0.512876
    C   C8   0.500180  0.055740  0.500020  0.580994
    C   C9   0.435100  0.530220  0.787890  0.174489
    C   C10  0.438280  0.528740  0.891280  -0.121951
    C   C11  0.374960  0.558230  0.948440  0.231845
    H   H1   0.390330  0.551070  0.755630  0.067206
    C   C12  0.564920  0.469770  0.787880  0.214606
    C   C13  0.561740  0.471250  0.891270  -0.158722
    C   C14  0.625060  0.441770  0.948420  0.242654
    H   H2   0.609690  0.448920  0.755620  0.064366
    C   C15  0.564920  0.469770  0.212110  0.186834
    C   C16  0.561740  0.471250  0.108720  -0.177776
    C   C17  0.625060  0.441770  0.051560  0.276877
    H   H3   0.609690  0.448920  0.244370  0.079218
    C   C18  0.435100  0.530220  0.212120  0.257697
    C   C19  0.438280  0.528740  0.108730  -0.192710
    C   C20  0.374960  0.558230  0.051570  0.238507
    H   H4   0.390320  0.551070  0.244380  0.067336
    N   N1   0.500010  0.500000  0.733780  -0.297140
    C   C21  0.500010  0.500000  0.951230  0.006914
    N   N2   0.500010  0.500000  0.266220  -0.313811
    C   C22  0.500010  0.500000  0.048770  0.054786
    C   C23  0.500010  0.790420  0.572330  0.117536
    C   C24  0.499710  0.808330  0.399400  -0.249034
    C   C25  0.499660  0.759670  0.372670  0.121623
    C   C26  0.499790  0.725350  0.450020  -0.084826
    C   C27  0.499750  0.675390  0.427690  0.126773
    C   C28  0.500050  0.657480  0.600620  -0.248690
    C   C29  0.500100  0.706140  0.627350  0.121841
    C   C30  0.499970  0.740460  0.550010  -0.080626
    C   C31  0.499890  0.822790  0.500020  -0.074519
    C   C32  0.499880  0.643020  0.500010  -0.081239
    H   H5   0.499620  0.835490  0.342400  0.132310
    H   H6   0.500150  0.630320  0.657620  0.133099
    C   C33  0.500270  0.335850  0.588020  0.036855
    C   C34  0.500270  0.285670  0.583710  -0.058942
    C   C35  0.500390  0.257930  0.669580  0.228206
    H   H7   0.500350  0.351510  0.648730  0.052157
    C   C36  0.500040  0.335850  0.411990  -0.006677
    C   C37  0.500050  0.285670  0.416300  -0.051899
    C   C38  0.499930  0.257930  0.330440  0.243804
    H   H8   0.499950  0.351500  0.351270  0.086338
    C   C39  0.500060  0.129960  0.412000  0.030713
    C   C40  0.500060  0.180140  0.416310  -0.055717
    C   C41  0.499940  0.207870  0.330450  0.231230
    H   H9   0.499970  0.114300  0.351290  0.053867
    C   C42  0.500290  0.129960  0.588030  -0.015490
    C   C43  0.500280  0.180140  0.583720  -0.045384
    C   C44  0.500400  0.207880  0.669580  0.244139
    H   H10  0.500380  0.114310  0.648750  0.088914
    C   C45  0.500150  0.362110  0.500000  -0.208732
    C   C46  0.500160  0.256570  0.500010  -0.037042
    C   C47  0.500180  0.103700  0.500020  -0.197769
    C   C48  0.500170  0.209230  0.500010  -0.044724
    C   C49  0.123480  0.500080  0.427690  0.183401
    C   C50  0.161920  0.499930  0.600620  -0.246084
    C   C51  0.057450  0.499890  0.627350  0.104239
    C   C52  0.983790  0.499950  0.550000  -0.063294
    C   C53  0.876540  0.499920  0.572320  0.129252
    C   C54  0.838100  0.500070  0.399380  -0.238429
    C   C55  0.942570  0.500110  0.372660  0.138954
    C   C56  0.016230  0.500050  0.450010  -0.106516
    C   C57  0.192970  0.500020  0.500010  -0.125084
    C   C58  0.807050  0.499970  0.500000  -0.103365
    H   H11  0.220210  0.499890  0.657630  0.144263
    H   H12  0.779800  0.500110  0.342380  0.124049
    C   C59  0.434110  0.935690  0.212350  0.178115
    C   C60  0.436930  0.937170  0.108950  -0.131620
    C   C61  0.373400  0.907780  0.052000  0.238305
    H   H13  0.389450  0.914910  0.244760  0.069245
    C   C62  0.563940  0.995930  0.211930  0.216152
    C   C63  0.560390  0.994460  0.108550  -0.164256
    C   C64  0.623510  0.023840  0.051180  0.242674
    H   H14  0.608820  0.016710  0.244040  0.065198
    C   C65  0.562450  0.995930  0.787700  0.179163
    C   C66  0.559630  0.994460  0.891100  -0.175406
    C   C67  0.623150  0.023840  0.948050  0.278516
    H   H15  0.607110  0.016710  0.755290  0.080449
    C   C68  0.432620  0.935690  0.788120  0.252721
    C   C69  0.436160  0.937170  0.891500  -0.192242
    C   C70  0.373040  0.907780  0.948870  0.235579
    H   H16  0.387730  0.914910  0.756010  0.072994
    N   N3   0.499210  0.965810  0.266250  -0.297023
    C   C71  0.498450  0.965810  0.048800  0.015888
    N   N4   0.497340  0.965810  0.733800  -0.304530
    C   C72  0.498110  0.965810  0.951250  0.050871
    C   C73  0.123760  0.964730  0.570260  0.216096
    C   C74  0.161590  0.964810  0.397190  -0.228365
    C   C75  0.057020  0.965020  0.370820  0.098255
    C   C76  0.983640  0.965080  0.448420  -0.048387
    C   C77  0.876300  0.965290  0.426450  0.116630
    C   C78  0.838470  0.965200  0.599520  -0.239124
    C   C79  0.943040  0.964990  0.625890  0.145250
    C   C80  0.016420  0.964930  0.548300  -0.126105
    C   C81  0.192990  0.964670  0.497710  -0.164964
    C   C82  0.807070  0.965340  0.499000  -0.096529
    H   H17  0.219680  0.964760  0.339990  0.140678
    H   H18  0.780370  0.965250  0.656710  0.123681
    H   H19  0.329520  0.612630  0.169370  0.324729
    H   H20  0.222020  0.596210  0.077850  0.324026
    N   N5   0.302430  0.592000  0.104250  -0.806664
    H   H21  0.258160  0.579380  0.830650  0.346066
    H   H22  0.293370  0.629460  0.922170  0.327755
    N   N6   0.302430  0.592000  0.895770  -0.822794
    H   H23  0.670500  0.387370  0.169350  0.346157
    H   H24  0.778000  0.403790  0.077830  0.335430
    N   N7   0.697590  0.407990  0.104230  -0.845795
    H   H25  0.741850  0.420620  0.830620  0.332887
    H   H26  0.706650  0.370540  0.922150  0.327150
    N   N8   0.697590  0.407990  0.895750  -0.831661
    H   H27  0.551060  0.150670  0.779510  0.317382
    H   H28  0.450100  0.195170  0.828660  0.326912
    N   N9   0.500530  0.182320  0.767930  -0.834673
    H   H29  0.450030  0.315140  0.779630  0.351067
    H   H30  0.551110  0.270650  0.828520  0.316662
    N   N10  0.500520  0.283500  0.767930  -0.833039
    H   H31  0.449290  0.150740  0.220520  0.350888
    H   H32  0.550230  0.195080  0.171370  0.316353
    N   N11  0.499810  0.182310  0.232090  -0.834108
    H   H33  0.550290  0.315060  0.220380  0.319921
    H   H34  0.449210  0.270720  0.171500  0.327612
    N   N12  0.499800  0.283490  0.232090  -0.836875
    H   H35  0.327180  0.853460  0.831220  0.322731
    H   H36  0.220000  0.870050  0.923100  0.323125
    N   N13  0.300320  0.874120  0.896430  -0.803409
    H   H37  0.257020  0.886820  0.170180  0.346195
    H   H38  0.291900  0.836680  0.078540  0.329158
    N   N14  0.301050  0.874120  0.104920  -0.826613
    H   H39  0.668180  0.078170  0.830100  0.347761
    H   H40  0.776010  0.061570  0.921270  0.334919
    N   N15  0.695500  0.057500  0.895140  -0.847404
    H   H41  0.740720  0.044800  0.168590  0.330966
    H   H42  0.705200  0.094940  0.077190  0.326521
    N   N16  0.696230  0.057500  0.103620  -0.828216
    C   C83  0.500300  0.722520  0.736980  -0.107074
    H   H43  0.439940  0.710500  0.769480  0.013124
    H   H44  0.500460  0.756920  0.739900  0.036325
    H   H45  0.560620  0.710280  0.769350  0.035959
    C   C84  0.500230  0.806360  0.682240  -0.219240
    H   H46  0.439870  0.794210  0.714540  0.105904
    H   H47  0.500410  0.840740  0.685740  0.037377
    H   H48  0.560550  0.793980  0.714390  0.116201
    C   C85  0.499480  0.743290  0.263040  -0.105810
    H   H49  0.439000  0.755410  0.230740  0.012583
    H   H50  0.499630  0.708890  0.260120  0.038525
    H   H51  0.559680  0.755440  0.230470  0.035089
    C   C86  0.499530  0.659450  0.317790  -0.227504
    H   H52  0.439050  0.671710  0.285710  0.105117
    H   H53  0.499660  0.625070  0.314290  0.043775
    H   H54  0.559730  0.671720  0.285410  0.115970
    C   C87  0.977750  0.500210  0.263030  -0.158161
    H   H55  0.951960  0.472090  0.230520  0.029003
    H   H56  0.051590  0.500300  0.260120  0.096639
    H   H57  0.951460  0.528310  0.230660  0.037225
    C   C88  0.157720  0.500200  0.317790  -0.267058
    H   H58  0.131660  0.472080  0.285480  0.112457
    H   H59  0.231530  0.500290  0.314290  0.044568
    H   H60  0.131130  0.528290  0.285640  0.088935
    C   C89  0.022270  0.499790  0.736970  -0.060482
    H   H61  0.048300  0.471620  0.769270  0.011341
    H   H62  0.948440  0.499860  0.739890  0.029506
    H   H63  0.048330  0.527840  0.769550  0.004856
    C   C90  0.842300  0.499800  0.682220  -0.267404
    H   H64  0.868620  0.471630  0.714290  0.124588
    H   H65  0.768490  0.499850  0.685710  0.064789
    H   H66  0.868610  0.527840  0.714600  0.117154
    C   C91  0.978610  0.964830  0.735400  -0.167491
    H   H67  0.952930  0.992990  0.767990  0.032058
    H   H68  0.052450  0.964620  0.738070  0.099910
    H   H69  0.952430  0.936770  0.767850  0.039391
    C   C92  0.158380  0.964550  0.680040  -0.291379
    H   H70  0.132430  0.992710  0.712440  0.115845
    H   H71  0.232200  0.964340  0.683300  0.051538
    H   H72  0.131900  0.936500  0.712280  0.093191
    C   C93  0.021460  0.965180  0.261310  -0.068670
    H   H73  0.047380  0.993300  0.228930  0.013649
    H   H74  0.947620  0.965230  0.258640  0.030624
    H   H75  0.047400  0.937090  0.228650  0.007476
    C   C94  0.841680  0.965460  0.316670  -0.258986
    H   H76  0.867890  0.993590  0.284510  0.124285
    H   H77  0.767860  0.965520  0.313420  0.061023
    H   H78  0.867880  0.937370  0.284190  0.116706
