data_DB1-Zn2O8N2-BDC_A-pmof1_A_No20_repeat
_audit_creation_date              2024-02-20
_audit_creation_method            'Materials Studio'
_symmetry_space_group_name_H-M    'P1'
_symmetry_Int_Tables_number       1
_symmetry_cell_setting            triclinic
loop_
_symmetry_equiv_pos_as_xyz
  x,y,z
_cell_length_a                    16.5648
_cell_length_b                    23.8231
_cell_length_c                    10.0170
_cell_angle_alpha                 90.0460
_cell_angle_beta                  90.4710
_cell_angle_gamma                 45.9526
loop_
_atom_site_label
_atom_site_type_symbol
_atom_site_fract_x
_atom_site_fract_y
_atom_site_fract_z
_atom_site_U_iso_or_equiv
_atom_site_adp_type
_atom_site_occupancy
O1     O     0.49599   0.42101   0.63548   0.00000  Uiso   1.00
O2     O     0.49656   0.42074   0.36414   0.00000  Uiso   1.00
C1     C     0.49529   0.39283   0.49981   0.00000  Uiso   1.00
Zn1    Zn    0.50000   0.50001   0.66548   0.00000  Uiso   1.00
O3     O     0.33809   0.58008   0.36243   0.00000  Uiso   1.00
O4     O     0.33802   0.58020   0.63378   0.00000  Uiso   1.00
C2     C     0.28097   0.60834   0.49757   0.00000  Uiso   1.00
O5     O     0.50379   0.57912   0.36451   0.00000  Uiso   1.00
O6     O     0.50364   0.57918   0.63586   0.00000  Uiso   1.00
C3     C     0.50479   0.60714   0.50019   0.00000  Uiso   1.00
Zn2    Zn    0.49999   0.50001   0.33451   0.00000  Uiso   1.00
O7     O     0.66190   0.41983   0.63757   0.00000  Uiso   1.00
O8     O     0.66198   0.41992   0.36621   0.00000  Uiso   1.00
C4     C     0.71901   0.39149   0.50243   0.00000  Uiso   1.00
N1     N     0.49999   0.50001   0.86017   0.00000  Uiso   1.00
N2     N     0.49998   0.50001   0.13983   0.00000  Uiso   1.00
C5     C     0.57289   0.49951   0.93156   0.00000  Uiso   1.00
C6     C     0.42708   0.50051   0.06843   0.00000  Uiso   1.00
C7     C     0.57289   0.49951   0.07043   0.00000  Uiso   1.00
C8     C     0.42708   0.50051   0.92957   0.00000  Uiso   1.00
H1     H     0.62343   0.49917   0.11903   0.00000  Uiso   1.00
H2     H     0.37654   0.50086   0.88097   0.00000  Uiso   1.00
C9     C     0.97712   0.76255   0.37793   0.00000  Uiso   1.00
C10    C     0.50051   0.76061   0.62071   0.00000  Uiso   1.00
C11    C     0.02027   0.23863   0.38091   0.00000  Uiso   1.00
C12    C     0.50227   0.23817   0.62046   0.00000  Uiso   1.00
C13    C     0.02297   0.23743   0.62208   0.00000  Uiso   1.00
C14    C     0.49958   0.23937   0.37929   0.00000  Uiso   1.00
C15    C     0.97981   0.76135   0.61910   0.00000  Uiso   1.00
C16    C     0.49781   0.76181   0.37954   0.00000  Uiso   1.00
H3     H     0.93100   0.78547   0.28452   0.00000  Uiso   1.00
H4     H     0.50158   0.78267   0.71425   0.00000  Uiso   1.00
H5     H     0.06430   0.21664   0.28721   0.00000  Uiso   1.00
H6     H     0.50329   0.21518   0.71402   0.00000  Uiso   1.00
H7     H     0.06909   0.21451   0.71549   0.00000  Uiso   1.00
H8     H     0.49851   0.21731   0.28575   0.00000  Uiso   1.00
H9     H     0.93578   0.78334   0.71279   0.00000  Uiso   1.00
H10    H     0.49679   0.78480   0.28598   0.00000  Uiso   1.00
C17    C     0.09459   0.70343   0.37745   0.00000  Uiso   1.00
C18    C     0.50162   0.70132   0.62085   0.00000  Uiso   1.00
C19    C     0.90280   0.29774   0.38116   0.00000  Uiso   1.00
C20    C     0.50116   0.29746   0.62055   0.00000  Uiso   1.00
C21    C     0.90550   0.29654   0.62256   0.00000  Uiso   1.00
C22    C     0.49846   0.29866   0.37915   0.00000  Uiso   1.00
C23    C     0.09728   0.70223   0.61884   0.00000  Uiso   1.00
C24    C     0.49892   0.70252   0.37946   0.00000  Uiso   1.00
H11    H     0.13725   0.68177   0.28296   0.00000  Uiso   1.00
H12    H     0.50335   0.67865   0.71522   0.00000  Uiso   1.00
H13    H     0.85803   0.32034   0.28694   0.00000  Uiso   1.00
H14    H     0.50154   0.31919   0.71489   0.00000  Uiso   1.00
H15    H     0.86283   0.31820   0.71705   0.00000  Uiso   1.00
H16    H     0.49673   0.32133   0.28479   0.00000  Uiso   1.00
H17    H     0.14206   0.67963   0.71306   0.00000  Uiso   1.00
H18    H     0.49855   0.68079   0.28511   0.00000  Uiso   1.00
N3     N     0.62054   0.87968   0.49966   0.00000  Uiso   1.00
N4     N     0.37955   0.12030   0.50035   0.00000  Uiso   1.00
C25    C     0.73936   0.82930   0.49928   0.00000  Uiso   1.00
C26    C     0.60283   0.82909   0.49974   0.00000  Uiso   1.00
C27    C     0.26072   0.17068   0.50072   0.00000  Uiso   1.00
C28    C     0.39726   0.17089   0.50026   0.00000  Uiso   1.00
C29    C     0.79243   0.74798   0.49915   0.00000  Uiso   1.00
C30    C     0.71255   0.74786   0.49941   0.00000  Uiso   1.00
C31    C     0.20766   0.25199   0.50086   0.00000  Uiso   1.00
C32    C     0.28754   0.25211   0.50059   0.00000  Uiso   1.00
H19    H     0.88155   0.69593   0.49887   0.00000  Uiso   1.00
H20    H     0.72780   0.69570   0.49939   0.00000  Uiso   1.00
H21    H     0.11854   0.30404   0.50113   0.00000  Uiso   1.00
H22    H     0.27228   0.30428   0.50061   0.00000  Uiso   1.00
C33    C     0.73815   0.93629   0.49923   0.00000  Uiso   1.00
C34    C     0.39007   0.93575   0.50041   0.00000  Uiso   1.00
C35    C     0.26194   0.06369   0.50077   0.00000  Uiso   1.00
C36    C     0.61002   0.06422   0.49960   0.00000  Uiso   1.00
C37    C     0.79435   0.96007   0.49903   0.00000  Uiso   1.00
C38    C     0.28648   0.95929   0.50074   0.00000  Uiso   1.00
C39    C     0.20573   0.03991   0.50097   0.00000  Uiso   1.00
C40    C     0.71361   0.04069   0.49926   0.00000  Uiso   1.00
H23    H     0.88428   0.92314   0.49874   0.00000  Uiso   1.00
H24    H     0.27067   0.92220   0.50082   0.00000  Uiso   1.00
H25    H     0.11580   0.07683   0.50126   0.00000  Uiso   1.00
H26    H     0.72942   0.07778   0.49919   0.00000  Uiso   1.00
C41    C     0.79454   0.85254   0.49908   0.00000  Uiso   1.00
C42    C     0.50134   0.85209   0.50007   0.00000  Uiso   1.00
C43    C     0.20555   0.14743   0.50092   0.00000  Uiso   1.00
C44    C     0.49875   0.14788   0.49993   0.00000  Uiso   1.00
C45    C     0.91911   0.79154   0.49870   0.00000  Uiso   1.00
C46    C     0.49914   0.79090   0.50011   0.00000  Uiso   1.00
C47    C     0.08097   0.20843   0.50131   0.00000  Uiso   1.00
C48    C     0.50094   0.20908   0.49989   0.00000  Uiso   1.00
C49    C     0.15626   0.67222   0.49796   0.00000  Uiso   1.00
C50    C     0.50137   0.67121   0.50017   0.00000  Uiso   1.00
C51    C     0.84383   0.32776   0.50204   0.00000  Uiso   1.00
C52    C     0.49871   0.32877   0.49984   0.00000  Uiso   1.00
N5     N     0.62635   0.00018   0.49957   0.00000  Uiso   1.00
N6     N     0.37374   0.99979   0.50043   0.00000  Uiso   1.00
H27    H     0.56454   0.00009   0.49978   0.00000  Uiso   1.00
H28    H     0.43554   0.99989   0.50022   0.00000  Uiso   1.00
H29    H     0.62223   0.53723   0.76851   0.00000  Uiso   1.00
H30    H     0.74099   0.46031   0.89147   0.00000  Uiso   1.00
N7     N     0.65239   0.49897   0.85729   0.00000  Uiso   1.00
H31    H     0.30168   0.53943   0.23060   0.00000  Uiso   1.00
H32    H     0.33505   0.46309   0.10942   0.00000  Uiso   1.00
N8     N     0.34758   0.50106   0.14271   0.00000  Uiso   1.00
