# generated using pymatgen
data_Zn4H30C36Br2O13
_symmetry_space_group_name_H-M   'P 1'
_cell_length_a   39.04440000
_cell_length_b   23.81570000
_cell_length_c   23.13820000
_cell_angle_alpha   135.37800000
_cell_angle_beta   34.21150000
_cell_angle_gamma   146.88400000
_symmetry_Int_Tables_number   1
_chemical_formula_structural   Zn4H30C36Br2O13
_chemical_formula_sum   'Zn8 H60 C72 Br4 O26'
_cell_volume   6596.26012970
_cell_formula_units_Z   2
loop_
 _symmetry_equiv_pos_site_id
 _symmetry_equiv_pos_as_xyz
  1  'x, y, z'
loop_
 _atom_site_type_symbol
 _atom_site_label
 _atom_site_symmetry_multiplicity
 _atom_site_fract_x
 _atom_site_fract_y
 _atom_site_fract_z
 _atom_site_occupancy
  Zn  Zn1  1  0.52675000  0.41092000  0.41113000  1
  Zn  Zn2  1  0.38761000  0.41653000  0.58373000  1
  Zn  Zn3  1  0.55496000  0.58347000  0.41627000  1
  Zn  Zn4  1  0.53067000  0.58909000  0.58886000  1
  Zn  Zn5  1  0.97331000  0.58922000  0.58886000  1
  Zn  Zn6  1  0.94518000  0.41670000  0.58363000  1
  Zn  Zn7  1  0.11252000  0.58372000  0.41625000  1
  Zn  Zn8  1  0.96948000  0.41112000  0.41105000  1
  H  H1  1  0.86308000  0.38140000  0.38151000  1
  H  H2  1  0.80182000  0.38125000  0.38140000  1
  H  H3  1  0.80697000  0.61887000  0.61857000  1
  H  H4  1  0.69303000  0.38116000  0.38145000  1
  H  H5  1  0.63702000  0.61873000  0.61844000  1
  H  H6  1  0.69827000  0.61886000  0.61854000  1
  H  H7  1  0.24588000  0.61111000  0.38834000  1
  H  H8  1  0.30724000  0.61125000  0.38825000  1
  H  H9  1  0.08400000  0.38863000  0.61172000  1
  H  H10  1  0.41598000  0.61135000  0.38830000  1
  H  H11  1  0.25407000  0.38875000  0.61159000  1
  H  H12  1  0.19273000  0.38864000  0.61169000  1
  H  H13  1  0.78720000  0.59019000  0.10573000  1
  H  H14  1  0.78081000  0.65859000  0.10540000  1
  H  H15  1  0.87565000  0.66746000  0.93152000  1
  H  H16  1  0.87822000  0.59303000  0.93100000  1
  H  H17  1  0.78415000  0.57509000  0.91198000  1
  H  H18  1  0.71694000  0.43276000  0.90001000  1
  H  H19  1  0.69146000  0.56709000  0.08459000  1
  H  H20  1  0.62635000  0.42484000  0.07131000  1
  H  H21  1  0.70128000  0.40284000  0.08607000  1
  H  H22  1  0.63303000  0.33181000  0.06805000  1
  H  H23  1  0.72361000  0.33932000  0.89844000  1
  H  H24  1  0.79145000  0.40893000  0.91636000  1
  H  H25  1  0.30862000  0.40982000  0.89427000  1
  H  H26  1  0.23201000  0.34141000  0.89460000  1
  H  H27  1  0.14736000  0.33254000  0.06848000  1
  H  H28  1  0.22547000  0.40697000  0.06900000  1
  H  H29  1  0.13109000  0.42491000  0.08801000  1
  H  H30  1  0.19756000  0.56724000  0.09999000  1
  H  H31  1  0.21574000  0.43291000  0.91541000  1
  H  H32  1  0.28297000  0.57516000  0.92869000  1
  H  H33  1  0.39484000  0.59716000  0.91393000  1
  H  H34  1  0.38152000  0.66820000  0.93195000  1
  H  H35  1  0.29818000  0.66068000  0.10156000  1
  H  H36  1  0.31245000  0.59107000  0.08364000  1
  H  H37  1  0.26899000  0.10745000  0.63218000  1
  H  H38  1  0.34966000  0.10102000  0.50738000  1
  H  H39  1  0.26076000  0.92725000  0.51750000  1
  H  H40  1  0.17941000  0.93290000  0.63880000  1
  H  H41  1  0.29855000  0.90518000  0.35503000  1
  H  H42  1  0.24795000  0.89740000  0.35369000  1
  H  H43  1  0.38558000  0.07775000  0.34809000  1
  H  H44  1  0.33233000  0.06880000  0.35101000  1
  H  H45  1  0.19959000  0.09336000  0.63220000  1
  H  H46  1  0.22627000  0.07346000  0.50914000  1
  H  H47  1  0.14110000  0.90386000  0.51497000  1
  H  H48  1  0.11354000  0.92374000  0.63885000  1
  H  H49  1  0.79964000  0.89255000  0.36782000  1
  H  H50  1  0.76455000  0.89898000  0.49262000  1
  H  H51  1  0.86313000  0.07275000  0.48250000  1
  H  H52  1  0.89491000  0.06710000  0.36120000  1
  H  H53  1  0.76422000  0.09482000  0.64497000  1
  H  H54  1  0.72026000  0.10260000  0.64631000  1
  H  H55  1  0.66813000  0.92225000  0.65190000  1
  H  H56  1  0.62689000  0.93120000  0.64899000  1
  H  H57  1  0.74466000  0.90664000  0.36779000  1
  H  H58  1  0.67105000  0.92654000  0.49086000  1
  H  H59  1  0.76489000  0.09614000  0.48503000  1
  H  H60  1  0.83844000  0.07626000  0.36115000  1
  C  C1  1  0.36314000  0.22424000  0.49179000  1
  C  C2  1  0.40823000  0.50000000  0.50000000  1
  C  C3  1  0.63059000  0.49102000  0.22417000  1
  C  C4  1  0.63686000  0.77576000  0.50821000  1
  C  C5  1  0.59177000  0.50000000  0.50000000  1
  C  C6  1  0.36941000  0.50898000  0.77583000  1
  C  C7  1  0.86948000  0.50904000  0.77577000  1
  C  C8  1  0.09194000  0.50026000  0.49992000  1
  C  C9  1  0.13690000  0.77596000  0.50828000  1
  C  C10  1  0.13077000  0.49134000  0.22412000  1
  C  C11  1  0.90831000  0.50013000  0.49997000  1
  C  C12  1  0.86335000  0.22443000  0.49161000  1
  C  C13  1  0.87200000  0.50010000  0.49998000  1
  C  C14  1  0.85165000  0.43193000  0.43194000  1
  C  C15  1  0.81557000  0.43170000  0.43175000  1
  C  C16  1  0.79877000  0.50006000  0.49999000  1
  C  C17  1  0.81853000  0.56843000  0.56822000  1
  C  C18  1  0.85461000  0.56825000  0.56802000  1
  C  C19  1  0.76534000  0.50004000  0.49999000  1
  C  C20  1  0.73471000  0.50002000  0.49998000  1
  C  C21  1  0.70127000  0.50002000  0.49999000  1
  C  C22  1  0.68149000  0.43162000  0.43178000  1
  C  C23  1  0.64542000  0.43182000  0.43199000  1
  C  C24  1  0.62806000  0.50000000  0.50000000  1
  C  C25  1  0.64843000  0.56819000  0.56801000  1
  C  C26  1  0.68450000  0.56840000  0.56821000  1
  C  C27  1  0.12802000  0.49990000  0.49997000  1
  C  C28  1  0.21093000  0.56377000  0.43587000  1
  C  C29  1  0.24719000  0.56399000  0.43569000  1
  C  C30  1  0.20124000  0.49994000  0.49998000  1
  C  C31  1  0.11873000  0.43588000  0.56428000  1
  C  C32  1  0.08285000  0.43605000  0.56408000  1
  C  C33  1  0.23468000  0.49996000  0.49998000  1
  C  C34  1  0.26531000  0.49998000  0.49998000  1
  C  C35  1  0.29873000  0.49999000  0.49999000  1
  C  C36  1  0.38124000  0.56407000  0.43572000  1
  C  C37  1  0.41712000  0.56389000  0.43592000  1
  C  C38  1  0.37194000  0.50000000  0.50000000  1
  C  C39  1  0.28903000  0.43611000  0.56408000  1
  C  C40  1  0.25278000  0.43591000  0.56427000  1
  C  C41  1  0.77565000  0.58815000  0.07214000  1
  C  C42  1  0.83843000  0.59259000  0.95432000  1
  C  C43  1  0.80797000  0.50440000  0.89122000  1
  C  C44  1  0.75007000  0.50296000  0.93479000  1
  C  C45  1  0.68706000  0.49776000  0.05259000  1
  C  C46  1  0.69149000  0.49562000  0.10986000  1
  C  C47  1  0.69216000  0.40690000  0.05367000  1
  C  C48  1  0.75475000  0.41140000  0.93572000  1
  C  C49  1  0.26622000  0.41185000  0.92786000  1
  C  C50  1  0.20898000  0.40741000  0.04568000  1
  C  C51  1  0.20678000  0.49560000  0.10878000  1
  C  C52  1  0.19305000  0.49704000  0.06521000  1
  C  C53  1  0.25083000  0.50224000  0.94741000  1
  C  C54  1  0.31358000  0.50438000  0.89014000  1
  C  C55  1  0.34983000  0.59310000  0.94632000  1
  C  C56  1  0.29221000  0.58860000  0.06427000  1
  C  C57  1  0.29041000  0.07125000  0.55010000  1
  C  C58  1  0.23064000  0.95349000  0.55491000  1
  C  C59  1  0.19515000  0.89137000  0.50404000  1
  C  C60  1  0.26683000  0.93151000  0.39767000  1
  C  C61  1  0.32612000  0.04930000  0.39334000  1
  C  C62  1  0.30547000  0.10996000  0.49599000  1
  C  C63  1  0.22366000  0.05818000  0.54989000  1
  C  C64  1  0.16426000  0.94026000  0.55383000  1
  C  C65  1  0.77759000  0.92875000  0.44990000  1
  C  C66  1  0.84287000  0.04651000  0.44509000  1
  C  C67  1  0.82098000  0.10863000  0.49596000  1
  C  C68  1  0.74740000  0.06849000  0.60233000  1
  C  C69  1  0.68209000  0.95070000  0.60666000  1
  C  C70  1  0.70007000  0.89004000  0.50400000  1
  C  C71  1  0.72400000  0.94182000  0.45011000  1
  C  C72  1  0.78895000  0.05974000  0.44617000  1
  Br  Br1  1  0.88224000  0.67080000  0.67036000  1
  Br  Br2  1  0.61776000  0.32924000  0.32968000  1
  Br  Br3  1  0.96112000  0.33997000  0.66051000  1
  Br  Br4  1  0.53885000  0.65999000  0.33953000  1
  O  O1  1  0.50000000  0.50000000  0.50000000  1
  O  O2  1  0.43666000  0.26728000  0.42970000  1
  O  O3  1  0.36173000  0.43865000  0.56155000  1
  O  O4  1  0.61960000  0.55591000  0.27117000  1
  O  O5  1  0.33439000  0.27141000  0.55657000  1
  O  O6  1  0.59886000  0.42907000  0.26739000  1
  O  O7  1  0.48475000  0.56135000  0.43845000  1
  O  O8  1  0.62340000  0.72860000  0.44343000  1
  O  O9  1  0.57820000  0.56548000  0.56532000  1
  O  O10  1  0.60555000  0.73273000  0.57030000  1
  O  O11  1  0.57532000  0.43452000  0.43468000  1
  O  O12  1  0.33819000  0.44409000  0.72883000  1
  O  O13  1  0.44335000  0.57093000  0.73260000  1
  O  O14  1  0.00012000  0.50019000  0.49995000  1
  O  O15  1  0.90119000  0.57100000  0.73258000  1
  O  O16  1  0.01542000  0.43886000  0.56144000  1
  O  O17  1  0.16569000  0.72883000  0.44348000  1
  O  O18  1  0.88050000  0.44419000  0.72874000  1
  O  O19  1  0.06337000  0.73287000  0.57036000  1
  O  O20  1  0.13842000  0.56163000  0.43841000  1
  O  O21  1  0.16197000  0.55622000  0.27114000  1
  O  O22  1  0.92192000  0.43468000  0.43462000  1
  O  O23  1  0.05683000  0.42936000  0.26732000  1
  O  O24  1  0.92474000  0.56559000  0.56532000  1
  O  O25  1  0.87679000  0.27158000  0.55640000  1
  O  O26  1  0.89465000  0.26748000  0.42955000  1
