# generated using pymatgen
data_CuH20C25NO6
_symmetry_space_group_name_H-M   'P 1'
_cell_length_a   22.02840000
_cell_length_b   22.02920000
_cell_length_c   36.71960000
_cell_angle_alpha   65.37140000
_cell_angle_beta   114.62900000
_cell_angle_gamma   130.68000000
_symmetry_Int_Tables_number   1
_chemical_formula_structural   CuH20C25NO6
_chemical_formula_sum   'Cu8 H160 C200 N8 O48'
_cell_volume   12008.64055733
_cell_formula_units_Z   8
loop_
 _symmetry_equiv_pos_site_id
 _symmetry_equiv_pos_as_xyz
  1  'x, y, z'
loop_
 _atom_site_type_symbol
 _atom_site_label
 _atom_site_symmetry_multiplicity
 _atom_site_fract_x
 _atom_site_fract_y
 _atom_site_fract_z
 _atom_site_occupancy
  Cu  Cu1  1  0.46423000  0.53577000  0.48211000  1
  Cu  Cu2  1  0.53577000  0.46423000  0.51788000  1
  Cu  Cu3  1  0.03576000  0.96423000  0.76788000  1
  Cu  Cu4  1  0.96423000  0.03576000  0.73211000  1
  Cu  Cu5  1  0.96424000  0.03577000  0.23211000  1
  Cu  Cu6  1  0.03577000  0.96424000  0.26788000  1
  Cu  Cu7  1  0.53577000  0.46424000  0.01788000  1
  Cu  Cu8  1  0.46424000  0.53577000  0.98211000  1
  H  H1  1  0.40656000  0.59344000  0.39618000  1
  H  H2  1  0.40657000  0.59344000  0.51038000  1
  H  H3  1  0.33813000  0.66187000  0.47619000  1
  H  H4  1  0.20296000  0.63503000  0.35143000  1
  H  H5  1  0.36498000  0.79703000  0.43253000  1
  H  H6  1  0.07999000  0.19990000  0.65011000  1
  H  H7  1  0.41994000  0.30004000  0.59985000  1
  H  H8  1  0.92002000  0.80008000  0.34990000  1
  H  H9  1  0.58003000  0.69993000  0.40012000  1
  H  H10  1  0.19993000  0.08002000  0.34989000  1
  H  H11  1  0.30002000  0.41992000  0.40014000  1
  H  H12  1  0.92047000  0.80052000  0.70984000  1
  H  H13  1  0.57990000  0.69979000  0.53999000  1
  H  H14  1  0.40656000  0.59344000  0.89618000  1
  H  H15  1  0.33813000  0.66187000  0.86193000  1
  H  H16  1  0.40657000  0.59344000  0.01038000  1
  H  H17  1  0.36498000  0.79703000  0.93253000  1
  H  H18  1  0.20296000  0.63503000  0.85143000  1
  H  H19  1  0.97938000  0.79251000  0.79672000  1
  H  H20  1  0.20750000  0.02062000  0.79672000  1
  H  H21  1  0.27600000  0.95225000  0.83093000  1
  H  H22  1  0.13502000  0.70297000  0.81746000  1
  H  H23  1  0.29704000  0.86497000  0.89856000  1
  H  H24  1  0.58033000  0.70026000  0.90027000  1
  H  H25  1  0.92032000  0.80043000  0.85005000  1
  H  H26  1  0.29935000  0.41924000  0.90048000  1
  H  H27  1  0.19973000  0.07982000  0.84998000  1
  H  H28  1  0.59345000  0.40657000  0.10382000  1
  H  H29  1  0.66188000  0.33813000  0.13807000  1
  H  H30  1  0.59344000  0.40657000  0.98962000  1
  H  H31  1  0.79704000  0.36497000  0.06746000  1
  H  H32  1  0.63503000  0.20297000  0.14856000  1
  H  H33  1  0.79251000  0.97938000  0.20328000  1
  H  H34  1  0.02063000  0.20749000  0.20328000  1
  H  H35  1  0.95226000  0.27600000  0.16906000  1
  H  H36  1  0.70297000  0.13503000  0.18253000  1
  H  H37  1  0.86498000  0.29703000  0.10143000  1
  H  H38  1  0.70023000  0.58033000  0.09973000  1
  H  H39  1  0.80042000  0.92033000  0.14995000  1
  H  H40  1  0.41925000  0.29931000  0.09951000  1
  H  H41  1  0.07982000  0.19972000  0.15002000  1
  H  H42  1  0.87883000  0.30033000  0.66629000  1
  H  H43  1  0.58333000  0.33011000  0.65546000  1
  H  H44  1  0.30034000  0.87883000  0.33370000  1
  H  H45  1  0.33010000  0.58332000  0.34453000  1
  H  H46  1  0.24597000  0.66747000  0.93947000  1
  H  H47  1  0.94251000  0.68931000  0.79163000  1
  H  H48  1  0.66747000  0.24597000  0.06053000  1
  H  H49  1  0.68930000  0.94252000  0.20836000  1
  H  H50  1  0.40650000  0.20150000  0.67920000  1
  H  H51  1  0.31514000  0.13265000  0.68334000  1
  H  H52  1  0.34634000  0.14144000  0.64889000  1
  H  H53  1  0.29575000  0.13255000  0.71367000  1
  H  H54  1  0.20455000  0.06327000  0.71802000  1
  H  H55  1  0.23559000  0.07251000  0.68335000  1
  H  H56  1  0.15382000  0.35867000  0.60106000  1
  H  H57  1  0.18463000  0.36712000  0.56654000  1
  H  H58  1  0.09335000  0.29840000  0.57086000  1
  H  H59  1  0.26459000  0.42762000  0.56660000  1
  H  H60  1  0.29523000  0.43652000  0.53186000  1
  H  H61  1  0.20412000  0.36737000  0.53638000  1
  H  H62  1  0.65384000  0.85869000  0.35105000  1
  H  H63  1  0.68466000  0.86713000  0.31654000  1
  H  H64  1  0.59338000  0.79840000  0.32086000  1
  H  H65  1  0.76457000  0.92761000  0.31657000  1
  H  H66  1  0.79521000  0.93647000  0.28184000  1
  H  H67  1  0.70411000  0.86730000  0.28638000  1
  H  H68  1  0.90659000  0.70159000  0.42925000  1
  H  H69  1  0.81523000  0.63272000  0.43339000  1
  H  H70  1  0.84645000  0.64152000  0.39895000  1
  H  H71  1  0.79587000  0.63269000  0.46373000  1
  H  H72  1  0.70469000  0.56340000  0.46810000  1
  H  H73  1  0.73571000  0.57258000  0.43344000  1
  H  H74  1  0.20147000  0.40647000  0.32080000  1
  H  H75  1  0.13262000  0.31510000  0.31666000  1
  H  H76  1  0.14141000  0.34630000  0.35111000  1
  H  H77  1  0.13252000  0.29572000  0.28632000  1
  H  H78  1  0.06325000  0.20453000  0.28197000  1
  H  H79  1  0.07248000  0.23556000  0.31664000  1
  H  H80  1  0.35871000  0.15387000  0.39893000  1
  H  H81  1  0.36716000  0.18467000  0.43345000  1
  H  H82  1  0.29844000  0.09338000  0.42913000  1
  H  H83  1  0.42765000  0.26463000  0.43339000  1
  H  H84  1  0.43654000  0.29527000  0.46813000  1
  H  H85  1  0.36740000  0.20415000  0.46361000  1
  H  H86  1  0.59336000  0.79822000  0.57687000  1
  H  H87  1  0.68473000  0.86719000  0.59219000  1
  H  H88  1  0.65336000  0.85835000  0.54652000  1
  H  H89  1  0.70427000  0.86732000  0.63217000  1
  H  H90  1  0.79547000  0.93671000  0.64739000  1
  H  H91  1  0.76426000  0.92743000  0.60182000  1
  H  H92  1  0.84678000  0.64179000  0.70327000  1
  H  H93  1  0.81581000  0.63329000  0.65757000  1
  H  H94  1  0.90709000  0.70213000  0.67308000  1
  H  H95  1  0.73586000  0.57270000  0.64797000  1
  H  H96  1  0.70504000  0.56375000  0.60236000  1
  H  H97  1  0.79616000  0.63301000  0.61778000  1
  H  H98  1  0.90721000  0.70236000  0.92950000  1
  H  H99  1  0.81591000  0.63344000  0.93374000  1
  H  H100  1  0.84706000  0.64205000  0.89932000  1
  H  H101  1  0.79655000  0.63351000  0.96402000  1
  H  H102  1  0.70542000  0.56416000  0.96846000  1
  H  H103  1  0.73641000  0.57321000  0.93383000  1
  H  H104  1  0.65381000  0.85881000  0.85099000  1
  H  H105  1  0.68457000  0.86708000  0.81650000  1
  H  H106  1  0.59335000  0.79828000  0.82091000  1
  H  H107  1  0.76449000  0.92766000  0.81648000  1
  H  H108  1  0.79508000  0.93637000  0.78178000  1
  H  H109  1  0.70403000  0.86716000  0.78639000  1
  H  H110  1  0.35832000  0.15343000  0.89923000  1
  H  H111  1  0.36654000  0.18404000  0.93376000  1
  H  H112  1  0.29784000  0.09282000  0.92933000  1
  H  H113  1  0.42701000  0.26392000  0.93383000  1
  H  H114  1  0.43564000  0.29434000  0.96858000  1
  H  H115  1  0.36651000  0.20330000  0.96392000  1
  H  H116  1  0.20122000  0.40617000  0.82104000  1
  H  H117  1  0.13238000  0.31487000  0.81678000  1
  H  H118  1  0.14095000  0.34587000  0.85125000  1
  H  H119  1  0.13255000  0.29568000  0.78644000  1
  H  H120  1  0.06329000  0.20457000  0.78195000  1
  H  H121  1  0.07225000  0.23538000  0.81663000  1
  H  H122  1  0.70234000  0.90721000  0.07049000  1
  H  H123  1  0.63341000  0.81591000  0.06626000  1
  H  H124  1  0.64203000  0.84707000  0.10068000  1
  H  H125  1  0.63348000  0.79655000  0.03597000  1
  H  H126  1  0.56413000  0.70542000  0.03153000  1
  H  H127  1  0.57318000  0.73641000  0.06617000  1
  H  H128  1  0.85878000  0.65381000  0.14901000  1
  H  H129  1  0.86706000  0.68457000  0.18349000  1
  H  H130  1  0.79826000  0.59335000  0.17909000  1
  H  H131  1  0.92764000  0.76449000  0.18352000  1
  H  H132  1  0.93636000  0.79509000  0.21821000  1
  H  H133  1  0.86714000  0.70403000  0.21361000  1
  H  H134  1  0.15343000  0.35830000  0.10076000  1
  H  H135  1  0.18404000  0.36651000  0.06623000  1
  H  H136  1  0.09282000  0.29782000  0.07067000  1
  H  H137  1  0.26392000  0.42698000  0.06616000  1
  H  H138  1  0.29434000  0.43561000  0.03141000  1
  H  H139  1  0.20330000  0.36648000  0.03607000  1
  H  H140  1  0.40617000  0.20119000  0.17895000  1
  H  H141  1  0.31487000  0.13236000  0.18321000  1
  H  H142  1  0.34587000  0.14092000  0.14874000  1
  H  H143  1  0.29569000  0.13253000  0.21355000  1
  H  H144  1  0.20457000  0.06328000  0.21804000  1
  H  H145  1  0.23538000  0.07223000  0.18336000  1
  H  H146  1  0.79250000  0.97938000  0.70328000  1
  H  H147  1  0.72400000  0.04775000  0.66906000  1
  H  H148  1  0.02062000  0.20749000  0.70328000  1
  H  H149  1  0.86497000  0.29703000  0.60143000  1
  H  H150  1  0.70297000  0.13503000  0.68253000  1
  H  H151  1  0.59344000  0.40656000  0.60381000  1
  H  H152  1  0.59343000  0.40656000  0.48961000  1
  H  H153  1  0.66187000  0.33813000  0.52380000  1
  H  H154  1  0.63503000  0.20297000  0.64856000  1
  H  H155  1  0.79703000  0.36497000  0.56746000  1
  H  H156  1  0.97938000  0.79251000  0.29672000  1
  H  H157  1  0.04774000  0.72401000  0.33093000  1
  H  H158  1  0.20750000  0.02062000  0.29672000  1
  H  H159  1  0.29704000  0.86497000  0.39856000  1
  H  H160  1  0.13502000  0.70297000  0.31746000  1
  C  C1  1  0.40350000  0.40350000  0.45171000  1
  C  C2  1  0.35261000  0.64739000  0.39336000  1
  C  C3  1  0.39188000  0.60813000  0.47896000  1
  C  C4  1  0.35262000  0.64739000  0.45925000  1
  C  C5  1  0.33268000  0.66732000  0.41634000  1
  C  C6  1  0.28980000  0.71020000  0.39490000  1
  C  C7  1  0.22312000  0.68363000  0.36153000  1
  C  C8  1  0.31638000  0.77687000  0.40821000  1
  C  C9  1  0.59651000  0.59650000  0.54828000  1
  C  C10  1  0.21566000  0.16064000  0.66956000  1
  C  C11  1  0.13079000  0.20734000  0.64635000  1
  C  C12  1  0.17291000  0.26978000  0.61518000  1
  C  C13  1  0.23911000  0.27714000  0.61144000  1
  C  C14  1  0.28428000  0.33930000  0.58040000  1
  C  C15  1  0.36915000  0.29261000  0.60361000  1
  C  C16  1  0.32703000  0.23016000  0.63479000  1
  C  C17  1  0.26083000  0.22280000  0.63852000  1
  C  C18  1  0.40350000  0.40350000  0.54828000  1
  C  C19  1  0.15345000  0.15345000  0.67320000  1
  C  C20  1  0.34649000  0.34649000  0.57676000  1
  C  C21  1  0.78433000  0.83932000  0.33042000  1
  C  C22  1  0.86922000  0.79265000  0.35365000  1
  C  C23  1  0.82711000  0.73022000  0.38483000  1
  C  C24  1  0.76090000  0.72285000  0.38855000  1
  C  C25  1  0.71573000  0.66070000  0.41960000  1
  C  C26  1  0.63083000  0.70737000  0.39637000  1
  C  C27  1  0.59650000  0.59650000  0.45171000  1
  C  C28  1  0.67294000  0.76980000  0.36519000  1
  C  C29  1  0.73916000  0.77717000  0.36146000  1
  C  C30  1  0.84654000  0.84652000  0.32679000  1
  C  C31  1  0.65351000  0.65350000  0.42323000  1
  C  C32  1  0.16064000  0.21565000  0.33044000  1
  C  C33  1  0.20736000  0.13081000  0.35364000  1
  C  C34  1  0.26981000  0.17293000  0.38482000  1
  C  C35  1  0.27715000  0.23912000  0.38855000  1
  C  C36  1  0.33931000  0.28430000  0.41959000  1
  C  C37  1  0.29259000  0.36914000  0.39639000  1
  C  C38  1  0.23014000  0.32702000  0.36521000  1
  C  C39  1  0.22280000  0.26083000  0.36147000  1
  C  C40  1  0.15346000  0.15345000  0.32679000  1
  C  C41  1  0.34649000  0.34649000  0.42323000  1
  C  C42  1  0.78446000  0.83944000  0.64201000  1
  C  C43  1  0.86957000  0.79299000  0.68446000  1
  C  C44  1  0.82744000  0.73053000  0.66345000  1
  C  C45  1  0.76110000  0.72304000  0.63037000  1
  C  C46  1  0.71590000  0.66087000  0.60783000  1
  C  C47  1  0.63079000  0.70732000  0.56538000  1
  C  C48  1  0.67293000  0.76978000  0.58639000  1
  C  C49  1  0.73926000  0.77727000  0.61947000  1
  C  C50  1  0.84679000  0.84676000  0.67310000  1
  C  C51  1  0.65357000  0.65355000  0.57674000  1
  C  C52  1  0.39187000  0.60813000  0.91291000  1
  C  C53  1  0.35261000  0.64739000  0.89336000  1
  C  C54  1  0.39188000  0.60813000  0.97896000  1
  C  C55  1  0.35262000  0.64739000  0.95925000  1
  C  C56  1  0.33269000  0.66732000  0.91634000  1
  C  C57  1  0.28980000  0.71020000  0.89490000  1
  C  C58  1  0.31638000  0.77688000  0.90821000  1
  C  C59  1  0.22312000  0.68363000  0.86153000  1
  C  C60  1  0.04216000  0.82591000  0.80406000  1
  C  C61  1  0.08158000  0.78681000  0.82369000  1
  C  C62  1  0.17410000  0.95784000  0.80406000  1
  C  C63  1  0.21319000  0.91842000  0.82369000  1
  C  C64  1  0.16732000  0.83268000  0.83366000  1
  C  C65  1  0.21020000  0.78980000  0.85510000  1
  C  C66  1  0.18362000  0.72313000  0.84178000  1
  C  C67  1  0.27688000  0.81638000  0.88846000  1
  C  C68  1  0.71624000  0.66125000  0.91986000  1
  C  C69  1  0.63115000  0.70772000  0.89653000  1
  C  C70  1  0.67313000  0.77002000  0.86528000  1
  C  C71  1  0.73937000  0.77742000  0.86158000  1
  C  C72  1  0.78441000  0.83944000  0.83047000  1
  C  C73  1  0.86950000  0.79297000  0.85379000  1
  C  C74  1  0.82753000  0.73067000  0.88504000  1
  C  C75  1  0.76128000  0.72327000  0.88875000  1
  C  C76  1  0.65400000  0.65402000  0.92348000  1
  C  C77  1  0.84666000  0.84667000  0.82684000  1
  C  C78  1  0.33867000  0.28364000  0.91991000  1
  C  C79  1  0.29198000  0.36852000  0.89670000  1
  C  C80  1  0.22970000  0.32657000  0.86543000  1
  C  C81  1  0.22241000  0.26044000  0.86167000  1
  C  C82  1  0.16042000  0.21543000  0.83055000  1
  C  C83  1  0.20710000  0.13055000  0.85376000  1
  C  C84  1  0.26939000  0.17250000  0.88502000  1
  C  C85  1  0.27667000  0.23863000  0.88879000  1
  C  C86  1  0.34579000  0.34577000  0.92359000  1
  C  C87  1  0.15330000  0.15329000  0.82687000  1
  C  C88  1  0.60814000  0.39188000  0.08709000  1
  C  C89  1  0.64739000  0.35262000  0.10663000  1
  C  C90  1  0.60813000  0.39188000  0.02104000  1
  C  C91  1  0.64739000  0.35262000  0.04075000  1
  C  C92  1  0.66732000  0.33269000  0.08366000  1
  C  C93  1  0.71020000  0.28981000  0.10510000  1
  C  C94  1  0.77688000  0.31637000  0.09178000  1
  C  C95  1  0.68363000  0.22313000  0.13846000  1
  C  C96  1  0.82591000  0.04216000  0.19594000  1
  C  C97  1  0.78681000  0.08159000  0.17631000  1
  C  C98  1  0.95784000  0.17410000  0.19594000  1
  C  C99  1  0.91842000  0.21319000  0.17631000  1
  C  C100  1  0.83269000  0.16732000  0.16634000  1
  C  C101  1  0.78980000  0.21020000  0.14490000  1
  C  C102  1  0.72313000  0.18363000  0.15821000  1
  C  C103  1  0.81638000  0.27688000  0.11153000  1
  C  C104  1  0.90354000  0.90355000  0.70169000  1
  C  C105  1  0.66122000  0.71625000  0.08014000  1
  C  C106  1  0.70769000  0.63116000  0.10346000  1
  C  C107  1  0.76999000  0.67313000  0.13471000  1
  C  C108  1  0.77740000  0.73937000  0.13842000  1
  C  C109  1  0.83942000  0.78441000  0.16953000  1
  C  C110  1  0.79295000  0.86950000  0.14621000  1
  C  C111  1  0.73065000  0.82753000  0.11496000  1
  C  C112  1  0.72324000  0.76128000  0.11125000  1
  C  C113  1  0.65399000  0.65400000  0.07652000  1
  C  C114  1  0.84665000  0.84666000  0.17315000  1
  C  C115  1  0.09645000  0.09645000  0.79830000  1
  C  C116  1  0.28364000  0.33864000  0.08008000  1
  C  C117  1  0.36852000  0.29195000  0.10330000  1
  C  C118  1  0.32657000  0.22967000  0.13456000  1
  C  C119  1  0.26044000  0.22239000  0.13833000  1
  C  C120  1  0.21543000  0.16040000  0.16945000  1
  C  C121  1  0.13055000  0.20709000  0.14623000  1
  C  C122  1  0.17250000  0.26937000  0.11497000  1
  C  C123  1  0.23863000  0.27665000  0.11120000  1
  C  C124  1  0.09644000  0.09644000  0.70169000  1
  C  C125  1  0.34578000  0.34575000  0.07640000  1
  C  C126  1  0.15329000  0.15329000  0.17313000  1
  C  C127  1  0.96844000  0.30603000  0.66560000  1
  C  C128  1  0.66880000  0.33120000  0.65310000  1
  C  C129  1  0.90355000  0.90356000  0.79831000  1
  C  C130  1  0.30604000  0.96844000  0.33440000  1
  C  C131  1  0.33120000  0.66880000  0.34689000  1
  C  C132  1  0.33121000  0.66880000  0.98430000  1
  C  C133  1  0.03156000  0.69397000  0.83440000  1
  C  C134  1  0.66880000  0.33120000  0.01570000  1
  C  C135  1  0.69396000  0.03157000  0.16560000  1
  C  C136  1  0.35104000  0.17077000  0.66438000  1
  C  C137  1  0.24023000  0.10161000  0.69896000  1
  C  C138  1  0.14888000  0.32916000  0.58558000  1
  C  C139  1  0.25971000  0.39833000  0.55101000  1
  C  C140  1  0.64891000  0.82917000  0.33559000  1
  C  C141  1  0.75971000  0.89830000  0.30100000  1
  C  C142  1  0.85114000  0.67085000  0.41443000  1
  C  C143  1  0.74035000  0.60172000  0.44902000  1
  C  C144  1  0.17074000  0.35101000  0.33562000  1
  C  C145  1  0.10159000  0.24021000  0.30104000  1
  C  C146  1  0.32920000  0.14892000  0.41440000  1
  C  C147  1  0.39836000  0.25974000  0.44898000  1
  C  C148  1  0.64879000  0.82904000  0.57434000  1
  C  C149  1  0.75976000  0.89835000  0.62967000  1
  C  C150  1  0.85158000  0.67128000  0.67549000  1
  C  C151  1  0.74060000  0.60196000  0.62016000  1
  C  C152  1  0.85174000  0.67148000  0.91473000  1
  C  C153  1  0.74102000  0.60242000  0.94936000  1
  C  C154  1  0.64890000  0.82919000  0.83559000  1
  C  C155  1  0.75964000  0.89827000  0.80096000  1
  C  C156  1  0.32868000  0.14840000  0.91466000  1
  C  C157  1  0.90355000  0.90355000  0.29831000  1
  C  C158  1  0.39758000  0.25894000  0.94937000  1
  C  C159  1  0.17040000  0.35067000  0.83580000  1
  C  C160  1  0.10151000  0.24012000  0.80108000  1
  C  C161  1  0.09645000  0.09645000  0.20169000  1
  C  C162  1  0.67146000  0.85174000  0.08526000  1
  C  C163  1  0.60239000  0.74102000  0.05064000  1
  C  C164  1  0.09645000  0.09644000  0.29831000  1
  C  C165  1  0.82917000  0.64891000  0.16441000  1
  C  C166  1  0.89825000  0.75964000  0.19903000  1
  C  C167  1  0.14840000  0.32866000  0.08533000  1
  C  C168  1  0.90355000  0.90355000  0.20169000  1
  C  C169  1  0.25895000  0.39755000  0.05062000  1
  C  C170  1  0.35067000  0.17038000  0.16419000  1
  C  C171  1  0.24012000  0.10149000  0.19891000  1
  C  C172  1  0.59650000  0.59650000  0.95171000  1
  C  C173  1  0.40351000  0.40351000  0.04828000  1
  C  C174  1  0.59652000  0.59651000  0.04828000  1
  C  C175  1  0.40349000  0.40350000  0.95171000  1
  C  C176  1  0.82590000  0.04216000  0.69593000  1
  C  C177  1  0.78681000  0.08158000  0.67630000  1
  C  C178  1  0.95784000  0.17409000  0.69593000  1
  C  C179  1  0.91842000  0.21319000  0.67630000  1
  C  C180  1  0.83268000  0.16732000  0.66634000  1
  C  C181  1  0.78980000  0.21020000  0.64490000  1
  C  C182  1  0.81637000  0.27687000  0.61153000  1
  C  C183  1  0.72313000  0.18363000  0.65821000  1
  C  C184  1  0.60813000  0.39187000  0.58709000  1
  C  C185  1  0.64739000  0.35261000  0.60663000  1
  C  C186  1  0.60812000  0.39187000  0.52104000  1
  C  C187  1  0.64738000  0.35261000  0.54075000  1
  C  C188  1  0.66732000  0.33268000  0.58365000  1
  C  C189  1  0.71020000  0.28980000  0.60510000  1
  C  C190  1  0.68363000  0.22313000  0.63846000  1
  C  C191  1  0.77687000  0.31637000  0.59178000  1
  C  C192  1  0.04216000  0.82591000  0.30406000  1
  C  C193  1  0.08158000  0.78681000  0.32369000  1
  C  C194  1  0.17410000  0.95784000  0.30406000  1
  C  C195  1  0.21319000  0.91842000  0.32369000  1
  C  C196  1  0.16732000  0.83268000  0.33366000  1
  C  C197  1  0.21020000  0.78980000  0.35510000  1
  C  C198  1  0.27688000  0.81637000  0.38846000  1
  C  C199  1  0.18362000  0.72313000  0.34178000  1
  C  C200  1  0.39187000  0.60813000  0.41291000  1
  N  N1  1  0.41108000  0.58892000  0.95554000  1
  N  N2  1  0.08892000  0.91108000  0.79446000  1
  N  N3  1  0.58893000  0.41108000  0.04446000  1
  N  N4  1  0.91108000  0.08892000  0.20554000  1
  N  N5  1  0.91108000  0.08892000  0.70554000  1
  N  N6  1  0.58892000  0.41108000  0.54446000  1
  N  N7  1  0.08892000  0.91108000  0.29446000  1
  N  N8  1  0.41108000  0.58892000  0.45554000  1
  O  O1  1  0.96655000  0.89984000  0.73315000  1
  O  O2  1  0.10045000  0.03374000  0.80019000  1
  O  O3  1  0.10046000  0.03375000  0.73316000  1
  O  O4  1  0.96654000  0.89983000  0.80018000  1
  O  O5  1  0.39968000  0.46639000  0.44988000  1
  O  O6  1  0.89956000  0.96627000  0.76685000  1
  O  O7  1  0.03344000  0.10015000  0.69980000  1
  O  O8  1  0.03358000  0.10029000  0.76683000  1
  O  O9  1  0.89953000  0.96624000  0.69981000  1
  O  O10  1  0.93874000  0.34321000  0.66479000  1
  O  O11  1  0.03707000  0.34643000  0.65877000  1
  O  O12  1  0.62211000  0.31434000  0.67470000  1
  O  O13  1  0.72801000  0.32749000  0.67049000  1
  O  O14  1  0.34322000  0.93873000  0.33521000  1
  O  O15  1  0.34644000  0.03707000  0.34123000  1
  O  O16  1  0.31433000  0.62210000  0.32529000  1
  O  O17  1  0.32749000  0.72800000  0.32950000  1
  O  O18  1  0.26599000  0.67047000  0.96945000  1
  O  O19  1  0.37308000  0.68243000  0.01865000  1
  O  O20  1  0.95859000  0.65083000  0.81103000  1
  O  O21  1  0.05969000  0.65919000  0.86402000  1
  O  O22  1  0.67046000  0.26598000  0.03055000  1
  O  O23  1  0.68243000  0.37307000  0.98134000  1
  O  O24  1  0.65083000  0.95860000  0.18897000  1
  O  O25  1  0.65918000  0.05970000  0.13598000  1
  O  O26  1  0.53360000  0.60030000  0.51691000  1
  O  O27  1  0.89984000  0.96655000  0.26684000  1
  O  O28  1  0.03374000  0.10044000  0.19981000  1
  O  O29  1  0.03376000  0.10046000  0.26684000  1
  O  O30  1  0.89983000  0.96654000  0.19981000  1
  O  O31  1  0.96626000  0.89956000  0.23315000  1
  O  O32  1  0.10016000  0.03345000  0.30019000  1
  O  O33  1  0.10029000  0.03358000  0.23316000  1
  O  O34  1  0.96625000  0.89954000  0.30018000  1
  O  O35  1  0.39970000  0.46641000  0.51691000  1
  O  O36  1  0.60032000  0.53361000  0.98323000  1
  O  O37  1  0.46641000  0.39970000  0.05026000  1
  O  O38  1  0.60031000  0.53360000  0.05027000  1
  O  O39  1  0.46642000  0.39972000  0.98322000  1
  O  O40  1  0.39968000  0.46639000  0.94974000  1
  O  O41  1  0.53361000  0.60031000  0.01676000  1
  O  O42  1  0.53358000  0.60029000  0.44987000  1
  O  O43  1  0.39970000  0.46641000  0.01683000  1
  O  O44  1  0.53358000  0.60029000  0.94972000  1
  O  O45  1  0.60032000  0.53361000  0.48309000  1
  O  O46  1  0.46640000  0.39970000  0.55011000  1
  O  O47  1  0.60031000  0.53359000  0.55018000  1
  O  O48  1  0.46642000  0.39972000  0.48308000  1
