data_DB1-Cu2O8-AZO_A-irmof6_A_No368_repeat
_audit_creation_date              2024-02-23
_audit_creation_method            'Materials Studio'
_symmetry_space_group_name_H-M    'P1'
_symmetry_Int_Tables_number       1
_symmetry_cell_setting            triclinic
loop_
_symmetry_equiv_pos_as_xyz
  x,y,z
_cell_length_a                    10.8046
_cell_length_b                    34.4976
_cell_length_c                    10.0000
_cell_angle_alpha                 90.0000
_cell_angle_beta                  90.0000
_cell_angle_gamma                 90.0939
loop_
_atom_site_label
_atom_site_type_symbol
_atom_site_fract_x
_atom_site_fract_y
_atom_site_fract_z
_atom_site_U_iso_or_equiv
_atom_site_adp_type
_atom_site_occupancy
Cu1    Cu    0.50000   0.50000   0.62726   0.00000  Uiso   1.00
Cu2    Cu    0.50002   0.50000   0.37274   0.00000  Uiso   1.00
O1     O     0.66093   0.49997   0.61869   0.00000  Uiso   1.00
O2     O     0.33875   0.49992   0.61867   0.00000  Uiso   1.00
O3     O     0.49966   0.44949   0.61868   0.00000  Uiso   1.00
O4     O     0.50002   0.55040   0.61868   0.00000  Uiso   1.00
O5     O     0.50032   0.55051   0.38132   0.00000  Uiso   1.00
O6     O     0.50004   0.44961   0.38132   0.00000  Uiso   1.00
O7     O     0.33895   0.49998   0.38131   0.00000  Uiso   1.00
O8     O     0.66127   0.50010   0.38133   0.00000  Uiso   1.00
C1     C     0.73213   0.50003   0.50001   0.00000  Uiso   1.00
C2     C     0.26789   0.49997   0.49999   0.00000  Uiso   1.00
C3     C     0.49985   0.42730   0.50000   0.00000  Uiso   1.00
C4     C     0.50017   0.57270   0.50000   0.00000  Uiso   1.00
Cu3    Cu    0.50050   0.00000   0.27502   0.00000  Uiso   1.00
Cu4    Cu    0.49988   0.00000   0.52953   0.00000  Uiso   1.00
O9     O     0.66140   0.00019   0.28405   0.00000  Uiso   1.00
O10    O     0.33922   0.99993   0.28314   0.00000  Uiso   1.00
O11    O     0.50014   0.05051   0.28359   0.00000  Uiso   1.00
O12    O     0.50049   0.94961   0.28359   0.00000  Uiso   1.00
O13    O     0.50019   0.94949   0.52095   0.00000  Uiso   1.00
O14    O     0.49993   0.05040   0.52096   0.00000  Uiso   1.00
O15    O     0.33884   0.99987   0.52049   0.00000  Uiso   1.00
O16    O     0.66115   0.00007   0.52141   0.00000  Uiso   1.00
C5     C     0.73231   0.00021   0.40294   0.00000  Uiso   1.00
C6     C     0.26806   0.99980   0.40162   0.00000  Uiso   1.00
C7     C     0.50004   0.07270   0.40228   0.00000  Uiso   1.00
C8     C     0.50034   0.92730   0.40228   0.00000  Uiso   1.00
C9     C     0.50033   0.88404   0.40227   0.00000  Uiso   1.00
C10    C     0.50018   0.86313   0.52342   0.00000  Uiso   1.00
C11    C     0.50017   0.82250   0.52310   0.00000  Uiso   1.00
C12    C     0.50032   0.80194   0.40182   0.00000  Uiso   1.00
C13    C     0.50047   0.82255   0.28122   0.00000  Uiso   1.00
C14    C     0.50048   0.86317   0.28108   0.00000  Uiso   1.00
N1     N     0.50032   0.76032   0.39824   0.00000  Uiso   1.00
N2     N     0.50019   0.73968   0.50403   0.00000  Uiso   1.00
C15    C     0.50004   0.67745   0.62106   0.00000  Uiso   1.00
C16    C     0.50019   0.69806   0.50046   0.00000  Uiso   1.00
C17    C     0.50034   0.67751   0.37917   0.00000  Uiso   1.00
C18    C     0.50033   0.63687   0.37885   0.00000  Uiso   1.00
C19    C     0.50018   0.61597   0.50000   0.00000  Uiso   1.00
C20    C     0.50003   0.63684   0.62120   0.00000  Uiso   1.00
H1     H     0.50006   0.87842   0.61799   0.00000  Uiso   1.00
H2     H     0.50006   0.80698   0.61703   0.00000  Uiso   1.00
H3     H     0.50059   0.80698   0.18731   0.00000  Uiso   1.00
H4     H     0.49992   0.69303   0.71497   0.00000  Uiso   1.00
H5     H     0.50045   0.69303   0.28525   0.00000  Uiso   1.00
H6     H     0.50045   0.62158   0.28428   0.00000  Uiso   1.00
C21    C     0.50004   0.11597   0.40227   0.00000  Uiso   1.00
C22    C     0.49984   0.13687   0.52342   0.00000  Uiso   1.00
C23    C     0.49984   0.17751   0.52310   0.00000  Uiso   1.00
C24    C     0.50003   0.19806   0.40182   0.00000  Uiso   1.00
C25    C     0.50022   0.17745   0.28122   0.00000  Uiso   1.00
C26    C     0.50023   0.13684   0.28108   0.00000  Uiso   1.00
N3     N     0.50003   0.23968   0.39824   0.00000  Uiso   1.00
N4     N     0.49986   0.26032   0.50403   0.00000  Uiso   1.00
C27    C     0.49966   0.32255   0.62105   0.00000  Uiso   1.00
C28    C     0.49986   0.30194   0.50046   0.00000  Uiso   1.00
C29    C     0.50005   0.32250   0.37917   0.00000  Uiso   1.00
C30    C     0.50005   0.36313   0.37885   0.00000  Uiso   1.00
C31    C     0.49985   0.38404   0.50000   0.00000  Uiso   1.00
C32    C     0.49966   0.36317   0.62120   0.00000  Uiso   1.00
H7     H     0.49969   0.12158   0.61799   0.00000  Uiso   1.00
H8     H     0.49968   0.19303   0.61703   0.00000  Uiso   1.00
H9     H     0.50037   0.19303   0.18731   0.00000  Uiso   1.00
H10    H     0.49952   0.30698   0.71497   0.00000  Uiso   1.00
H11    H     0.50020   0.30698   0.28525   0.00000  Uiso   1.00
H12    H     0.50020   0.37842   0.28428   0.00000  Uiso   1.00
C33    C     0.13514   0.49999   0.49999   0.00000  Uiso   1.00
C34    C     0.86488   0.50002   0.50000   0.00000  Uiso   1.00
C35    C     0.06745   0.50005   0.39438   0.00000  Uiso   1.00
C36    C     0.93257   0.49995   0.60562   0.00000  Uiso   1.00
C37    C     0.93256   0.50007   0.39438   0.00000  Uiso   1.00
C38    C     0.06746   0.49994   0.60561   0.00000  Uiso   1.00
C39    C     0.06458   0.50013   0.24417   0.00000  Uiso   1.00
C40    C     0.93542   0.50015   0.24418   0.00000  Uiso   1.00
H13    H     0.10974   0.49986   0.70424   0.00000  Uiso   1.00
H14    H     0.11004   0.47472   0.19983   0.00000  Uiso   1.00
H15    H     0.11098   0.52557   0.20097   0.00000  Uiso   1.00
H16    H     0.88996   0.52561   0.20016   0.00000  Uiso   1.00
H17    H     0.88902   0.47476   0.20066   0.00000  Uiso   1.00
C41    C     0.13532   0.00065   0.40412   0.00000  Uiso   1.00
C42    C     0.86505   0.00036   0.40333   0.00000  Uiso   1.00
C43    C     0.06736   0.00052   0.50954   0.00000  Uiso   1.00
C44    C     0.93300   0.00049   0.29791   0.00000  Uiso   1.00
C45    C     0.93247   0.00037   0.50915   0.00000  Uiso   1.00
C46    C     0.06790   0.00064   0.29831   0.00000  Uiso   1.00
C47    C     0.06412   0.00044   0.65974   0.00000  Uiso   1.00
C48    C     0.93496   0.00030   0.65936   0.00000  Uiso   1.00
H18    H     0.11042   0.00075   0.19981   0.00000  Uiso   1.00
H19    H     0.10947   0.02590   0.70421   0.00000  Uiso   1.00
H20    H     0.11041   0.97505   0.70308   0.00000  Uiso   1.00
H21    H     0.88938   0.97479   0.70324   0.00000  Uiso   1.00
H22    H     0.88846   0.02564   0.70275   0.00000  Uiso   1.00
O17    O     0.50062   0.88152   0.16777   0.00000  Uiso   1.00
Li1    Li    0.50082   0.86635   0.00486   0.00000  Uiso   1.00
O18    O     0.49989   0.61848   0.73451   0.00000  Uiso   1.00
Li2    Li    0.49969   0.63365   0.89741   0.00000  Uiso   1.00
O19    O     0.50041   0.11849   0.16777   0.00000  Uiso   1.00
Li3    Li    0.50067   0.13365   0.00486   0.00000  Uiso   1.00
O20    O     0.49948   0.38152   0.73451   0.00000  Uiso   1.00
Li4    Li    0.49922   0.36635   0.89741   0.00000  Uiso   1.00
S1     S     0.86469   0.49988   0.76396   0.00000  Uiso   1.00
O21    O     0.81064   0.45554   0.80487   0.00000  Uiso   1.00
O22    O     0.95771   0.51272   0.87919   0.00000  Uiso   1.00
H23    H     0.73181   0.46179   0.84803   0.00000  Uiso   1.00
O23    O     0.74724   0.52757   0.77069   0.00000  Uiso   1.00
S2     S     0.86552   0.00049   0.13937   0.00000  Uiso   1.00
O24    O     0.81158   0.04478   0.09831   0.00000  Uiso   1.00
O25    O     0.95883   0.98774   0.02441   0.00000  Uiso   1.00
H24    H     0.73286   0.03844   0.05491   0.00000  Uiso   1.00
O26    O     0.74809   0.97268   0.13231   0.00000  Uiso   1.00
