data_DB1-Cu2O8N2-ADC_A-irmof20_A_No529_repeat
_audit_creation_date              2024-02-23
_audit_creation_method            'Materials Studio'
_symmetry_space_group_name_H-M    'P1'
_symmetry_Int_Tables_number       1
_symmetry_cell_setting            triclinic
loop_
_symmetry_equiv_pos_as_xyz
  x,y,z
_cell_length_a                    15.8494
_cell_length_b                    17.5218
_cell_length_c                    12.5011
_cell_angle_alpha                 89.9190
_cell_angle_beta                  87.6746
_cell_angle_gamma                 95.2900
loop_
_atom_site_label
_atom_site_type_symbol
_atom_site_fract_x
_atom_site_fract_y
_atom_site_fract_z
_atom_site_U_iso_or_equiv
_atom_site_adp_type
_atom_site_occupancy
Cu1    Cu    0.41940   0.49703   0.50415   0.00000  Uiso   1.00
Cu2    Cu    0.58059   0.50296   0.49586   0.00000  Uiso   1.00
O1     O     0.42483   0.49728   0.64296   0.00000  Uiso   1.00
O2     O     0.42485   0.49741   0.36450   0.00000  Uiso   1.00
O3     O     0.43056   0.59702   0.50331   0.00000  Uiso   1.00
O4     O     0.41912   0.39767   0.50415   0.00000  Uiso   1.00
O5     O     0.56943   0.40297   0.49666   0.00000  Uiso   1.00
O6     O     0.58087   0.60232   0.49590   0.00000  Uiso   1.00
O7     O     0.57517   0.50281   0.35693   0.00000  Uiso   1.00
O8     O     0.57514   0.50256   0.63551   0.00000  Uiso   1.00
C1     C     0.49999   0.49993   0.70063   0.00000  Uiso   1.00
C2     C     0.50001   0.50006   0.29938   0.00000  Uiso   1.00
C3     C     0.50824   0.64363   0.49950   0.00000  Uiso   1.00
C4     C     0.49176   0.35636   0.50052   0.00000  Uiso   1.00
N1     N     0.29962   0.49263   0.51032   0.00000  Uiso   1.00
C5     C     0.25676   0.53995   0.44407   0.00000  Uiso   1.00
C6     C     0.16805   0.53676   0.44854   0.00000  Uiso   1.00
C7     C     0.11957   0.48592   0.51970   0.00000  Uiso   1.00
C8     C     0.16257   0.43873   0.58576   0.00000  Uiso   1.00
C9     C     0.25120   0.44195   0.58125   0.00000  Uiso   1.00
C10    C     0.02495   0.47942   0.52881   0.00000  Uiso   1.00
C11    C     0.97505   0.52058   0.47119   0.00000  Uiso   1.00
C12    C     0.83742   0.56127   0.41424   0.00000  Uiso   1.00
C13    C     0.88043   0.51407   0.48030   0.00000  Uiso   1.00
C14    C     0.83196   0.46324   0.55146   0.00000  Uiso   1.00
C15    C     0.74324   0.46004   0.55594   0.00000  Uiso   1.00
N2     N     0.70038   0.50736   0.48970   0.00000  Uiso   1.00
C16    C     0.74879   0.55804   0.41875   0.00000  Uiso   1.00
H1     H     0.29241   0.57949   0.38873   0.00000  Uiso   1.00
H2     H     0.13885   0.57439   0.39587   0.00000  Uiso   1.00
H3     H     0.12741   0.39903   0.64134   0.00000  Uiso   1.00
H4     H     0.87258   0.60097   0.35866   0.00000  Uiso   1.00
H5     H     0.86115   0.42561   0.60414   0.00000  Uiso   1.00
H6     H     0.70759   0.42050   0.61128   0.00000  Uiso   1.00
H7     H     0.99622   0.43817   0.58655   0.00000  Uiso   1.00
H8     H     0.00377   0.56183   0.41344   0.00000  Uiso   1.00
C17    C     0.48685   0.27084   0.50074   0.00000  Uiso   1.00
C18    C     0.56106   0.23234   0.49706   0.00000  Uiso   1.00
C19    C     0.55656   0.15212   0.49726   0.00000  Uiso   1.00
C20    C     0.47736   0.10802   0.50116   0.00000  Uiso   1.00
C21    C     0.40335   0.14664   0.50482   0.00000  Uiso   1.00
C22    C     0.40790   0.22679   0.50462   0.00000  Uiso   1.00
C23    C     0.46771   0.02245   0.50161   0.00000  Uiso   1.00
C24    C     0.53232   0.97755   0.49841   0.00000  Uiso   1.00
C25    C     0.59667   0.85334   0.49520   0.00000  Uiso   1.00
C26    C     0.52267   0.89197   0.49886   0.00000  Uiso   1.00
C27    C     0.44346   0.84787   0.50275   0.00000  Uiso   1.00
C28    C     0.43895   0.76765   0.50295   0.00000  Uiso   1.00
C29    C     0.51316   0.72915   0.49928   0.00000  Uiso   1.00
C30    C     0.59211   0.77320   0.49540   0.00000  Uiso   1.00
H9     H     0.62266   0.26479   0.49403   0.00000  Uiso   1.00
H10    H     0.61553   0.12593   0.49435   0.00000  Uiso   1.00
H11    H     0.34149   0.11464   0.50786   0.00000  Uiso   1.00
H12    H     0.65854   0.88534   0.49215   0.00000  Uiso   1.00
H13    H     0.38448   0.87406   0.50567   0.00000  Uiso   1.00
H14    H     0.37735   0.73521   0.50598   0.00000  Uiso   1.00
H15    H     0.40339   0.99625   0.50477   0.00000  Uiso   1.00
H16    H     0.59665   0.00374   0.49524   0.00000  Uiso   1.00
C31    C     0.43283   0.49762   0.89281   0.00000  Uiso   1.00
S1     S     0.59693   0.50337   0.87940   0.00000  Uiso   1.00
C32    C     0.56717   0.50237   0.10720   0.00000  Uiso   1.00
S2     S     0.40307   0.49662   0.12061   0.00000  Uiso   1.00
C33    C     0.49999   0.49996   0.81999   0.00000  Uiso   1.00
C34    C     0.50001   0.50003   0.18002   0.00000  Uiso   1.00
C35    C     0.54328   0.50151   0.99778   0.00000  Uiso   1.00
C36    C     0.45672   0.49848   0.00224   0.00000  Uiso   1.00
O9     O     0.28858   0.39748   0.64351   0.00000  Uiso   1.00
Li1    Li    0.25154   0.33027   0.73760   0.00000  Uiso   1.00
O10    O     0.71141   0.60251   0.35650   0.00000  Uiso   1.00
Li2    Li    0.74844   0.66973   0.26241   0.00000  Uiso   1.00
O11    O     0.33817   0.26034   0.50807   0.00000  Uiso   1.00
Li3    Li    0.23331   0.22649   0.51323   0.00000  Uiso   1.00
O12    O     0.66183   0.73964   0.49195   0.00000  Uiso   1.00
Li4    Li    0.76670   0.77348   0.48678   0.00000  Uiso   1.00
C37    C     0.34115   0.49439   0.86097   0.00000  Uiso   1.00
O13    O     0.28452   0.52581   0.92388   0.00000  Uiso   1.00
O14    O     0.32017   0.46449   0.77581   0.00000  Uiso   1.00
H17    H     0.31137   0.53885   0.99463   0.00000  Uiso   1.00
C38    C     0.65886   0.50560   0.13904   0.00000  Uiso   1.00
O15    O     0.71945   0.54110   0.07577   0.00000  Uiso   1.00
O16    O     0.67636   0.47708   0.22452   0.00000  Uiso   1.00
H18    H     0.69404   0.55228   0.00488   0.00000  Uiso   1.00
