# generated using pymatgen
data_AlH5C4N2O5
_symmetry_space_group_name_H-M   'P 1'
_cell_length_a   16.85270000
_cell_length_b   11.74310000
_cell_length_c   6.60720000
_cell_angle_alpha   90.00000000
_cell_angle_beta   97.40580000
_cell_angle_gamma   45.82850000
_symmetry_Int_Tables_number   1
_chemical_formula_structural   AlH5C4N2O5
_chemical_formula_sum   'Al4 H20 C16 N8 O20'
_cell_volume   922.60601381
_cell_formula_units_Z   4
loop_
 _symmetry_equiv_pos_site_id
 _symmetry_equiv_pos_as_xyz
  1  'x, y, z'
loop_
 _atom_site_type_symbol
 _atom_site_label
 _atom_site_symmetry_multiplicity
 _atom_site_fract_x
 _atom_site_fract_y
 _atom_site_fract_z
 _atom_site_occupancy
  Al  Al1  1  0.50000000  0.50000000  0.00000000  1
  Al  Al2  1  0.50000000  0.50000000  0.50000000  1
  Al  Al3  1  0.00000000  0.50000000  0.00000000  1
  Al  Al4  1  0.00000000  0.50000000  0.50000000  1
  H  H1  1  0.50000000  0.63185000  0.75000000  1
  H  H2  1  0.50000000  0.36815000  0.25000000  1
  H  H3  1  0.00000000  0.36815000  0.75000000  1
  H  H4  1  0.00000000  0.63185000  0.25000000  1
  H  H5  1  0.63917000  0.57967000  0.89855000  1
  H  H6  1  0.79156000  0.42143000  0.85197000  1
  H  H7  1  0.78391000  0.57738000  0.57616000  1
  H  H8  1  0.78535000  0.42153000  0.67332000  1
  H  H9  1  0.28391000  0.57738000  0.07616000  1
  H  H10  1  0.28535000  0.42152000  0.17332000  1
  H  H11  1  0.13918000  0.57967000  0.39855000  1
  H  H12  1  0.29156000  0.42143000  0.35197000  1
  H  H13  1  0.71609000  0.14520000  0.42384000  1
  H  H14  1  0.71465000  0.99222000  0.32669000  1
  H  H15  1  0.86082000  0.85802000  0.10145000  1
  H  H16  1  0.70843000  0.00456000  0.14803000  1
  H  H17  1  0.36082000  0.85802000  0.60145000  1
  H  H18  1  0.20843000  0.00456000  0.64803000  1
  H  H19  1  0.21609000  0.14520000  0.92384000  1
  H  H20  1  0.21465000  0.99222000  0.82669000  1
  C  C1  1  0.36078000  0.78019000  0.20423000  1
  C  C2  1  0.63922000  0.50175000  0.29577000  1
  C  C3  1  0.63922000  0.21981000  0.79577000  1
  C  C4  1  0.36078000  0.49825000  0.70423000  1
  C  C5  1  0.13922000  0.21981000  0.29577000  1
  C  C6  1  0.86078000  0.49825000  0.20423000  1
  C  C7  1  0.86078000  0.78019000  0.70423000  1
  C  C8  1  0.13922000  0.50175000  0.79577000  1
  C  C9  1  0.77198000  0.49965000  0.17225000  1
  C  C10  1  0.72801000  0.50035000  0.32775000  1
  C  C11  1  0.22802000  0.50035000  0.82775000  1
  C  C12  1  0.27198000  0.49965000  0.67225000  1
  C  C13  1  0.77198000  0.95638000  0.67225000  1
  C  C14  1  0.72801000  0.04362000  0.82775000  1
  C  C15  1  0.22802000  0.04362000  0.32775000  1
  C  C16  1  0.27198000  0.95638000  0.17225000  1
  N  N1  1  0.73058000  0.50031000  0.95508000  1
  N  N2  1  0.76941000  0.49969000  0.54492000  1
  N  N3  1  0.26941000  0.49969000  0.04492000  1
  N  N4  1  0.23058000  0.50031000  0.45508000  1
  N  N5  1  0.73058000  0.03852000  0.45508000  1
  N  N6  1  0.76941000  0.96148000  0.04492000  1
  N  N7  1  0.26941000  0.96148000  0.54492000  1
  N  N8  1  0.23058000  0.03852000  0.95508000  1
  O  O1  1  0.39757000  0.70719000  0.04262000  1
  O  O2  1  0.60243000  0.50233000  0.45739000  1
  O  O3  1  0.60243000  0.29281000  0.60997000  1
  O  O4  1  0.39757000  0.49766000  0.89004000  1
  O  O5  1  0.60243000  0.29281000  0.95739000  1
  O  O6  1  0.39757000  0.49766000  0.54262000  1
  O  O7  1  0.39757000  0.70719000  0.39004000  1
  O  O8  1  0.60243000  0.50233000  0.10996000  1
  O  O9  1  0.50000000  0.54964000  0.75000000  1
  O  O10  1  0.50000000  0.45035000  0.25000000  1
  O  O11  1  0.10243000  0.29281000  0.10996000  1
  O  O12  1  0.89757000  0.49766000  0.39004000  1
  O  O13  1  0.89757000  0.70719000  0.54262000  1
  O  O14  1  0.10243000  0.50233000  0.95739000  1
  O  O15  1  0.89757000  0.70719000  0.89004000  1
  O  O16  1  0.10243000  0.50233000  0.60997000  1
  O  O17  1  0.10243000  0.29281000  0.45739000  1
  O  O18  1  0.89757000  0.49766000  0.04262000  1
  O  O19  1  0.00000000  0.45035000  0.75000000  1
  O  O20  1  0.00000000  0.54964000  0.25000000  1
