# generated using pymatgen
data_Cu4H23C42N6Cl5O16
_symmetry_space_group_name_H-M   'P 1'
_cell_length_a   21.50490000
_cell_length_b   10.70030000
_cell_length_c   9.12930000
_cell_angle_alpha   89.99920000
_cell_angle_beta   89.99900000
_cell_angle_gamma   89.89080000
_symmetry_Int_Tables_number   1
_chemical_formula_structural   Cu4H23C42N6Cl5O16
_chemical_formula_sum   'Cu4 H23 C42 N6 Cl5 O16'
_cell_volume   2100.72919567
_cell_formula_units_Z   1
loop_
 _symmetry_equiv_pos_site_id
 _symmetry_equiv_pos_as_xyz
  1  'x, y, z'
loop_
 _atom_site_type_symbol
 _atom_site_label
 _atom_site_symmetry_multiplicity
 _atom_site_fract_x
 _atom_site_fract_y
 _atom_site_fract_z
 _atom_site_occupancy
  Cu  Cu1  1  0.50000000  0.49999000  0.36060000  1
  Cu  Cu2  1  0.50001000  0.49999000  0.63939000  1
  Cu  Cu3  1  0.00243000  0.49931000  0.63944000  1
  Cu  Cu4  1  0.00243000  0.50019000  0.36064000  1
  H  H1  1  0.43318000  0.63436000  0.12875000  1
  H  H2  1  0.56683000  0.36563000  0.12875000  1
  H  H3  1  0.43318000  0.63436000  0.87124000  1
  H  H4  1  0.49986000  0.10985000  0.27755000  1
  H  H5  1  0.50018000  0.10984000  0.72245000  1
  H  H6  1  0.49983000  0.89015000  0.27755000  1
  H  H7  1  0.80666000  0.41820000  0.17124000  1
  H  H8  1  0.80684000  0.58213000  0.17248000  1
  H  H9  1  0.69579000  0.58224000  0.17157000  1
  H  H10  1  0.69562000  0.41831000  0.17211000  1
  H  H11  1  0.19656000  0.49980000  0.72248000  1
  H  H12  1  0.19655000  0.50013000  0.27757000  1
  H  H13  1  0.30588000  0.49995000  0.72246000  1
  H  H14  1  0.06903000  0.63604000  0.87187000  1
  H  H15  1  0.93583000  0.36744000  0.87071000  1
  H  H16  1  0.06903000  0.63522000  0.12938000  1
  H  H17  1  0.00156000  0.10889000  0.72512000  1
  H  H18  1  0.00124000  0.11029000  0.28022000  1
  H  H19  1  0.00196000  0.88920000  0.72417000  1
  H  H20  1  0.64736000  0.43802000  0.78847000  1
  H  H21  1  0.70656000  0.56051000  0.85342000  1
  H  H22  1  0.85506000  0.56039000  0.78879000  1
  H  H23  1  0.79584000  0.43772000  0.85315000  1
  C  C1  1  0.61663000  0.49977000  0.50000000  1
  C  C2  1  0.38338000  0.50022000  0.50000000  1
  C  C3  1  0.49996000  0.73438000  0.49999000  1
  C  C4  1  0.50005000  0.26561000  0.50000000  1
  C  C5  1  0.88581000  0.49964000  0.50004000  1
  C  C6  1  0.11905000  0.49986000  0.50003000  1
  C  C7  1  0.00209000  0.73413000  0.50105000  1
  C  C8  1  0.00277000  0.26536000  0.49902000  1
  C  C9  1  0.53947000  0.42064000  0.92381000  1
  C  C10  1  0.46054000  0.57935000  0.07618000  1
  C  C11  1  0.53947000  0.42064000  0.07618000  1
  C  C12  1  0.46054000  0.57935000  0.92381000  1
  C  C13  1  0.49998000  0.86910000  0.50000000  1
  C  C14  1  0.50003000  0.13089000  0.50000000  1
  C  C15  1  0.50009000  0.93499000  0.63138000  1
  C  C16  1  0.49992000  0.06499000  0.36862000  1
  C  C17  1  0.50011000  0.06499000  0.63138000  1
  C  C18  1  0.49990000  0.93500000  0.36862000  1
  C  C19  1  0.81911000  0.49967000  0.50003000  1
  C  C20  1  0.68332000  0.49973000  0.50001000  1
  C  C21  1  0.78511000  0.49987000  0.38433000  1
  C  C22  1  0.71733000  0.49954000  0.61570000  1
  C  C23  1  0.71733000  0.49990000  0.38432000  1
  C  C24  1  0.78510000  0.49950000  0.61572000  1
  C  C25  1  0.78367000  0.50013000  0.21980000  1
  C  C26  1  0.71878000  0.50016000  0.21979000  1
  C  C27  1  0.31635000  0.50013000  0.50001000  1
  C  C28  1  0.18609000  0.49995000  0.50003000  1
  C  C29  1  0.28356000  0.50018000  0.36864000  1
  C  C30  1  0.21888000  0.49990000  0.63140000  1
  C  C31  1  0.21887000  0.50009000  0.36864000  1
  C  C32  1  0.28356000  0.49999000  0.63139000  1
  C  C33  1  0.96310000  0.42177000  0.07589000  1
  C  C34  1  0.04176000  0.58089000  0.92420000  1
  C  C35  1  0.96310000  0.42225000  0.92352000  1
  C  C36  1  0.04176000  0.58041000  0.07657000  1
  C  C37  1  0.00184000  0.86885000  0.50163000  1
  C  C38  1  0.00136000  0.13064000  0.50276000  1
  C  C39  1  0.00163000  0.93516000  0.37054000  1
  C  C40  1  0.00158000  0.06433000  0.63385000  1
  C  C41  1  0.00139000  0.06515000  0.37110000  1
  C  C42  1  0.00181000  0.93433000  0.63329000  1
  N  N1  1  0.50000000  0.49999000  0.84657000  1
  N  N2  1  0.50000000  0.49999000  0.15342000  1
  N  N3  1  0.00243000  0.50084000  0.15347000  1
  N  N4  1  0.00243000  0.50182000  0.84662000  1
  N  N5  1  0.68781000  0.49934000  0.76578000  1
  N  N6  1  0.81461000  0.49918000  0.76581000  1
  Cl  Cl1  1  0.58962000  0.31979000  0.82743000  1
  Cl  Cl2  1  0.50019000  0.85276000  0.79834000  1
  Cl  Cl3  1  0.32447000  0.50036000  0.20166000  1
  Cl  Cl4  1  0.91311000  0.32067000  0.17183000  1
  Cl  Cl5  1  0.00166000  0.85346000  0.20322000  1
  O  O1  1  0.58086000  0.49999000  0.36999000  1
  O  O2  1  0.41899000  0.50037000  0.37000000  1
  O  O3  1  0.49986000  0.66284000  0.37000000  1
  O  O4  1  0.49999000  0.33752000  0.37000000  1
  O  O5  1  0.50013000  0.33715000  0.63000000  1
  O  O6  1  0.50004000  0.66247000  0.62999000  1
  O  O7  1  0.41908000  0.50017000  0.63000000  1
  O  O8  1  0.58102000  0.49958000  0.62999000  1
  O  O9  1  0.92158000  0.49941000  0.63004000  1
  O  O10  1  0.08345000  0.49963000  0.63003000  1
  O  O11  1  0.00231000  0.66218000  0.63074000  1
  O  O12  1  0.00271000  0.33686000  0.62933000  1
  O  O13  1  0.00257000  0.33731000  0.36934000  1
  O  O14  1  0.00212000  0.66264000  0.37075000  1
  O  O15  1  0.08335000  0.50026000  0.37004000  1
  O  O16  1  0.92141000  0.49982000  0.37005000  1
