# Generated by REPEAT Assigner based on pymatgen
data_DB1-Zn2O8N2-ADC_A-DPAC_A_No69
_audit_creation_date              2022-05-24
_audit_creation_method            REPEAT_Assigner
_cell_length_a                    16.735800
_cell_length_b                    17.722000
_cell_length_c                    17.572700
_cell_angle_alpha                 89.877200
_cell_angle_beta                  92.074200
_cell_angle_gamma                 84.915100
_cell_volume                      5187.931421
_symmetry_space_group_name_H-M    P1
_symmetry_Int_Tables_number       1
loop_
    _symmetry_equiv_pos_site_id
    _symmetry_equiv_pos_as_xyz
    1  x,y,z
loop_
    _atom_site_type_symbol
    _atom_site_label
    _atom_site_fract_x
    _atom_site_fract_y
    _atom_site_fract_z
    _atom_type_partial_charge
    O   O1   0.587330  0.387870  0.503760  -0.565990
    O   O2   0.424380  0.393790  0.497400  -0.519437
    C   C1   0.507960  0.352360  0.500560  0.457541
    Zn  Zn1  0.599380  0.496410  0.503650  0.995807
    O   O3   0.418350  0.503030  0.606730  -0.618811
    O   O4   0.581300  0.497230  0.612760  -0.393447
    C   C2   0.499840  0.500110  0.648430  0.420477
    O   O5   0.412660  0.612150  0.496390  -0.632754
    O   O6   0.575620  0.606230  0.502470  -0.602647
    C   C3   0.492040  0.647660  0.499380  0.433891
    Zn  Zn2  0.400620  0.503610  0.496360  0.995990
    O   O7   0.581660  0.496830  0.393280  -0.607773
    O   O8   0.418690  0.502920  0.387250  -0.398278
    C   C4   0.500170  0.499650  0.351580  0.421569
    N   N1   0.283700  0.507840  0.492080  0.008266
    C   C5   0.242930  0.461110  0.539430  0.019096
    C   C6   0.158950  0.464090  0.536420  -0.239645
    C   C7   0.113260  0.514110  0.485720  0.285363
    C   C8   0.154160  0.560710  0.438500  -0.257043
    C   C9   0.238060  0.557710  0.441540  -0.028586
    C   C10  0.023710  0.520340  0.479410  -0.204109
    C   C11  0.976290  0.479660  0.520630  -0.237778
    C   C12  0.845830  0.439300  0.561530  -0.343283
    C   C13  0.886730  0.485900  0.514310  0.356498
    C   C14  0.841040  0.535920  0.463610  -0.309828
    C   C15  0.757070  0.538900  0.460590  0.027092
    N   N2   0.716290  0.492170  0.507950  -0.095229
    C   C16  0.761930  0.442310  0.558480  0.099061
    H   H1   0.276530  0.422200  0.578860  0.122276
    H   H2   0.131160  0.426940  0.574060  0.159577
    H   H3   0.121030  0.599780  0.398900  0.148508
    H   H4   0.267730  0.594340  0.404420  0.154881
    H   H5   0.878950  0.400230  0.601120  0.160039
    H   H6   0.868840  0.573070  0.425970  0.153655
    H   H7   0.723470  0.577810  0.421160  0.146929
    H   H8   0.732250  0.405670  0.595600  0.162900
    H   H9   0.996670  0.560950  0.438260  0.151074
    H   H10  0.003320  0.439060  0.561780  0.154331
    C   C17  0.512570  0.267820  0.500660  -0.003644
    C   C18  0.442300  0.229550  0.498010  -0.102056
    C   C19  0.446530  0.150250  0.498100  -0.202344
    C   C20  0.521480  0.106880  0.500860  0.253648
    C   C21  0.591550  0.145270  0.503510  -0.262488
    C   C22  0.587280  0.224490  0.503420  -0.020542
    C   C23  0.530580  0.022300  0.501130  -0.213283
    C   C24  0.469390  0.977720  0.498810  -0.236565
    C   C25  0.408430  0.854740  0.496430  -0.277147
    C   C26  0.478490  0.893140  0.499080  0.290501
    C   C27  0.553450  0.849770  0.501840  -0.237098
    C   C28  0.557680  0.770470  0.501940  -0.085495
    C   C29  0.487430  0.732200  0.499280  0.035264
    C   C30  0.412710  0.775520  0.496530  -0.042678
    H   H11  0.384000  0.261460  0.495860  0.116979
    H   H12  0.390690  0.124190  0.495990  0.132731
    H   H13  0.650100  0.113800  0.505670  0.135526
    H   H14  0.642350  0.252330  0.505500  0.094358
    H   H15  0.349880  0.886210  0.494270  0.138325
    H   H16  0.609290  0.875830  0.503950  0.139062
    H   H17  0.615990  0.738570  0.504090  0.117770
    H   H18  0.357640  0.747680  0.494450  0.113847
    H   H19  0.591450  0.996580  0.503380  0.140670
    H   H20  0.408520  0.003440  0.496560  0.144258
    C   C31  0.500130  0.499710  0.270940  -0.092990
    C   C32  0.572860  0.497130  0.231520  -0.038222
    C   C33  0.573040  0.497180  0.151390  -0.249696
    C   C34  0.500060  0.499830  0.108290  0.297503
    C   C35  0.427120  0.502410  0.146400  -0.263610
    C   C36  0.427370  0.502350  0.226550  0.134413
    C   C37  0.500030  0.499880  0.034030  -0.136366
    C   C38  0.500010  0.499920  0.965990  -0.147138
    C   C39  0.499970  0.499970  0.891720  0.308605
    C   C40  0.572900  0.497400  0.853600  -0.264597
    C   C41  0.572650  0.497460  0.773460  0.116454
    C   C42  0.499880  0.500070  0.729070  -0.087404
    C   C43  0.427160  0.502630  0.768500  -0.028632
    C   C44  0.426990  0.502590  0.848620  -0.256208
    H   H21  0.626800  0.495170  0.261170  0.131155
    H   H22  0.626860  0.495270  0.125120  0.169455
    H   H23  0.373280  0.504370  0.116440  0.175621
    H   H24  0.626750  0.495470  0.883560  0.177596
    H   H25  0.373220  0.504570  0.738850  0.127294
    H   H26  0.373170  0.504490  0.874910  0.170394
    S   S1   0.335470  0.505620  0.270810  0.768995
    O   O9   0.308400  0.592970  0.304230  -0.511977
    O   O10  0.264060  0.483050  0.215560  -0.450580
    H   H27  0.286540  0.581510  0.353460  0.389620
    O   O11  0.339350  0.451490  0.343430  -0.405070
    S   S2   0.664550  0.494220  0.729190  0.775368
    O   O12  0.682240  0.580020  0.695180  -0.456415
    O   O13  0.738680  0.466390  0.784600  -0.456243
    H   H28  0.705420  0.567020  0.646030  0.379456
    O   O14  0.666500  0.440260  0.656930  -0.426563
