data_DB1-Cu2O8-ADC_A-AZO_A_No1219_repeat
_audit_creation_date              2024-02-24
_audit_creation_method            'Materials Studio'
_symmetry_space_group_name_H-M    'P1'
_symmetry_Int_Tables_number       1
_symmetry_cell_setting            triclinic
loop_
_symmetry_equiv_pos_as_xyz
  x,y,z
_cell_length_a                    34.9964
_cell_length_b                    24.5532
_cell_length_c                    10.0000
_cell_angle_alpha                 90.0000
_cell_angle_beta                  90.0000
_cell_angle_gamma                 135.3770
loop_
_atom_site_label
_atom_site_type_symbol
_atom_site_fract_x
_atom_site_fract_y
_atom_site_fract_z
_atom_site_U_iso_or_equiv
_atom_site_adp_type
_atom_site_occupancy
Cu1    Cu    0.50013   0.50026   0.62726   0.00000  Uiso   1.00
Cu2    Cu    0.49987   0.49973   0.37274   0.00000  Uiso   1.00
O1     O     0.44967   0.39943   0.61931   0.00000  Uiso   1.00
O2     O     0.55057   0.60126   0.61804   0.00000  Uiso   1.00
O3     O     0.45044   0.50046   0.61867   0.00000  Uiso   1.00
O4     O     0.54980   0.50023   0.61868   0.00000  Uiso   1.00
O5     O     0.54957   0.49955   0.38133   0.00000  Uiso   1.00
O6     O     0.45019   0.49973   0.38132   0.00000  Uiso   1.00
O7     O     0.55031   0.60064   0.38069   0.00000  Uiso   1.00
O8     O     0.44945   0.39873   0.38196   0.00000  Uiso   1.00
C1     C     0.42730   0.35458   0.50091   0.00000  Uiso   1.00
C2     C     0.57270   0.64541   0.49909   0.00000  Uiso   1.00
C3     C     0.42839   0.50010   0.49999   0.00000  Uiso   1.00
C4     C     0.57161   0.49989   0.50000   0.00000  Uiso   1.00
Cu3    Cu    0.99962   0.49924   0.28188   0.00000  Uiso   1.00
Cu4    Cu    0.00008   0.50016   0.53639   0.00000  Uiso   1.00
O9     O     0.94940   0.39846   0.29154   0.00000  Uiso   1.00
O10    O     0.05009   0.60029   0.28938   0.00000  Uiso   1.00
O11    O     0.04953   0.49948   0.29044   0.00000  Uiso   1.00
O12    O     0.94996   0.49927   0.29047   0.00000  Uiso   1.00
O13    O     0.95019   0.49995   0.52783   0.00000  Uiso   1.00
O14    O     0.04974   0.50011   0.52780   0.00000  Uiso   1.00
O15    O     0.05040   0.60103   0.52673   0.00000  Uiso   1.00
O16    O     0.94961   0.39911   0.52890   0.00000  Uiso   1.00
C5     C     0.92732   0.35429   0.41070   0.00000  Uiso   1.00
C6     C     0.07238   0.64511   0.40758   0.00000  Uiso   1.00
C7     C     0.07156   0.49979   0.40912   0.00000  Uiso   1.00
C8     C     0.92814   0.49961   0.40916   0.00000  Uiso   1.00
C9     C     0.88547   0.49961   0.40916   0.00000  Uiso   1.00
C10    C     0.86503   0.49996   0.53008   0.00000  Uiso   1.00
C11    C     0.82501   0.49996   0.53024   0.00000  Uiso   1.00
C12    C     0.80424   0.49962   0.40893   0.00000  Uiso   1.00
C13    C     0.82473   0.49927   0.28832   0.00000  Uiso   1.00
C14    C     0.86472   0.49927   0.28824   0.00000  Uiso   1.00
C15    C     0.76162   0.49960   0.40144   0.00000  Uiso   1.00
C16    C     0.73814   0.49990   0.50777   0.00000  Uiso   1.00
C17    C     0.67502   0.50023   0.62087   0.00000  Uiso   1.00
C18    C     0.69552   0.49988   0.50026   0.00000  Uiso   1.00
C19    C     0.67475   0.49954   0.37894   0.00000  Uiso   1.00
C20    C     0.63472   0.49954   0.37910   0.00000  Uiso   1.00
C21    C     0.61428   0.49989   0.50001   0.00000  Uiso   1.00
C22    C     0.63503   0.50023   0.62094   0.00000  Uiso   1.00
H1     H     0.88026   0.50023   0.62461   0.00000  Uiso   1.00
H2     H     0.81097   0.50024   0.62594   0.00000  Uiso   1.00
H3     H     0.80973   0.49900   0.19334   0.00000  Uiso   1.00
H4     H     0.69001   0.50050   0.71585   0.00000  Uiso   1.00
H5     H     0.68879   0.49926   0.28324   0.00000  Uiso   1.00
H6     H     0.61950   0.49927   0.28457   0.00000  Uiso   1.00
H7     H     0.74956   0.49931   0.30205   0.00000  Uiso   1.00
H8     H     0.75019   0.50019   0.60716   0.00000  Uiso   1.00
C23    C     0.11424   0.49979   0.40913   0.00000  Uiso   1.00
C24    C     0.13503   0.50017   0.53004   0.00000  Uiso   1.00
C25    C     0.17506   0.50017   0.53021   0.00000  Uiso   1.00
C26    C     0.19547   0.49980   0.40890   0.00000  Uiso   1.00
C27    C     0.17462   0.49943   0.28829   0.00000  Uiso   1.00
C28    C     0.13463   0.49942   0.28821   0.00000  Uiso   1.00
C29    C     0.23807   0.49978   0.40142   0.00000  Uiso   1.00
C30    C     0.26187   0.50011   0.50774   0.00000  Uiso   1.00
C31    C     0.32533   0.50046   0.62085   0.00000  Uiso   1.00
C32    C     0.30447   0.50009   0.50024   0.00000  Uiso   1.00
C33    C     0.32488   0.49972   0.37892   0.00000  Uiso   1.00
C34    C     0.36491   0.49972   0.37909   0.00000  Uiso   1.00
C35    C     0.38571   0.50009   0.50000   0.00000  Uiso   1.00
C36    C     0.36532   0.50047   0.62092   0.00000  Uiso   1.00
H9     H     0.12008   0.50046   0.62457   0.00000  Uiso   1.00
H10    H     0.18939   0.50047   0.62591   0.00000  Uiso   1.00
H11    H     0.18934   0.49913   0.19331   0.00000  Uiso   1.00
H12    H     0.31061   0.50075   0.71583   0.00000  Uiso   1.00
H13    H     0.31056   0.49942   0.28322   0.00000  Uiso   1.00
H14    H     0.37986   0.49943   0.28455   0.00000  Uiso   1.00
H15    H     0.24984   0.49947   0.30202   0.00000  Uiso   1.00
H16    H     0.25011   0.50041   0.60714   0.00000  Uiso   1.00
C37    C     0.11568   0.73165   0.40704   0.00000  Uiso   1.00
C38    C     0.13666   0.77372   0.52793   0.00000  Uiso   1.00
C39    C     0.17732   0.85499   0.52710   0.00000  Uiso   1.00
C40    C     0.19783   0.89585   0.40556   0.00000  Uiso   1.00
C41    C     0.17715   0.85438   0.28522   0.00000  Uiso   1.00
C42    C     0.13650   0.77314   0.28558   0.00000  Uiso   1.00
N1     N     0.23949   0.97910   0.40148   0.00000  Uiso   1.00
N2     N     0.26019   0.02059   0.50701   0.00000  Uiso   1.00
C43    C     0.32253   0.14531   0.62326   0.00000  Uiso   1.00
C44    C     0.30184   0.10384   0.50292   0.00000  Uiso   1.00
C45    C     0.32235   0.14470   0.38138   0.00000  Uiso   1.00
C46    C     0.36302   0.22598   0.38056   0.00000  Uiso   1.00
C47    C     0.38400   0.26804   0.50145   0.00000  Uiso   1.00
C48    C     0.36317   0.22655   0.62290   0.00000  Uiso   1.00
H17    H     0.12141   0.74333   0.62268   0.00000  Uiso   1.00
H18    H     0.19291   0.88624   0.62084   0.00000  Uiso   1.00
H19    H     0.30699   0.11435   0.71737   0.00000  Uiso   1.00
H20    H     0.30677   0.11346   0.28765   0.00000  Uiso   1.00
C49    C     0.88448   0.26793   0.39746   0.00000  Uiso   1.00
C50    C     0.86363   0.22637   0.51887   0.00000  Uiso   1.00
C51    C     0.82293   0.14510   0.51906   0.00000  Uiso   1.00
C52    C     0.80225   0.10372   0.39803   0.00000  Uiso   1.00
C53    C     0.82279   0.14469   0.27717   0.00000  Uiso   1.00
C54    C     0.86348   0.22593   0.27652   0.00000  Uiso   1.00
N3     N     0.76055   0.02046   0.39498   0.00000  Uiso   1.00
N4     N     0.73996   0.97941   0.50103   0.00000  Uiso   1.00
C55    C     0.67772   0.85519   0.61883   0.00000  Uiso   1.00
C56    C     0.69827   0.89615   0.49797   0.00000  Uiso   1.00
C57    C     0.67758   0.85478   0.37694   0.00000  Uiso   1.00
C58    C     0.63688   0.77351   0.37714   0.00000  Uiso   1.00
C59    C     0.61604   0.73195   0.49854   0.00000  Uiso   1.00
C60    C     0.63704   0.77395   0.61948   0.00000  Uiso   1.00
H21    H     0.87902   0.25715   0.61324   0.00000  Uiso   1.00
H22    H     0.80746   0.11424   0.61317   0.00000  Uiso   1.00
H23    H     0.69340   0.88654   0.71254   0.00000  Uiso   1.00
H24    H     0.69306   0.88563   0.28283   0.00000  Uiso   1.00
O17    O     0.88554   0.49889   0.15634   0.00000  Uiso   1.00
H25    H     0.91683   0.49894   0.17498   0.00000  Uiso   1.00
O18    O     0.61421   0.50061   0.75283   0.00000  Uiso   1.00
H26    H     0.58292   0.50056   0.73418   0.00000  Uiso   1.00
O19    O     0.11342   0.49901   0.15631   0.00000  Uiso   1.00
H27    H     0.08218   0.49907   0.17495   0.00000  Uiso   1.00
O20    O     0.38653   0.50087   0.75281   0.00000  Uiso   1.00
H28    H     0.41777   0.50082   0.73417   0.00000  Uiso   1.00
O21    O     0.11808   0.73620   0.17250   0.00000  Uiso   1.00
Li1    Li    0.13317   0.76620   0.00941   0.00000  Uiso   1.00
O22    O     0.19579   0.89152   0.17233   0.00000  Uiso   1.00
Li2    Li    0.24409   0.98801   0.13259   0.00000  Uiso   1.00
O23    O     0.38160   0.26350   0.73598   0.00000  Uiso   1.00
Li3    Li    0.36650   0.23350   0.89907   0.00000  Uiso   1.00
O24    O     0.38130   0.26240   0.26697   0.00000  Uiso   1.00
Li4    Li    0.36601   0.23166   0.10430   0.00000  Uiso   1.00
O25    O     0.88177   0.26240   0.16298   0.00000  Uiso   1.00
Li5    Li    0.86644   0.23172   0.00027   0.00000  Uiso   1.00
O26    O     0.80398   0.10708   0.16475   0.00000  Uiso   1.00
Li6    Li    0.75559   0.01042   0.12621   0.00000  Uiso   1.00
O27    O     0.61875   0.73748   0.73302   0.00000  Uiso   1.00
Li7    Li    0.63407   0.76816   0.89573   0.00000  Uiso   1.00
O28    O     0.61843   0.73661   0.26401   0.00000  Uiso   1.00
Li8    Li    0.63353   0.76667   0.10095   0.00000  Uiso   1.00
