# Generated by REPEAT Assigner based on pymatgen
data_DB1-Zn4O13-irmof7_A-irmof8_A_No199
_audit_creation_date              2022-05-24
_audit_creation_method            REPEAT_Assigner
_cell_length_a                    19.757100
_cell_length_b                    21.411500
_cell_length_c                    33.210300
_cell_angle_alpha                 90.000000
_cell_angle_beta                  81.850900
_cell_angle_gamma                 57.189100
_cell_volume                      11638.463834
_symmetry_space_group_name_H-M    P1
_symmetry_Int_Tables_number       1
loop_
    _symmetry_equiv_pos_site_id
    _symmetry_equiv_pos_as_xyz
    1  x,y,z
loop_
    _atom_site_type_symbol
    _atom_site_label
    _atom_site_fract_x
    _atom_site_fract_y
    _atom_site_fract_z
    _atom_type_partial_charge
    C   C1    0.685150  0.447850  0.633010  0.001212
    C   C2    0.617170  0.521340  0.638510  -0.179408
    C   C3    0.601610  0.570020  0.671630  -0.065879
    C   C4    0.198620  0.650690  0.349310  -0.027179
    C   C5    0.185150  0.697850  0.383010  0.073891
    C   C6    0.266010  0.576560  0.342580  0.088430
    C   C7    0.117170  0.771340  0.388510  -0.331783
    C   C8    0.101610  0.820020  0.421620  0.210915
    C   C9    0.301380  0.599310  0.400690  -0.008875
    C   C10   0.314850  0.552150  0.366990  -0.031125
    C   C11   0.233990  0.673440  0.407420  0.046167
    C   C12   0.222980  0.718430  0.441410  -0.262496
    C   C13   0.156750  0.792450  0.449200  0.068758
    C   C14   0.146910  0.396430  0.649280  -0.250644
    C   C15   0.250270  0.273600  0.662800  -0.253606
    C   C16   0.313610  0.278300  0.641200  0.072646
    C   C17   0.291600  0.345350  0.623050  0.049596
    C   C18   0.353090  0.353570  0.600720  -0.249801
    C   C19   0.249730  0.476400  0.587200  -0.228944
    C   C20   0.186390  0.471700  0.608800  0.055068
    C   C21   0.208400  0.404650  0.626950  0.056157
    C   C22   0.167220  0.333610  0.666390  0.310792
    C   C23   0.332780  0.416390  0.583610  0.287359
    C   C24   0.798560  0.630830  0.323460  -0.280588
    C   C25   0.825600  0.688470  0.375130  -0.203077
    C   C26   0.782410  0.673690  0.406800  -0.005198
    C   C27   0.746090  0.635800  0.395800  0.086365
    C   C28   0.701440  0.619170  0.426540  -0.269726
    C   C29   0.674410  0.561530  0.374870  -0.244360
    C   C30   0.717600  0.576310  0.343200  0.016324
    C   C31   0.753910  0.614200  0.354200  0.087442
    C   C32   0.832780  0.666390  0.333610  0.288945
    C   C33   0.667220  0.583610  0.416390  0.308113
    C   C34   0.798560  0.070610  0.323460  -0.259552
    C   C35   0.825600  0.985940  0.375130  -0.234831
    C   C36   0.782410  0.043910  0.406800  0.071494
    C   C37   0.746090  0.118110  0.395800  0.054399
    C   C38   0.701440  0.179390  0.426540  -0.255223
    C   C39   0.674410  0.264060  0.374870  -0.242683
    C   C40   0.717600  0.206090  0.343200  0.049484
    C   C41   0.753910  0.131890  0.354200  0.060828
    C   C42   0.832780  0.000830  0.333610  0.284213
    C   C43   0.667220  0.249170  0.416390  0.307719
    C   C44   0.247150  0.952250  0.653690  -0.274448
    C   C45   0.110810  0.982260  0.656670  -0.235496
    C   C46   0.137100  0.915850  0.633440  -0.020520
    C   C47   0.222310  0.866090  0.620000  0.126478
    C   C48   0.252850  0.797750  0.596310  -0.325903
    C   C49   0.389200  0.767740  0.593330  -0.198027
    C   C50   0.362900  0.834150  0.616560  0.011319
    C   C51   0.277690  0.883910  0.630000  0.067804
    C   C52   0.167220  0.999170  0.666390  0.324943
    C   C53   0.332780  0.750830  0.583610  0.296706
    C   C54   0.618330  0.322510  0.440840  0.385509
    C   C55   0.301380  0.099310  0.900690  -0.038279
    C   C56   0.233990  0.092580  0.907420  0.063106
    C   C57   0.314850  0.133010  0.866990  0.112203
    C   C58   0.222980  0.058590  0.941410  -0.317755
    C   C59   0.156750  0.050800  0.949200  0.215925
    C   C60   0.198620  0.150690  0.849310  0.014549
    C   C61   0.266010  0.157420  0.842580  -0.054687
    C   C62   0.358860  0.570570  0.429430  0.457322
    C   C63   0.185150  0.116990  0.883010  0.043037
    C   C64   0.117170  0.111490  0.888510  -0.268419
    C   C65   0.101610  0.078370  0.921630  0.077736
    C   C66   0.701440  0.679390  0.926540  -0.247918
    C   C67   0.674410  0.764060  0.874870  -0.236692
    C   C68   0.717600  0.706100  0.843200  0.047201
    C   C69   0.753910  0.631890  0.854200  0.026455
    C   C70   0.798560  0.570610  0.823460  -0.200372
    C   C71   0.825600  0.485940  0.875130  -0.233392
    C   C72   0.381670  0.440840  0.559160  0.443353
    C   C73   0.782410  0.543910  0.906800  0.064758
    C   C74   0.746090  0.618110  0.895800  0.059709
    C   C75   0.667220  0.749170  0.916390  0.307801
    C   C76   0.832780  0.500830  0.833610  0.246876
    C   C77   0.692630  0.077860  0.876420  -0.263040
    C   C78   0.686670  0.119000  0.944600  -0.215537
    C   C79   0.381670  0.677490  0.559160  0.385701
    C   C80   0.733110  0.149050  0.931450  0.022590
    C   C81   0.760000  0.142760  0.888850  0.096119
    C   C82   0.807370  0.172140  0.873580  -0.310461
    C   C83   0.813330  0.131000  0.805400  -0.230021
    C   C84   0.766890  0.100950  0.818550  0.040122
    C   C85   0.740000  0.107240  0.861150  0.054338
    C   C86   0.667220  0.083610  0.916390  0.301138
    C   C87   0.832780  0.166390  0.833610  0.312204
    C   C88   0.641140  0.429430  0.570570  0.497616
    C   C89   0.698620  0.900690  0.099310  -0.043379
    C   C90   0.766020  0.907420  0.092580  0.075534
    C   C91   0.685150  0.866990  0.133010  0.117008
    C   C92   0.777020  0.941420  0.058590  -0.336319
    C   C93   0.843250  0.949200  0.050800  0.221645
    C   C94   0.801380  0.849310  0.150690  0.024507
    C   C95   0.733990  0.842580  0.157420  -0.072586
    C   C96   0.618330  0.559160  0.440840  0.429710
    C   C97   0.814850  0.883010  0.116990  0.043331
    C   C98   0.882830  0.888510  0.111490  -0.249811
    C   C99   0.898400  0.921630  0.078380  0.028701
    C   C100  0.252850  0.297750  0.096310  -0.234389
    C   C101  0.389200  0.267740  0.093330  -0.209790
    C   C102  0.362900  0.334150  0.116560  -0.005260
    C   C103  0.277690  0.383910  0.130000  0.113219
    C   C104  0.247150  0.452250  0.153690  -0.298580
    C   C105  0.110810  0.482260  0.156670  -0.223511
    C   C106  0.137100  0.415850  0.133440  0.022747
    C   C107  0.222310  0.366090  0.120000  0.049238
    C   C108  0.332780  0.250830  0.083610  0.263460
    C   C109  0.167220  0.499170  0.166390  0.324233
    C   C110  0.353090  0.853570  0.100720  -0.234306
    C   C111  0.249730  0.976400  0.087200  -0.217058
    C   C112  0.186390  0.971700  0.108800  0.014934
    C   C113  0.208400  0.904650  0.126960  0.093959
    C   C114  0.146910  0.896430  0.149280  -0.311189
    C   C115  0.250270  0.773600  0.162800  -0.218954
    C   C116  0.313610  0.778310  0.141200  0.043527
    C   C117  0.291610  0.845350  0.123050  0.047648
    C   C118  0.332780  0.916390  0.083610  0.267776
    C   C119  0.167220  0.833610  0.166390  0.316528
    C   C120  0.778750  0.276150  0.554900  -0.120556
    C   C121  0.890200  0.220430  0.610630  -0.212688
    C   C122  0.644720  0.592270  0.736990  -0.434762
    C   C123  0.526030  0.651610  0.677640  -0.153500
    C   C124  0.390200  0.470430  0.360620  -0.034321
    C   C125  0.278750  0.526160  0.304900  -0.196062
    C   C126  0.026030  0.901610  0.427640  -0.439526
    C   C127  0.144720  0.842270  0.486990  -0.389965
    C   C128  0.278750  0.195100  0.804900  -0.011400
    C   C129  0.390190  0.139370  0.860630  -0.213345
    C   C130  0.144720  0.013010  0.986990  -0.488873
    C   C131  0.026030  0.072360  0.927640  -0.392215
    C   C132  0.721250  0.804900  0.195100  -0.120068
    C   C133  0.609810  0.860630  0.139380  -0.203013
    C   C134  0.855280  0.986990  0.013010  -0.451992
    C   C135  0.973970  0.927640  0.072360  -0.311383
    C   C136  0.118330  0.309160  0.690840  0.385568
    C   C137  0.141140  0.179430  0.820570  0.464303
    C   C138  0.881670  0.427490  0.809160  0.468471
    C   C139  0.881670  0.190840  0.809160  0.391646
    C   C140  0.858860  0.320570  0.679430  0.474374
    C   C141  0.118330  0.072510  0.690840  0.393690
    C   C142  0.881680  0.690840  0.309160  0.419901
    C   C143  0.858860  0.820570  0.179430  0.478694
    C   C144  0.881670  0.927490  0.309160  0.425498
    C   C145  0.118330  0.809160  0.190840  0.381822
    C   C146  0.141140  0.679430  0.320570  0.479648
    C   C147  0.118330  0.572510  0.190840  0.401071
    C   C148  0.381670  0.177490  0.059160  0.450159
    C   C149  0.641140  0.929430  0.070570  0.476962
    C   C150  0.381670  0.940840  0.059160  0.426073
    C   C151  0.618330  0.822510  0.940840  0.407627
    C   C152  0.358860  0.070570  0.929430  0.468055
    C   C153  0.618330  0.059160  0.940840  0.375154
    C   C154  0.801380  0.349310  0.650690  -0.052826
    C   C155  0.733990  0.423440  0.657420  0.107596
    C   C156  0.814850  0.302150  0.616990  0.117114
    C   C157  0.722980  0.468430  0.691410  -0.331986
    C   C158  0.656750  0.542450  0.699200  0.211614
    C   C159  0.698620  0.400690  0.599310  0.026407
    C   C160  0.766010  0.326560  0.592580  -0.061528
    H   H1    0.581670  0.538030  0.619690  0.145379
    H   H2    0.081660  0.788030  0.369690  0.177375
    H   H3    0.260620  0.698540  0.459170  0.154479
    H   H4    0.082990  0.442490  0.652080  0.147918
    H   H5    0.264760  0.223330  0.677030  0.175069
    H   H6    0.417010  0.307510  0.597920  0.146228
    H   H7    0.235250  0.526670  0.572960  0.178984
    H   H8    0.804170  0.613930  0.291500  0.152990
    H   H9    0.854070  0.717260  0.382380  0.178357
    H   H10   0.695830  0.636070  0.458500  0.139997
    H   H11   0.645930  0.532750  0.367620  0.187622
    H   H12   0.804190  0.081910  0.291500  0.151873
    H   H13   0.854080  0.928670  0.382380  0.183528
    H   H14   0.695810  0.168100  0.458500  0.150616
    H   H15   0.645920  0.321330  0.367620  0.179730
    H   H16   0.290410  0.965400  0.661200  0.153482
    H   H17   0.046290  0.021510  0.667430  0.173986
    H   H18   0.209600  0.784610  0.588800  0.178669
    H   H19   0.453710  0.728480  0.582570  0.179558
    H   H20   0.260620  0.040830  0.959170  0.163969
    H   H21   0.081660  0.130310  0.869690  0.149636
    H   H22   0.695830  0.668090  0.958500  0.146428
    H   H23   0.645930  0.821330  0.867620  0.182499
    H   H24   0.804170  0.581910  0.791500  0.152751
    H   H25   0.854080  0.428670  0.882380  0.180347
    H   H26   0.677600  0.050600  0.854790  0.137692
    H   H27   0.665140  0.122770  0.976850  0.174916
    H   H28   0.822400  0.199400  0.895200  0.174674
    H   H29   0.834870  0.127230  0.773150  0.184852
    H   H30   0.739380  0.959170  0.040830  0.188109
    H   H31   0.918340  0.869690  0.130310  0.155553
    H   H32   0.209590  0.284620  0.088790  0.140989
    H   H33   0.453710  0.228490  0.082560  0.181020
    H   H34   0.290410  0.465380  0.161220  0.143883
    H   H35   0.046300  0.521520  0.167440  0.177690
    H   H36   0.417000  0.807500  0.097900  0.140320
    H   H37   0.235230  0.026670  0.072960  0.177743
    H   H38   0.083000  0.942500  0.152100  0.179381
    H   H39   0.264750  0.723340  0.177040  0.181002
    H   H40   0.830170  0.259660  0.537990  0.040851
    H   H41   0.735380  0.304000  0.539510  0.082029
    H   H42   0.778580  0.233630  0.563910  0.097346
    H   H43   0.872170  0.186820  0.610830  0.087893
    H   H44   0.921120  0.211260  0.632240  0.092831
    H   H45   0.923890  0.212680  0.584860  0.062323
    H   H46   0.645250  0.634680  0.728100  0.172155
    H   H47   0.688170  0.563980  0.752270  0.092049
    H   H48   0.593300  0.608950  0.753950  0.132136
    H   H49   0.491970  0.659490  0.703290  0.054678
    H   H50   0.495590  0.660400  0.655850  0.057926
    H   H51   0.543800  0.685410  0.677500  0.108043
    H   H52   0.372170  0.436820  0.360830  0.018765
    H   H53   0.421120  0.461260  0.382240  0.030469
    H   H54   0.423890  0.462680  0.334860  0.054388
    H   H55   0.330170  0.509670  0.287990  0.083792
    H   H56   0.235380  0.554000  0.289510  0.071185
    H   H57   0.278580  0.483630  0.313910  0.047145
    H   H58   0.991970  0.909490  0.453290  0.158910
    H   H59   0.995590  0.910400  0.405850  0.123671
    H   H60   0.043800  0.935410  0.427500  0.112121
    H   H61   0.145250  0.884690  0.478100  0.078963
    H   H62   0.188170  0.813980  0.502270  0.176608
    H   H63   0.093300  0.858950  0.503950  0.206855
    H   H64   0.278330  0.237930  0.813910  0.018725
    H   H65   0.235510  0.210430  0.789440  0.021671
    H   H66   0.330280  0.160240  0.788060  0.040704
    H   H67   0.424010  0.113250  0.834910  0.083858
    H   H68   0.420980  0.117820  0.882310  0.081560
    H   H69   0.372180  0.190990  0.860710  0.054512
    H   H70   0.093410  0.047820  0.004020  0.187301
    H   H71   0.188300  0.997660  0.002210  0.144892
    H   H72   0.145010  0.970190  0.978100  0.118350
    H   H73   0.043800  0.020790  0.927370  0.084099
    H   H74   0.995450  0.094220  0.905920  0.170553
    H   H75   0.992090  0.098360  0.953350  0.194216
    H   H76   0.669830  0.839830  0.212010  0.040195
    H   H77   0.764620  0.789380  0.210490  0.076796
    H   H78   0.721430  0.762210  0.186090  0.096038
    H   H79   0.627830  0.809000  0.139160  0.087823
    H   H80   0.578880  0.882380  0.117760  0.067222
    H   H81   0.576120  0.886570  0.165140  0.051103
    H   H82   0.854750  0.029940  0.021900  0.152444
    H   H83   0.811830  0.002140  0.997720  0.128975
    H   H84   0.906700  0.952250  0.996050  0.119303
    H   H85   0.008030  0.901460  0.046710  0.072020
    H   H86   0.004420  0.905990  0.094150  0.142860
    H   H87   0.956210  0.979200  0.072500  0.176226
    H   H88   0.994150  0.601340  0.666400  0.412597
    H   H89   0.517680  0.204060  0.650840  0.407099
    H   H90   0.832800  0.485180  0.247080  0.396157
    H   H91   0.801680  0.636260  0.508840  0.405053
    H   H92   0.698320  0.187930  0.241160  0.402349
    H   H93   0.667220  0.067980  0.502930  0.420029
    H   H94   0.446760  0.884610  0.686300  0.412153
    H   H95   0.065050  0.798160  0.630940  0.417922
    H   H96   0.667200  0.567990  0.002920  0.416346
    H   H97   0.698330  0.687940  0.741160  0.377982
    H   H98   0.627410  0.078300  0.776620  0.402021
    H   H99   0.738120  0.300260  0.967480  0.410098
    H   H100  0.065060  0.298140  0.130950  0.398140
    H   H101  0.446770  0.384610  0.186290  0.407591
    H   H102  0.517670  0.704080  0.150840  0.404912
    H   H103  0.994150  0.101340  0.166390  0.427634
    H   H104  0.760630  0.448540  0.709170  0.189166
    O   O1    0.327520  0.586240  0.468180  -0.541450
    O   O2    0.341360  0.651090  0.546860  -0.568528
    O   O3    0.618060  0.495400  0.559030  -0.597061
    O   O4    0.460700  0.645840  0.552110  -0.529868
    O   O5    0.618060  0.386550  0.559030  -0.625699
    O   O6    0.593730  0.524900  0.420680  -0.570459
    O   O7    0.604220  0.574080  0.480350  -0.574770
    O   O8    0.000000  0.250000  0.750000  -1.554067
    O   O9    0.039300  0.356540  0.697890  -0.562497
    O   O10   0.172480  0.163760  0.781810  -0.607010
    O   O11   0.906270  0.368630  0.829320  -0.580416
    O   O12   0.158650  0.242440  0.703140  -0.515899
    O   O13   0.048850  0.592350  0.660170  -0.465925
    O   O14   0.068500  0.603690  0.580860  -0.411730
    O   O15   0.895780  0.428300  0.769650  -0.597002
    O   O16   0.026350  0.515630  0.609200  -0.436227
    O   O17   0.464930  0.222180  0.668130  -0.479715
    O   O18   0.427480  0.127500  0.646320  -0.407136
    O   O19   0.465050  0.194080  0.591910  -0.439583
    O   O20   0.820340  0.473060  0.274420  -0.458612
    O   O21   0.661730  0.531190  0.284250  -0.409863
    O   O22   0.063630  0.218180  0.836240  -0.541539
    O   O23   0.718410  0.612000  0.263170  -0.465186
    O   O24   0.836270  0.627220  0.482460  -0.463471
    O   O25   0.792650  0.762430  0.463740  -0.426000
    O   O26   0.683830  0.731480  0.482530  -0.430292
    O   O27   0.663720  0.213480  0.267540  -0.463082
    O   O28   0.707350  0.305070  0.286260  -0.412417
    O   O29   0.906270  0.225100  0.829320  -0.566897
    O   O30   0.816170  0.165300  0.267470  -0.453275
    O   O31   0.679670  0.043390  0.475580  -0.464951
    O   O32   0.838290  0.942910  0.465740  -0.374924
    O   O33   0.781620  0.080390  0.486820  -0.470760
    O   O34   0.445950  0.841350  0.677630  -0.500941
    O   O35   0.518820  0.808010  0.600660  -0.415671
    O   O36   0.881950  0.254600  0.690970  -0.598635
    O   O37   0.397830  0.941700  0.625530  -0.414723
    O   O38   0.067810  0.830350  0.650680  -0.483764
    O   O39   0.977170  0.964820  0.626530  -0.411205
    O   O40   0.093570  0.857200  0.575580  -0.529378
    O   O41   0.679660  0.543400  0.975580  -0.468226
    O   O42   0.838270  0.442920  0.965750  -0.409815
    O   O43   0.895780  0.175920  0.769650  -0.557276
    O   O44   0.781600  0.580400  0.986820  -0.429992
    O   O45   0.663730  0.713490  0.767540  -0.473456
    O   O46   0.707350  0.805080  0.786260  -0.419154
    O   O47   0.816170  0.665310  0.767470  -0.460793
    O   O48   0.644750  0.113300  0.777030  -0.460986
    O   O49   0.798680  0.033240  0.740590  -0.415501
    O   O50   0.881940  0.363450  0.690970  -0.561683
    O   O51   0.748940  0.984920  0.801090  -0.419220
    O   O52   0.698640  0.286420  0.966090  -0.470612
    O   O53   0.746940  0.173130  0.011420  -0.386831
    O   O54   0.848830  0.171600  0.953220  -0.507504
    O   O55   0.067830  0.330340  0.150680  -0.469291
    O   O56   0.977170  0.464800  0.126530  -0.421617
    O   O57   0.158650  0.098920  0.703140  -0.573658
    O   O58   0.093580  0.357190  0.075590  -0.425487
    O   O59   0.445950  0.341350  0.177620  -0.475047
    O   O60   0.518820  0.308000  0.100650  -0.431190
    O   O61   0.397840  0.441690  0.125520  -0.427150
    O   O62   0.464920  0.722190  0.168140  -0.467071
    O   O63   0.427490  0.627510  0.146330  -0.406211
    O   O64   0.039300  0.104160  0.697890  -0.543445
    O   O65   0.465060  0.694090  0.091920  -0.454076
    O   O66   0.048840  0.092350  0.160160  -0.486083
    O   O67   0.068510  0.103690  0.080860  -0.430910
    O   O68   0.026350  0.015630  0.109190  -0.519815
    O   O69   0.500000  0.500000  0.500000  -1.557966
    O   O70   0.604220  0.321700  0.480350  -0.556871
    O   O71   0.000000  0.750000  0.250000  -1.563195
    O   O72   0.906270  0.725100  0.329320  -0.564372
    O   O73   0.881950  0.754600  0.190970  -0.590659
    O   O74   0.895780  0.928300  0.269650  -0.585428
    O   O75   0.895780  0.675930  0.269650  -0.578140
    O   O76   0.906270  0.868630  0.329320  -0.552695
    O   O77   0.881950  0.863450  0.190970  -0.589233
    O   O78   0.039310  0.856540  0.197890  -0.558609
    O   O79   0.172480  0.663760  0.281820  -0.606037
    O   O80   0.158650  0.742440  0.203140  -0.544136
    O   O81   0.436370  0.531820  0.413760  -0.580726
    O   O82   0.063630  0.718190  0.336240  -0.561677
    O   O83   0.039300  0.604160  0.197890  -0.574047
    O   O84   0.158650  0.598920  0.203140  -0.550687
    O   O85   0.341360  0.507560  0.546860  -0.577149
    O   O86   0.500000  0.000000  0.000000  -1.545320
    O   O87   0.341350  0.151090  0.046860  -0.584314
    O   O88   0.618060  0.995400  0.059030  -0.579309
    O   O89   0.460700  0.893470  0.052110  -0.569694
    O   O90   0.460700  0.145840  0.052110  -0.572304
    O   O91   0.341350  0.007560  0.046860  -0.568403
    O   O92   0.618060  0.886550  0.059030  -0.574945
    O   O93   0.593730  0.381370  0.420680  -0.542169
    O   O94   0.604220  0.821700  0.980350  -0.567556
    O   O95   0.436370  0.031820  0.913760  -0.613105
    O   O96   0.593730  0.881380  0.920680  -0.555470
    O   O97   0.327520  0.086240  0.968180  -0.523430
    O   O98   0.604220  0.074080  0.980350  -0.539789
    O   O99   0.593730  0.024900  0.920680  -0.534486
    O   O100  0.460700  0.393470  0.552110  -0.592479
    S   S1    0.084040  0.544860  0.613520  0.751612
    S   S2    0.415960  0.205130  0.636470  0.759662
    S   S3    0.727050  0.549600  0.292020  0.799963
    S   S4    0.772950  0.700410  0.457980  0.802226
    S   S5    0.727050  0.223350  0.292020  0.768587
    S   S6    0.772960  0.026640  0.457980  0.751805
    S   S7    0.431340  0.855840  0.628790  0.774863
    S   S8    0.068660  0.894170  0.621210  0.866680
    S   S9    0.772960  0.526650  0.957980  0.747594
    S   S10   0.727050  0.723360  0.792020  0.801493
    S   S11   0.742420  0.057280  0.784330  0.763836
    S   S12   0.757590  0.192710  0.965670  0.807207
    S   S13   0.068670  0.394160  0.121210  0.781516
    S   S14   0.431340  0.355840  0.128780  0.805031
    S   S15   0.415970  0.705140  0.136470  0.777553
    S   S16   0.084040  0.044860  0.113520  0.839409
    Zn  Zn1   0.544160  0.403880  0.522080  1.316250
    Zn  Zn2   0.529880  0.485060  0.440900  1.285217
    Zn  Zn3   0.381800  0.559100  0.514940  1.277757
    Zn  Zn4   0.955840  0.346120  0.727920  1.280241
    Zn  Zn5   0.118200  0.190900  0.735060  1.290626
    Zn  Zn6   0.970120  0.264940  0.809100  1.280692
    Zn  Zn7   0.955840  0.198040  0.727920  1.292541
    Zn  Zn8   0.544160  0.551960  0.522080  1.286281
    Zn  Zn9   0.970120  0.764940  0.309100  1.275239
    Zn  Zn10  0.955840  0.698040  0.227920  1.305813
    Zn  Zn11  0.955850  0.846120  0.227920  1.298390
    Zn  Zn12  0.118200  0.690900  0.235060  1.295094
    Zn  Zn13  0.381800  0.059100  0.014940  1.267280
    Zn  Zn14  0.544160  0.051960  0.022080  1.274783
    Zn  Zn15  0.544160  0.903880  0.022080  1.290402
    Zn  Zn16  0.529880  0.985060  0.940900  1.283351
