# generated using pymatgen
data_AlH7(C2O)5
_symmetry_space_group_name_H-M   'P 1'
_cell_length_a   14.69080000
_cell_length_b   20.94130000
_cell_length_c   6.60720000
_cell_angle_alpha   90.00000000
_cell_angle_beta   90.00000000
_cell_angle_gamma   45.45070000
_symmetry_Int_Tables_number   1
_chemical_formula_structural   AlH7(C2O)5
_chemical_formula_sum   'Al4 H28 C40 O20'
_cell_volume   1448.57522692
_cell_formula_units_Z   4
loop_
 _symmetry_equiv_pos_site_id
 _symmetry_equiv_pos_as_xyz
  1  'x, y, z'
loop_
 _atom_site_type_symbol
 _atom_site_label
 _atom_site_symmetry_multiplicity
 _atom_site_fract_x
 _atom_site_fract_y
 _atom_site_fract_z
 _atom_site_occupancy
  Al  Al1  1  0.50000000  0.50000000  0.00000000  1
  Al  Al2  1  0.50000000  0.50000000  0.50000000  1
  Al  Al3  1  0.50000000  0.00000000  0.00000000  1
  Al  Al4  1  0.50000000  0.00000000  0.50000000  1
  H  H1  1  0.60539000  0.50000000  0.75000000  1
  H  H2  1  0.39461000  0.50000000  0.25000000  1
  H  H3  1  0.39461000  0.00000000  0.75000000  1
  H  H4  1  0.60539000  0.00000000  0.25000000  1
  H  H5  1  0.50074000  0.69302000  0.55912000  1
  H  H6  1  0.49923000  0.80699000  0.55913000  1
  H  H7  1  0.41548000  0.84818000  0.79595000  1
  H  H8  1  0.58301000  0.76659000  0.79718000  1
  H  H9  1  0.58453000  0.65181000  0.79595000  1
  H  H10  1  0.41698000  0.73341000  0.79719000  1
  H  H11  1  0.49926000  0.30698000  0.05912000  1
  H  H12  1  0.50077000  0.19301000  0.05913000  1
  H  H13  1  0.58452000  0.15181000  0.29595000  1
  H  H14  1  0.41699000  0.23341000  0.29718000  1
  H  H15  1  0.41547000  0.34819000  0.29595000  1
  H  H16  1  0.58302000  0.26658000  0.29719000  1
  H  H17  1  0.11322000  0.69302000  0.44088000  1
  H  H18  1  0.88679000  0.80699000  0.44088000  1
  H  H19  1  0.88815000  0.84818000  0.20405000  1
  H  H20  1  0.88380000  0.76659000  0.20282000  1
  H  H21  1  0.11186000  0.65181000  0.20405000  1
  H  H22  1  0.11619000  0.73341000  0.20281000  1
  H  H23  1  0.88678000  0.30696000  0.55912000  1
  H  H24  1  0.11321000  0.19306000  0.55913000  1
  H  H25  1  0.11555000  0.23376000  0.79595000  1
  H  H26  1  0.11250000  0.15152000  0.79718000  1
  H  H27  1  0.88444000  0.26624000  0.79595000  1
  H  H28  1  0.88751000  0.34848000  0.79719000  1
  C  C1  1  0.72361000  0.38907000  0.25000000  1
  C  C2  1  0.50176000  0.61092000  0.25000000  1
  C  C3  1  0.27639000  0.61092000  0.75000000  1
  C  C4  1  0.49824000  0.38907000  0.75000000  1
  C  C5  1  0.27639000  0.11093000  0.25000000  1
  C  C6  1  0.49824000  0.88907000  0.25000000  1
  C  C7  1  0.72361000  0.88907000  0.75000000  1
  C  C8  1  0.50176000  0.11093000  0.75000000  1
  C  C9  1  0.49911000  0.82016000  0.25000000  1
  C  C10  1  0.50089000  0.67984000  0.25000000  1
  C  C11  1  0.49956000  0.78501000  0.09015000  1
  C  C12  1  0.50044000  0.71498000  0.40985000  1
  C  C13  1  0.50044000  0.71498000  0.09015000  1
  C  C14  1  0.49956000  0.78501000  0.40985000  1
  C  C15  1  0.49958000  0.78352000  0.86281000  1
  C  C16  1  0.50042000  0.71647000  0.86281000  1
  C  C17  1  0.50089000  0.17984000  0.75000000  1
  C  C18  1  0.49911000  0.32016000  0.75000000  1
  C  C19  1  0.50044000  0.21498000  0.59015000  1
  C  C20  1  0.49956000  0.28502000  0.90986000  1
  C  C21  1  0.49956000  0.28502000  0.59015000  1
  C  C22  1  0.50044000  0.21498000  0.90986000  1
  C  C23  1  0.50042000  0.21647000  0.36281000  1
  C  C24  1  0.49958000  0.28353000  0.36281000  1
  C  C25  1  0.86057000  0.82016000  0.75000000  1
  C  C26  1  0.13943000  0.67984000  0.75000000  1
  C  C27  1  0.93041000  0.78501000  0.90986000  1
  C  C28  1  0.06959000  0.71498000  0.59015000  1
  C  C29  1  0.06959000  0.71498000  0.90986000  1
  C  C30  1  0.93041000  0.78501000  0.59015000  1
  C  C31  1  0.93337000  0.78352000  0.13719000  1
  C  C32  1  0.06663000  0.71647000  0.13719000  1
  C  C33  1  0.13943000  0.17984000  0.25000000  1
  C  C34  1  0.86057000  0.32016000  0.25000000  1
  C  C35  1  0.06959000  0.21498000  0.09015000  1
  C  C36  1  0.93041000  0.28502000  0.40985000  1
  C  C37  1  0.93041000  0.28502000  0.09015000  1
  C  C38  1  0.06959000  0.21498000  0.40985000  1
  C  C39  1  0.06663000  0.21647000  0.86281000  1
  C  C40  1  0.93337000  0.28353000  0.86281000  1
  O  O1  1  0.66535000  0.41839000  0.07629000  1
  O  O2  1  0.50213000  0.58161000  0.42371000  1
  O  O3  1  0.33465000  0.58161000  0.57629000  1
  O  O4  1  0.49787000  0.41839000  0.92371000  1
  O  O5  1  0.33465000  0.58161000  0.92371000  1
  O  O6  1  0.49787000  0.41839000  0.57629000  1
  O  O7  1  0.66535000  0.41839000  0.42371000  1
  O  O8  1  0.50213000  0.58161000  0.07629000  1
  O  O9  1  0.53968000  0.50000000  0.75000000  1
  O  O10  1  0.46032000  0.50000000  0.25000000  1
  O  O11  1  0.33465000  0.08161000  0.07629000  1
  O  O12  1  0.49787000  0.91839000  0.42371000  1
  O  O13  1  0.66535000  0.91839000  0.57629000  1
  O  O14  1  0.50213000  0.08161000  0.92371000  1
  O  O15  1  0.66535000  0.91839000  0.92371000  1
  O  O16  1  0.50213000  0.08161000  0.57629000  1
  O  O17  1  0.33465000  0.08161000  0.42371000  1
  O  O18  1  0.49787000  0.91839000  0.07629000  1
  O  O19  1  0.46032000  0.00000000  0.75000000  1
  O  O20  1  0.53968000  0.00000000  0.25000000  1
