# Generated by REPEAT Assigner based on pymatgen
data_DB1-Zn2O8N2-irmof6_A-irmof7_A_No168
_audit_creation_date              2022-05-24
_audit_creation_method            REPEAT_Assigner
_cell_length_a                    21.748900
_cell_length_b                    11.004900
_cell_length_c                    10.135800
_cell_angle_alpha                 90.036000
_cell_angle_beta                  89.882400
_cell_angle_gamma                 89.846800
_cell_volume                      2425.933406
_symmetry_space_group_name_H-M    P1
_symmetry_Int_Tables_number       1
loop_
    _symmetry_equiv_pos_site_id
    _symmetry_equiv_pos_as_xyz
    1  x,y,z
loop_
    _atom_site_type_symbol
    _atom_site_label
    _atom_site_fract_x
    _atom_site_fract_y
    _atom_site_fract_z
    _atom_type_partial_charge
    O   O1    0.500400  0.324760  0.633980  -0.428149
    O   O2    0.500090  0.324780  0.365820  -0.575537
    C   C1    0.500150  0.263020  0.499920  0.394950
    Zn  Zn1   0.500000  0.500020  0.663550  0.855493
    O   O3    0.588650  0.499920  0.365680  -0.571829
    O   O4    0.588690  0.500080  0.633850  -0.556759
    C   C2    0.619930  0.499890  0.499810  0.469399
    O   O5    0.499720  0.675280  0.366020  -0.560683
    O   O6    0.499800  0.675260  0.634190  -0.364412
    C   C3    0.499800  0.737020  0.500090  0.407976
    Zn  Zn2   0.500000  0.500010  0.336460  0.934601
    O   O7    0.411350  0.499870  0.634330  -0.536344
    O   O8    0.411310  0.500160  0.366150  -0.401383
    C   C4    0.380070  0.499720  0.500190  0.353137
    O   O9    0.993770  0.322920  0.366040  -0.436835
    O   O10   0.994080  0.323270  0.634210  -0.581701
    C   C5    0.994070  0.261350  0.500110  0.407867
    Zn  Zn3   0.994000  0.498150  0.336460  0.880753
    O   O11   0.905340  0.499010  0.634330  -0.524498
    O   O12   0.905300  0.498850  0.366150  -0.596873
    C   C6    0.874070  0.499030  0.500190  0.457818
    O   O13   0.994110  0.673770  0.633960  -0.511048
    O   O14   0.994030  0.673420  0.365790  -0.434518
    C   C7    0.993970  0.735340  0.499890  0.425539
    Zn  Zn4   0.993990  0.498550  0.663550  0.921562
    O   O15   0.082650  0.497430  0.365680  -0.447387
    O   O16   0.082690  0.498050  0.633850  -0.495936
    C   C8    0.113920  0.497240  0.499810  0.356363
    N   N1    0.500010  0.500010  0.144050  0.082896
    N   N2    0.500000  0.500020  0.855950  -0.060690
    C   C9    0.534470  0.432210  0.071690  -0.106522
    C   C10   0.465540  0.567820  0.928310  0.090972
    C   C11   0.534470  0.432210  0.927900  0.282561
    C   C12   0.465550  0.567820  0.072100  0.045505
    C   C13   0.583480  0.335780  0.068350  0.124778
    C   C14   0.583470  0.335780  0.930670  -0.207827
    H   H1    0.626310  0.363840  0.116800  0.040653
    H   H2    0.569220  0.251550  0.117650  0.033419
    H   H3    0.569460  0.251000  0.882040  0.111845
    H   H4    0.626030  0.364330  0.881210  0.065371
    C   C15   0.500060  0.132690  0.499960  0.133259
    C   C16   0.499890  0.867340  0.500050  -0.056791
    C   C17   0.499990  0.066150  0.395780  -0.180240
    C   C18   0.499960  0.933890  0.604230  0.099778
    C   C19   0.499900  0.933710  0.395820  0.185611
    C   C20   0.500050  0.066330  0.604190  -0.013501
    C   C21   0.499940  0.063210  0.247590  0.197131
    C   C22   0.499860  0.936400  0.247630  -0.281876
    H   H5    0.459620  0.108280  0.204220  0.006243
    H   H6    0.540270  0.108260  0.204560  0.005616
    H   H7    0.540160  0.891250  0.203820  0.086441
    H   H8    0.459500  0.891290  0.205090  0.090187
    C   C23   0.806970  0.499260  0.500090  -0.094936
    C   C24   0.775350  0.578080  0.585450  0.151434
    C   C25   0.775650  0.420650  0.414640  -0.071443
    C   C26   0.808460  0.654860  0.668920  -0.205022
    C   C27   0.778740  0.734590  0.755270  0.070333
    H   H9    0.851150  0.652640  0.666730  0.135746
    C   C28   0.687030  0.499670  0.499910  -0.097179
    C   C29   0.718640  0.420840  0.414560  -0.091573
    C   C30   0.718350  0.578280  0.585360  0.151982
    C   C31   0.684950  0.655280  0.668730  -0.177057
    C   C32   0.714370  0.734810  0.755170  0.054208
    H   H10   0.642260  0.653350  0.666420  0.122425
    H   H11   0.696860  0.369580  0.358820  0.129750
    H   H12   0.797620  0.369230  0.358970  0.130243
    C   C33   0.179870  0.497860  0.499910  0.076658
    C   C34   0.314130  0.499110  0.500100  0.073885
    C   C35   0.213360  0.498060  0.604160  -0.031058
    C   C36   0.280640  0.498910  0.395850  0.019178
    C   C37   0.280370  0.498680  0.604250  0.034789
    C   C38   0.213620  0.498280  0.395750  0.081186
    C   C39   0.214600  0.497910  0.752350  -0.051993
    C   C40   0.278760  0.498510  0.752440  -0.098295
    H   H13   0.191580  0.577380  0.796060  0.062814
    H   H14   0.191870  0.417980  0.794950  0.052889
    H   H15   0.301670  0.418950  0.795910  0.052526
    H   H16   0.301380  0.578350  0.795410  0.061865
    N   N3    0.993990  0.497530  0.855950  0.213900
    N   N4    0.993990  0.497900  0.144050  -0.178222
    C   C41   0.959590  0.430050  0.928320  -0.098106
    C   C42   0.028390  0.565380  0.071690  0.375406
    C   C43   0.959600  0.430230  0.072110  0.253914
    C   C44   0.028380  0.565200  0.927890  -0.235907
    C   C45   0.910680  0.333960  0.931680  -0.005477
    C   C46   0.910680  0.334130  0.069350  -0.051616
    H   H17   0.867810  0.362240  0.883210  0.045879
    H   H18   0.925020  0.249570  0.882380  0.058954
    H   H19   0.924780  0.249310  0.118000  0.072473
    H   H20   0.868100  0.363030  0.118810  0.051062
    C   C47   0.993320  0.131020  0.499970  0.112197
    C   C48   0.993750  0.865670  0.499920  -0.050438
    C   C49   0.993460  0.064610  0.604160  -0.150156
    C   C50   0.993610  0.932080  0.395730  0.146139
    C   C51   0.993670  0.932170  0.604130  0.140774
    C   C52   0.993390  0.064520  0.395750  -0.018937
    C   C53   0.993500  0.061860  0.752350  0.190872
    C   C54   0.993710  0.935050  0.752330  -0.331633
    H   H21   0.033790  0.106710  0.795710  0.014274
    H   H22   0.953130  0.107230  0.795380  0.008126
    H   H23   0.953460  0.890220  0.796140  0.117950
    H   H24   0.034120  0.889710  0.794860  0.121398
    Cl  Cl1   0.413430  0.670330  0.855630  0.005764
    Cl  Cl2   0.413470  0.670400  0.145380  0.036769
    Cl  Cl3   0.499980  0.866800  0.761810  -0.112321
    Cl  Cl4   0.500100  0.133670  0.761730  -0.146012
    Cl  Cl5   0.314850  0.499370  0.238340  -0.137562
    Cl  Cl6   0.179810  0.498220  0.238140  -0.170001
    Cl  Cl7   0.080400  0.667630  0.144350  0.036544
    Cl  Cl8   0.080360  0.667340  0.854600  0.014124
    Cl  Cl9   0.993660  0.864800  0.238150  -0.167124
    Cl  Cl10  0.993280  0.131670  0.238200  -0.136862
    Cl  Cl11  0.820600  0.831140  0.860230  -0.094900
    Cl  Cl12  0.672140  0.831640  0.860010  -0.090985
