# generated using pymatgen
data_CuH7C12N9O
_symmetry_space_group_name_H-M   'P 1'
_cell_length_a   13.54360000
_cell_length_b   19.68640000
_cell_length_c   7.05280000
_cell_angle_alpha   82.55880000
_cell_angle_beta   105.09200000
_cell_angle_gamma   67.14980000
_symmetry_Int_Tables_number   1
_chemical_formula_structural   CuH7C12N9O
_chemical_formula_sum   'Cu2 H14 C24 N18 O2'
_cell_volume   1615.93180272
_cell_formula_units_Z   2
loop_
 _symmetry_equiv_pos_site_id
 _symmetry_equiv_pos_as_xyz
  1  'x, y, z'
loop_
 _atom_site_type_symbol
 _atom_site_label
 _atom_site_symmetry_multiplicity
 _atom_site_fract_x
 _atom_site_fract_y
 _atom_site_fract_z
 _atom_site_occupancy
  Cu  Cu1  1  0.50000000  0.50000000  0.00000000  1
  Cu  Cu2  1  0.50000000  0.50000000  0.50000000  1
  H  H1  1  0.49973000  0.22703000  0.65439000  1
  H  H2  1  0.49988000  0.10072000  0.69875000  1
  H  H3  1  0.49988000  0.10073000  0.08946000  1
  H  H4  1  0.49973000  0.22713000  0.04263000  1
  H  H5  1  0.50012000  0.89927000  0.91054000  1
  H  H6  1  0.50012000  0.89928000  0.30125000  1
  H  H7  1  0.50027000  0.77297000  0.34561000  1
  H  H8  1  0.50027000  0.77287000  0.95737000  1
  H  H9  1  0.12398000  0.44985000  0.00548000  1
  H  H10  1  0.05876000  0.54996000  0.93553000  1
  H  H11  1  0.87601000  0.55015000  0.84524000  1
  H  H12  1  0.94124000  0.45003000  0.91289000  1
  H  H13  1  0.81111000  0.50018000  0.07625000  1
  H  H14  1  0.18891000  0.49977000  0.26528000  1
  C  C1  1  0.77854000  0.50018000  0.38921000  1
  C  C2  1  0.49962000  0.31344000  0.31725000  1
  C  C3  1  0.22145000  0.49982000  0.61079000  1
  C  C4  1  0.50037000  0.68656000  0.68275000  1
  C  C5  1  0.49971000  0.23695000  0.34494000  1
  C  C6  1  0.49976000  0.20000000  0.53009000  1
  C  C7  1  0.49984000  0.12816000  0.55564000  1
  C  C8  1  0.49989000  0.09183000  0.39683000  1
  C  C9  1  0.49984000  0.12826000  0.21265000  1
  C  C10  1  0.49976000  0.20006000  0.18645000  1
  C  C11  1  0.50015000  0.87174000  0.78735000  1
  C  C12  1  0.50011000  0.90818000  0.60317000  1
  C  C13  1  0.50015000  0.87184000  0.44436000  1
  C  C14  1  0.50024000  0.80000000  0.46991000  1
  C  C15  1  0.50028000  0.76304000  0.65506000  1
  C  C16  1  0.50024000  0.79994000  0.81355000  1
  C  C17  1  0.11172000  0.49991000  0.55589000  1
  C  C18  1  0.88828000  0.50009000  0.44411000  1
  C  C19  1  0.05576000  0.49996000  0.67765000  1
  C  C20  1  0.94424000  0.50005000  0.32235000  1
  C  C21  1  0.94424000  0.50004000  0.62186000  1
  C  C22  1  0.05576000  0.49996000  0.37814000  1
  C  C23  1  0.05339000  0.49996000  0.88944000  1
  C  C24  1  0.94661000  0.50004000  0.83602000  1
  N  N1  1  0.62801000  0.49933000  0.22045000  1
  N  N2  1  0.72205000  0.50022000  0.20385000  1
  N  N3  1  0.50094000  0.41426000  0.37527000  1
  N  N4  1  0.49958000  0.35128000  0.46065000  1
  N  N5  1  0.37199000  0.50067000  0.59195000  1
  N  N6  1  0.27795000  0.49978000  0.48195000  1
  N  N7  1  0.49905000  0.58574000  0.81234000  1
  N  N8  1  0.50042000  0.64872000  0.85355000  1
  N  N9  1  0.37199000  0.50067000  0.77955000  1
  N  N10  1  0.27795000  0.49978000  0.79615000  1
  N  N11  1  0.49905000  0.58574000  0.62474000  1
  N  N12  1  0.50042000  0.64872000  0.53935000  1
  N  N13  1  0.62801000  0.49934000  0.40805000  1
  N  N14  1  0.72205000  0.50022000  0.51805000  1
  N  N15  1  0.50094000  0.41426000  0.18767000  1
  N  N16  1  0.49958000  0.35128000  0.14645000  1
  N  N17  1  0.49998000  0.01824000  0.41840000  1
  N  N18  1  0.50002000  0.98176000  0.58160000  1
  O  O1  1  0.89567000  0.50010000  0.10378000  1
  O  O2  1  0.10434000  0.49987000  0.20819000  1
