# generated using pymatgen
data_CuH8C15N8Cl
_symmetry_space_group_name_H-M   'P 1'
_cell_length_a   13.29130000
_cell_length_b   17.64680000
_cell_length_c   7.05280000
_cell_angle_alpha   78.47290000
_cell_angle_beta   105.38600000
_cell_angle_gamma   68.68220000
_symmetry_Int_Tables_number   1
_chemical_formula_structural   CuH8C15N8Cl
_chemical_formula_sum   'Cu2 H16 C30 N16 Cl2'
_cell_volume   1402.64485898
_cell_formula_units_Z   2
loop_
 _symmetry_equiv_pos_site_id
 _symmetry_equiv_pos_as_xyz
  1  'x, y, z'
loop_
 _atom_site_type_symbol
 _atom_site_label
 _atom_site_symmetry_multiplicity
 _atom_site_fract_x
 _atom_site_fract_y
 _atom_site_fract_z
 _atom_site_occupancy
  Cu  Cu1  1  0.50000000  0.50000000  0.00000000  1
  Cu  Cu2  1  0.50000000  0.50000000  0.50000000  1
  H  H1  1  0.50023000  0.81694000  0.31257000  1
  H  H2  1  0.50023000  0.81694000  0.87072000  1
  H  H3  1  0.49978000  0.18307000  0.68744000  1
  H  H4  1  0.49978000  0.18307000  0.12927000  1
  H  H5  1  0.63807000  0.93782000  0.28761000  1
  H  H6  1  0.53594000  0.91194000  0.10023000  1
  H  H7  1  0.36197000  0.02790000  0.72956000  1
  H  H8  1  0.46425000  0.93532000  0.97624000  1
  H  H9  1  0.63803000  0.97211000  0.89548000  1
  H  H10  1  0.53575000  0.06468000  0.94730000  1
  H  H11  1  0.36193000  0.06218000  0.08736000  1
  H  H12  1  0.46407000  0.08806000  0.97623000  1
  H  H13  1  0.11277000  0.60864000  0.74147000  1
  H  H14  1  0.75806000  0.60896000  0.56395000  1
  H  H15  1  0.96916000  0.40791000  0.32782000  1
  H  H16  1  0.14026000  0.40776000  0.41345000  1
  C  C1  1  0.78423000  0.50020000  0.39202000  1
  C  C2  1  0.49965000  0.28938000  0.35513000  1
  C  C3  1  0.21577000  0.49980000  0.60798000  1
  C  C4  1  0.50036000  0.71063000  0.64486000  1
  C  C5  1  0.54430000  0.94887000  0.21433000  1
  C  C6  1  0.45579000  0.97775000  0.82240000  1
  C  C7  1  0.54421000  0.02225000  0.84436000  1
  C  C8  1  0.45570000  0.05113000  0.11890000  1
  C  C9  1  0.50019000  0.84272000  0.41858000  1
  C  C10  1  0.50010000  0.92324000  0.37483000  1
  C  C11  1  0.50019000  0.84272000  0.73890000  1
  C  C12  1  0.50010000  0.92324000  0.70202000  1
  C  C13  1  0.49981000  0.15728000  0.58142000  1
  C  C14  1  0.49991000  0.07676000  0.62517000  1
  C  C15  1  0.49981000  0.15728000  0.26110000  1
  C  C16  1  0.49991000  0.07676000  0.29798000  1
  C  C17  1  0.50025000  0.79690000  0.60167000  1
  C  C18  1  0.50005000  0.95974000  0.52016000  1
  C  C19  1  0.49975000  0.20310000  0.39833000  1
  C  C20  1  0.49995000  0.04026000  0.47984000  1
  C  C21  1  0.10184000  0.49991000  0.55096000  1
  C  C22  1  0.01529000  0.55574000  0.60252000  1
  C  C23  1  0.08151000  0.44418000  0.44593000  1
  C  C24  1  0.03940000  0.61017000  0.70725000  1
  C  C25  1  0.95570000  0.66666667  0.76133000  1
  C  C26  1  0.89817000  0.50009000  0.44904000  1
  C  C27  1  0.98472000  0.44426000  0.39748000  1
  C  C28  1  0.91849000  0.55583000  0.55408000  1
  C  C29  1  0.82969000  0.61036000  0.60230000  1
  C  C30  1  0.84640000  0.66675000  0.70663000  1
  N  N1  1  0.63063000  0.49925000  0.22189000  1
  N  N2  1  0.72659000  0.50025000  0.20607000  1
  N  N3  1  0.50098000  0.40320000  0.39269000  1
  N  N4  1  0.49959000  0.33209000  0.49085000  1
  N  N5  1  0.36938000  0.50075000  0.59051000  1
  N  N6  1  0.27342000  0.49975000  0.47973000  1
  N  N7  1  0.49903000  0.59680000  0.79491000  1
  N  N8  1  0.50041000  0.66791000  0.82335000  1
  N  N9  1  0.36938000  0.50075000  0.77811000  1
  N  N10  1  0.27341000  0.49975000  0.79393000  1
  N  N11  1  0.49903000  0.59680000  0.60731000  1
  N  N12  1  0.50041000  0.66791000  0.50915000  1
  N  N13  1  0.63063000  0.49925000  0.40949000  1
  N  N14  1  0.72659000  0.50025000  0.52027000  1
  N  N15  1  0.50098000  0.40320000  0.20509000  1
  N  N16  1  0.49959000  0.33209000  0.17665000  1
  Cl  Cl1  1  0.98643000  0.73510000  0.89323000  1
  Cl  Cl2  1  0.73433000  0.73533000  0.76707000  1
