# generated using pymatgen
data_CuH6C12(N4O)2
_symmetry_space_group_name_H-M   'P 1'
_cell_length_a   25.63000000
_cell_length_b   13.54770000
_cell_length_c   7.05280000
_cell_angle_alpha   90.00000000
_cell_angle_beta   90.00000000
_cell_angle_gamma   58.09000000
_symmetry_Int_Tables_number   1
_chemical_formula_structural   CuH6C12(N4O)2
_chemical_formula_sum   'Cu4 H24 C48 N32 O8'
_cell_volume   2078.84334367
_cell_formula_units_Z   4
loop_
 _symmetry_equiv_pos_site_id
 _symmetry_equiv_pos_as_xyz
  1  'x, y, z'
loop_
 _atom_site_type_symbol
 _atom_site_label
 _atom_site_symmetry_multiplicity
 _atom_site_fract_x
 _atom_site_fract_y
 _atom_site_fract_z
 _atom_site_occupancy
  Cu  Cu1  1  0.50000000  0.50000000  0.00000000  1
  Cu  Cu2  1  0.50000000  0.50000000  0.50000000  1
  Cu  Cu3  1  0.00000000  0.50000000  0.00000000  1
  Cu  Cu4  1  0.00000000  0.50000000  0.50000000  1
  H  H1  1  0.79747000  0.64703000  0.98940000  1
  H  H2  1  0.62034000  0.64660000  0.98940000  1
  H  H3  1  0.74209000  0.37552000  0.54720000  1
  H  H4  1  0.82753000  0.37573000  0.54720000  1
  H  H5  1  0.20252000  0.35297000  0.48940000  1
  H  H6  1  0.37966000  0.35340000  0.48940000  1
  H  H7  1  0.25791000  0.62447000  0.04720000  1
  H  H8  1  0.17247000  0.62426000  0.04720000  1
  H  H9  1  0.87966000  0.88727000  0.48940000  1
  H  H10  1  0.70252000  0.24198000  0.48940000  1
  H  H11  1  0.67247000  0.03080000  0.04720000  1
  H  H12  1  0.75791000  0.85970000  0.04720000  1
  H  H13  1  0.20252000  0.24198000  0.51060000  1
  H  H14  1  0.37966000  0.88727000  0.51060000  1
  H  H15  1  0.25791000  0.85970000  0.95280000  1
  H  H16  1  0.17247000  0.03080000  0.95280000  1
  H  H17  1  0.76899000  0.79052000  0.22332000  1
  H  H18  1  0.56852000  0.79002000  0.22332000  1
  H  H19  1  0.23101000  0.20948000  0.72332000  1
  H  H20  1  0.43148000  0.20997000  0.72332000  1
  H  H21  1  0.93148000  0.92706000  0.72332000  1
  H  H22  1  0.73101000  0.32850000  0.72332000  1
  H  H23  1  0.23101000  0.32850000  0.27668000  1
  H  H24  1  0.43148000  0.92706000  0.27668000  1
  C  C1  1  0.64225000  0.21577000  0.25000000  1
  C  C2  1  0.35775000  0.50026000  0.25000000  1
  C  C3  1  0.35775000  0.78423000  0.75000000  1
  C  C4  1  0.64225000  0.49973000  0.75000000  1
  C  C5  1  0.85775000  0.78423000  0.25000000  1
  C  C6  1  0.14225000  0.49973000  0.25000000  1
  C  C7  1  0.14225000  0.21577000  0.75000000  1
  C  C8  1  0.85775000  0.50026000  0.75000000  1
  C  C9  1  0.80085000  0.50012000  0.75000000  1
  C  C10  1  0.75310000  0.57533000  0.87274000  1
  C  C11  1  0.79524000  0.42478000  0.62726000  1
  C  C12  1  0.76072000  0.64893000  0.99264000  1
  C  C13  1  0.71433000  0.72501000  0.11680000  1
  C  C14  1  0.69914000  0.49987000  0.75000000  1
  C  C15  1  0.74690000  0.42467000  0.62726000  1
  C  C16  1  0.70476000  0.57521000  0.87274000  1
  C  C17  1  0.65598000  0.64867000  0.99264000  1
  C  C18  1  0.65975000  0.72488000  0.11680000  1
  C  C19  1  0.19914000  0.49987000  0.25000000  1
  C  C20  1  0.24690000  0.42467000  0.37274000  1
  C  C21  1  0.20476000  0.57521000  0.12726000  1
  C  C22  1  0.23928000  0.35107000  0.49264000  1
  C  C23  1  0.28567000  0.27498000  0.61680000  1
  C  C24  1  0.30085000  0.50012000  0.25000000  1
  C  C25  1  0.25310000  0.57533000  0.12726000  1
  C  C26  1  0.29524000  0.42478000  0.37274000  1
  C  C27  1  0.34401000  0.35133000  0.49264000  1
  C  C28  1  0.34025000  0.27512000  0.61680000  1
  C  C29  1  0.80085000  0.89816000  0.25000000  1
  C  C30  1  0.79524000  0.98474000  0.37274000  1
  C  C31  1  0.75310000  0.91846000  0.12726000  1
  C  C32  1  0.84401000  0.96064000  0.49264000  1
  C  C33  1  0.84025000  0.04437000  0.61680000  1
  C  C34  1  0.69914000  0.10184000  0.25000000  1
  C  C35  1  0.70476000  0.01526000  0.12726000  1
  C  C36  1  0.74690000  0.08153000  0.37274000  1
  C  C37  1  0.73928000  0.17036000  0.49264000  1
  C  C38  1  0.78567000  0.15367000  0.61680000  1
  C  C39  1  0.19914000  0.10184000  0.75000000  1
  C  C40  1  0.24690000  0.08153000  0.62726000  1
  C  C41  1  0.20476000  0.01526000  0.87274000  1
  C  C42  1  0.23928000  0.17036000  0.50736000  1
  C  C43  1  0.28567000  0.15367000  0.38320000  1
  C  C44  1  0.30085000  0.89816000  0.75000000  1
  C  C45  1  0.25310000  0.91846000  0.87274000  1
  C  C46  1  0.29524000  0.98474000  0.62726000  1
  C  C47  1  0.34401000  0.96064000  0.50736000  1
  C  C48  1  0.34025000  0.04437000  0.38320000  1
  N  N1  1  0.56480000  0.36937000  0.15620000  1
  N  N2  1  0.61346000  0.27341000  0.09290000  1
  N  N3  1  0.43520000  0.49898000  0.34380000  1
  N  N4  1  0.38654000  0.50033000  0.40710000  1
  N  N5  1  0.43520000  0.63062000  0.65620000  1
  N  N6  1  0.38654000  0.72658000  0.59290000  1
  N  N7  1  0.56480000  0.50102000  0.84380000  1
  N  N8  1  0.61346000  0.49966000  0.90710000  1
  N  N9  1  0.43520000  0.63062000  0.84380000  1
  N  N10  1  0.38654000  0.72658000  0.90710000  1
  N  N11  1  0.56480000  0.50102000  0.65620000  1
  N  N12  1  0.61346000  0.49966000  0.59290000  1
  N  N13  1  0.56480000  0.36937000  0.34380000  1
  N  N14  1  0.61346000  0.27341000  0.40710000  1
  N  N15  1  0.43520000  0.49898000  0.15620000  1
  N  N16  1  0.38654000  0.50033000  0.09290000  1
  N  N17  1  0.93519000  0.63062000  0.15620000  1
  N  N18  1  0.88654000  0.72658000  0.09290000  1
  N  N19  1  0.06480000  0.50102000  0.34380000  1
  N  N20  1  0.11346000  0.49966000  0.40710000  1
  N  N21  1  0.06480000  0.36937000  0.65620000  1
  N  N22  1  0.11346000  0.27341000  0.59290000  1
  N  N23  1  0.93520000  0.49898000  0.84380000  1
  N  N24  1  0.88654000  0.50033000  0.90710000  1
  N  N25  1  0.06480000  0.36937000  0.84380000  1
  N  N26  1  0.11346000  0.27341000  0.90710000  1
  N  N27  1  0.93520000  0.49898000  0.65620000  1
  N  N28  1  0.88654000  0.50033000  0.59290000  1
  N  N29  1  0.93519000  0.63062000  0.34380000  1
  N  N30  1  0.88654000  0.72658000  0.40710000  1
  N  N31  1  0.06480000  0.50102000  0.15620000  1
  N  N32  1  0.11346000  0.49966000  0.09290000  1
  O  O1  1  0.72272000  0.80441000  0.24615000  1
  O  O2  1  0.60695000  0.80413000  0.24615000  1
  O  O3  1  0.27728000  0.19558000  0.74615000  1
  O  O4  1  0.39305000  0.19587000  0.74615000  1
  O  O5  1  0.89305000  0.01804000  0.74615000  1
  O  O6  1  0.77728000  0.24985000  0.74615000  1
  O  O7  1  0.27728000  0.24985000  0.25385000  1
  O  O8  1  0.39305000  0.01804000  0.25385000  1
