data_DB1-Zn2O8-ADC_A-irmof6_A_No821_repeat
_audit_creation_date              2024-02-20
_audit_creation_method            'Materials Studio'
_symmetry_space_group_name_H-M    'P1'
_symmetry_Int_Tables_number       1
_symmetry_cell_setting            triclinic
loop_
_symmetry_equiv_pos_as_xyz
  x,y,z
_cell_length_a                    11.0049
_cell_length_b                    37.0352
_cell_length_c                    10.0000
_cell_angle_alpha                 90.0000
_cell_angle_beta                  90.0000
_cell_angle_gamma                 107.1040
loop_
_atom_site_label
_atom_site_type_symbol
_atom_site_fract_x
_atom_site_fract_y
_atom_site_fract_z
_atom_site_U_iso_or_equiv
_atom_site_adp_type
_atom_site_occupancy
O1     O     0.32501   0.50033   0.63580   0.00000  Uiso   1.00
O2     O     0.32482   0.49997   0.36399   0.00000  Uiso   1.00
C1     C     0.26311   0.50009   0.49992   0.00000  Uiso   1.00
Zn1    Zn    0.50003   0.50011   0.66577   0.00000  Uiso   1.00
O3     O     0.55429   0.55438   0.36380   0.00000  Uiso   1.00
O4     O     0.55450   0.55458   0.63562   0.00000  Uiso   1.00
C2     C     0.57346   0.57369   0.49974   0.00000  Uiso   1.00
O5     O     0.67510   0.49974   0.36420   0.00000  Uiso   1.00
O6     O     0.67515   0.49996   0.63601   0.00000  Uiso   1.00
C3     C     0.73689   0.49988   0.50008   0.00000  Uiso   1.00
Zn2    Zn    0.50000   0.49989   0.33423   0.00000  Uiso   1.00
O7     O     0.44550   0.44562   0.63620   0.00000  Uiso   1.00
O8     O     0.44575   0.44542   0.36438   0.00000  Uiso   1.00
C4     C     0.42616   0.42632   0.50026   0.00000  Uiso   1.00
O9     O     0.82087   0.99979   0.27342   0.00000  Uiso   1.00
O10    O     0.82145   0.00016   0.54523   0.00000  Uiso   1.00
C5     C     0.75951   0.00007   0.40930   0.00000  Uiso   1.00
Zn3    Zn    0.99624   0.99991   0.24343   0.00000  Uiso   1.00
O11    O     0.94276   0.94564   0.54541   0.00000  Uiso   1.00
O12    O     0.94254   0.94543   0.27359   0.00000  Uiso   1.00
C6     C     0.92358   0.92633   0.40948   0.00000  Uiso   1.00
O13    O     0.17197   0.00018   0.54498   0.00000  Uiso   1.00
O14    O     0.17154   0.99995   0.27317   0.00000  Uiso   1.00
C7     C     0.23344   0.00000   0.40908   0.00000  Uiso   1.00
Zn4    Zn    0.99667   0.00013   0.57496   0.00000  Uiso   1.00
O15    O     0.04991   0.05439   0.27298   0.00000  Uiso   1.00
O16    O     0.05059   0.05460   0.54480   0.00000  Uiso   1.00
C8     C     0.06892   0.07370   0.40891   0.00000  Uiso   1.00
C9     C     0.88169   0.88414   0.40941   0.00000  Uiso   1.00
C10    C     0.86145   0.86375   0.53029   0.00000  Uiso   1.00
C11    C     0.82216   0.82418   0.53040   0.00000  Uiso   1.00
C12    C     0.80195   0.80383   0.40905   0.00000  Uiso   1.00
C13    C     0.82225   0.82428   0.28847   0.00000  Uiso   1.00
C14    C     0.86150   0.86381   0.28845   0.00000  Uiso   1.00
C15    C     0.76012   0.76170   0.40149   0.00000  Uiso   1.00
C16    C     0.73691   0.73832   0.50778   0.00000  Uiso   1.00
C17    C     0.67479   0.67574   0.62078   0.00000  Uiso   1.00
C18    C     0.69509   0.69619   0.50020   0.00000  Uiso   1.00
C19    C     0.67488   0.67584   0.37885   0.00000  Uiso   1.00
C20    C     0.63559   0.63627   0.37894   0.00000  Uiso   1.00
C21    C     0.61535   0.61588   0.49982   0.00000  Uiso   1.00
C22    C     0.63553   0.63620   0.62078   0.00000  Uiso   1.00
H1     H     0.87626   0.87866   0.62485   0.00000  Uiso   1.00
H2     H     0.80823   0.81014   0.62607   0.00000  Uiso   1.00
H3     H     0.80767   0.80959   0.19347   0.00000  Uiso   1.00
H4     H     0.68937   0.69042   0.71579   0.00000  Uiso   1.00
H5     H     0.68881   0.68988   0.28317   0.00000  Uiso   1.00
H6     H     0.62079   0.62136   0.28438   0.00000  Uiso   1.00
H7     H     0.74843   0.74993   0.30208   0.00000  Uiso   1.00
H8     H     0.74860   0.75009   0.60719   0.00000  Uiso   1.00
C23    C     0.11168   0.11589   0.40898   0.00000  Uiso   1.00
C24    C     0.13212   0.13625   0.52992   0.00000  Uiso   1.00
C25    C     0.17223   0.17583   0.53015   0.00000  Uiso   1.00
C26    C     0.19308   0.19620   0.40886   0.00000  Uiso   1.00
C27    C     0.17258   0.17578   0.28822   0.00000  Uiso   1.00
C28    C     0.13251   0.13625   0.28808   0.00000  Uiso   1.00
C29    C     0.23579   0.23833   0.40143   0.00000  Uiso   1.00
C30    C     0.25929   0.26169   0.50779   0.00000  Uiso   1.00
C31    C     0.32250   0.32424   0.62098   0.00000  Uiso   1.00
C32    C     0.30200   0.30382   0.50035   0.00000  Uiso   1.00
C33    C     0.32285   0.32419   0.37905   0.00000  Uiso   1.00
C34    C     0.36296   0.36376   0.37927   0.00000  Uiso   1.00
C35    C     0.38340   0.38413   0.50021   0.00000  Uiso   1.00
C36    C     0.36257   0.36377   0.62111   0.00000  Uiso   1.00
H9     H     0.11683   0.12132   0.62443   0.00000  Uiso   1.00
H10    H     0.18627   0.18984   0.62586   0.00000  Uiso   1.00
H11    H     0.18764   0.19049   0.19326   0.00000  Uiso   1.00
H12    H     0.30744   0.30953   0.71595   0.00000  Uiso   1.00
H13    H     0.30881   0.31018   0.28333   0.00000  Uiso   1.00
H14    H     0.37824   0.37869   0.28475   0.00000  Uiso   1.00
H15    H     0.24791   0.25013   0.30205   0.00000  Uiso   1.00
H16    H     0.24717   0.24990   0.60717   0.00000  Uiso   1.00
C37    C     0.13273   0.50004   0.49996   0.00000  Uiso   1.00
C38    C     0.86727   0.49993   0.50004   0.00000  Uiso   1.00
C39    C     0.06614   0.49992   0.39436   0.00000  Uiso   1.00
C40    C     0.93387   0.50005   0.60564   0.00000  Uiso   1.00
C41    C     0.93364   0.49987   0.39441   0.00000  Uiso   1.00
C42    C     0.06636   0.50010   0.60560   0.00000  Uiso   1.00
C43    C     0.06316   0.49980   0.24416   0.00000  Uiso   1.00
C44    C     0.93630   0.49975   0.24420   0.00000  Uiso   1.00
H17    H     0.10798   0.50018   0.70421   0.00000  Uiso   1.00
H18    H     0.08349   0.47499   0.20023   0.00000  Uiso   1.00
H19    H     0.13294   0.52455   0.20052   0.00000  Uiso   1.00
H20    H     0.91586   0.52448   0.19978   0.00000  Uiso   1.00
H21    H     0.86642   0.47492   0.20111   0.00000  Uiso   1.00
C45    C     0.62872   0.99960   0.40916   0.00000  Uiso   1.00
C46    C     0.36363   0.99987   0.40911   0.00000  Uiso   1.00
C47    C     0.56240   0.99976   0.51477   0.00000  Uiso   1.00
C48    C     0.42995   0.99971   0.30350   0.00000  Uiso   1.00
C49    C     0.43009   0.99989   0.51474   0.00000  Uiso   1.00
C50    C     0.56226   0.99958   0.30353   0.00000  Uiso   1.00
C51    C     0.55969   0.99989   0.66497   0.00000  Uiso   1.00
C52    C     0.43301   0.00002   0.66495   0.00000  Uiso   1.00
H22    H     0.60367   0.99947   0.20491   0.00000  Uiso   1.00
H23    H     0.62926   0.02467   0.70889   0.00000  Uiso   1.00
H24    H     0.58031   0.97511   0.70861   0.00000  Uiso   1.00
H25    H     0.36350   0.97532   0.70938   0.00000  Uiso   1.00
H26    H     0.41247   0.02487   0.70803   0.00000  Uiso   1.00
O17    O     0.88213   0.88460   0.15659   0.00000  Uiso   1.00
H27    H     0.91282   0.91551   0.17528   0.00000  Uiso   1.00
O18    O     0.61490   0.61541   0.75264   0.00000  Uiso   1.00
H28    H     0.58421   0.58451   0.73394   0.00000  Uiso   1.00
O19    O     0.11169   0.11549   0.15616   0.00000  Uiso   1.00
H29    H     0.08033   0.08458   0.17475   0.00000  Uiso   1.00
O20    O     0.38339   0.38453   0.75303   0.00000  Uiso   1.00
H30    H     0.41476   0.41544   0.73443   0.00000  Uiso   1.00
O21    O     0.88441   0.50013   0.72343   0.00000  Uiso   1.00
Li1    Li    0.94321   0.50029   0.88189   0.00000  Uiso   1.00
O22    O     0.38033   0.99966   0.18572   0.00000  Uiso   1.00
Li2    Li    0.43877   0.99946   0.02725   0.00000  Uiso   1.00
