# generated using pymatgen
data_ZnH17C20(NO2)2
_symmetry_space_group_name_H-M   'P 1'
_cell_length_a   16.73580000
_cell_length_b   17.72200000
_cell_length_c   10.90090000
_cell_angle_alpha   89.85160000
_cell_angle_beta   92.08530000
_cell_angle_gamma   84.91510000
_symmetry_Int_Tables_number   1
_chemical_formula_structural   ZnH17C20(NO2)2
_chemical_formula_sum   'Zn2 H34 C40 N4 O8'
_cell_volume   3218.20641660
_cell_formula_units_Z   2
loop_
 _symmetry_equiv_pos_site_id
 _symmetry_equiv_pos_as_xyz
  1  'x, y, z'
loop_
 _atom_site_type_symbol
 _atom_site_label
 _atom_site_symmetry_multiplicity
 _atom_site_fract_x
 _atom_site_fract_y
 _atom_site_fract_z
 _atom_site_occupancy
  Zn  Zn1  1  0.59938000  0.49641000  0.50588000  1
  Zn  Zn2  1  0.40062000  0.50361000  0.49413000  1
  H  H1  1  0.27655000  0.42217000  0.62712000  1
  H  H2  1  0.13118000  0.42690000  0.61938000  1
  H  H3  1  0.12101000  0.59983000  0.33702000  1
  H  H4  1  0.26771000  0.59439000  0.34592000  1
  H  H5  1  0.87897000  0.40018000  0.66302000  1
  H  H6  1  0.86882000  0.57311000  0.38065000  1
  H  H7  1  0.72346000  0.57785000  0.37291000  1
  H  H8  1  0.73228000  0.40563000  0.65411000  1
  H  H9  1  0.38400000  0.26146000  0.49332000  1
  H  H10  1  0.39069000  0.12419000  0.49354000  1
  H  H11  1  0.65010000  0.11380000  0.50914000  1
  H  H12  1  0.64235000  0.25233000  0.50886000  1
  H  H13  1  0.34988000  0.88621000  0.49076000  1
  H  H14  1  0.60929000  0.87583000  0.50636000  1
  H  H15  1  0.61599000  0.73857000  0.50658000  1
  H  H16  1  0.35764000  0.74768000  0.49104000  1
  H  H17  1  0.37831000  0.50415000  0.10115000  1
  H  H18  1  0.62170000  0.49561000  0.89886000  1
  H  H19  1  0.95391000  0.55338000  0.31088000  1
  H  H20  1  0.02603000  0.60319000  0.33181000  1
  H  H21  1  0.95021000  0.61619000  0.41202000  1
  H  H22  1  0.04959000  0.38368000  0.58798000  1
  H  H23  1  0.97395000  0.39698000  0.66850000  1
  H  H24  1  0.04628000  0.44658000  0.68897000  1
  H  H25  1  0.62703000  0.95431000  0.57954000  1
  H  H26  1  0.65474000  0.02412000  0.50911000  1
  H  H27  1  0.62720000  0.95441000  0.43573000  1
  H  H28  1  0.37270000  0.04542000  0.56435000  1
  H  H29  1  0.34523000  0.97589000  0.49042000  1
  H  H30  1  0.37301000  0.04588000  0.42056000  1
  H  H31  1  0.34385000  0.46850000  0.77720000  1
  H  H32  1  0.29776000  0.54421000  0.88610000  1
  H  H33  1  0.66019000  0.45698000  0.22323000  1
  H  H34  1  0.69822000  0.52983000  0.11349000  1
  C  C1  1  0.50796000  0.35236000  0.50090000  1
  C  C2  1  0.49988000  0.50004000  0.73927000  1
  C  C3  1  0.49204000  0.64766000  0.49900000  1
  C  C4  1  0.50013000  0.49972000  0.26074000  1
  C  C5  1  0.24294000  0.46109000  0.56356000  1
  C  C6  1  0.15896000  0.46407000  0.55870000  1
  C  C7  1  0.11326000  0.51412000  0.47698000  1
  C  C8  1  0.15415000  0.56074000  0.40085000  1
  C  C9  1  0.23805000  0.55774000  0.40576000  1
  C  C10  1  0.02370000  0.52035000  0.46680000  1
  C  C11  1  0.97629000  0.47965000  0.53325000  1
  C  C12  1  0.84584000  0.43927000  0.59919000  1
  C  C13  1  0.88674000  0.48589000  0.52306000  1
  C  C14  1  0.84103000  0.53594000  0.44134000  1
  C  C15  1  0.75706000  0.53892000  0.43647000  1
  C  C16  1  0.76194000  0.44228000  0.59427000  1
  C  C17  1  0.51257000  0.26782000  0.50107000  1
  C  C18  1  0.44230000  0.22955000  0.49679000  1
  C  C19  1  0.44653000  0.15026000  0.49694000  1
  C  C20  1  0.52148000  0.10688000  0.50139000  1
  C  C21  1  0.59156000  0.14527000  0.50566000  1
  C  C22  1  0.58728000  0.22449000  0.50551000  1
  C  C23  1  0.53058000  0.02230000  0.50182000  1
  C  C24  1  0.46939000  0.97772000  0.49808000  1
  C  C25  1  0.40843000  0.85475000  0.49424000  1
  C  C26  1  0.47849000  0.89314000  0.49851000  1
  C  C27  1  0.55345000  0.84977000  0.50297000  1
  C  C28  1  0.55768000  0.77047000  0.50312000  1
  C  C29  1  0.48742000  0.73220000  0.49884000  1
  C  C30  1  0.41271000  0.77552000  0.49440000  1
  C  C31  1  0.49994000  0.49996000  0.87151000  1
  C  C32  1  0.50007000  0.49980000  0.12850000  1
  C  C33  1  0.42807000  0.50248000  0.93225000  1
  C  C34  1  0.57194000  0.49728000  0.06776000  1
  C  C35  1  0.42813000  0.50240000  0.05986000  1
  C  C36  1  0.57188000  0.49736000  0.94015000  1
  C  C37  1  0.98475000  0.57886000  0.37126000  1
  C  C38  1  0.01524000  0.42114000  0.62879000  1
  C  C39  1  0.61825000  0.98525000  0.50705000  1
  C  C40  1  0.38172000  0.01476000  0.49285000  1
  N  N1  1  0.28370000  0.50785000  0.48722000  1
  N  N2  1  0.71629000  0.49217000  0.51281000  1
  N  N3  1  0.34964000  0.50531000  0.85869000  1
  N  N4  1  0.65037000  0.49444000  0.14132000  1
  O  O1  1  0.58733000  0.38787000  0.50606000  1
  O  O2  1  0.42438000  0.39379000  0.49580000  1
  O  O3  1  0.41837000  0.50298000  0.67205000  1
  O  O4  1  0.58133000  0.49718000  0.68177000  1
  O  O5  1  0.41266000  0.61215000  0.49417000  1
  O  O6  1  0.57562000  0.60623000  0.50397000  1
  O  O7  1  0.58163000  0.49688000  0.32796000  1
  O  O8  1  0.41866000  0.50297000  0.31824000  1
