# generated using pymatgen
data_CuH12C19N(ClO2)2
_symmetry_space_group_name_H-M   'P 1'
_cell_length_a   10.86870000
_cell_length_b   17.37220000
_cell_length_c   15.85000000
_cell_angle_alpha   89.99440000
_cell_angle_beta   90.13290000
_cell_angle_gamma   92.93990000
_symmetry_Int_Tables_number   1
_chemical_formula_structural   CuH12C19N(ClO2)2
_chemical_formula_sum   'Cu2 H24 C38 N2 Cl4 O8'
_cell_volume   2988.74292647
_cell_formula_units_Z   2
loop_
 _symmetry_equiv_pos_site_id
 _symmetry_equiv_pos_as_xyz
  1  'x, y, z'
loop_
 _atom_site_type_symbol
 _atom_site_label
 _atom_site_symmetry_multiplicity
 _atom_site_fract_x
 _atom_site_fract_y
 _atom_site_fract_z
 _atom_site_occupancy
  Cu  Cu1  1  0.50002000  0.50000000  0.41971000  1
  Cu  Cu2  1  0.50000000  0.49999000  0.58029000  1
  H  H1  1  0.36230000  0.58154000  0.28453000  1
  H  H2  1  0.36215000  0.58161000  0.13368000  1
  H  H3  1  0.63775000  0.41846000  0.28497000  1
  H  H4  1  0.36221000  0.58149000  0.71502000  1
  H  H5  1  0.63775000  0.41848000  0.71548000  1
  H  H6  1  0.63787000  0.41841000  0.86633000  1
  H  H7  1  0.49985000  0.25981000  0.36670000  1
  H  H8  1  0.49978000  0.12218000  0.36656000  1
  H  H9  1  0.50035000  0.25979000  0.63331000  1
  H  H10  1  0.49957000  0.74019000  0.36668000  1
  H  H11  1  0.50020000  0.74019000  0.63330000  1
  H  H12  1  0.50025000  0.87783000  0.63342000  1
  H  H13  1  0.87687000  0.38171000  0.52405000  1
  H  H14  1  0.87964000  0.41173000  0.41214000  1
  H  H15  1  0.08830000  0.40288000  0.41291000  1
  H  H16  1  0.08631000  0.37790000  0.52630000  1
  H  H17  1  0.10801000  0.53781000  0.37257000  1
  H  H18  1  0.11703000  0.61369000  0.45444000  1
  H  H19  1  0.90092000  0.54451000  0.37314000  1
  H  H20  1  0.91152000  0.61812000  0.45743000  1
  H  H21  1  0.89342000  0.48068000  0.63286000  1
  H  H22  1  0.91217000  0.58346000  0.60293000  1
  H  H23  1  0.11565000  0.57758000  0.60200000  1
  H  H24  1  0.09697000  0.47511000  0.63323000  1
  C  C1  1  0.73107000  0.50758000  0.50038000  1
  C  C2  1  0.26895000  0.49241000  0.49962000  1
  C  C3  1  0.49987000  0.64436000  0.49999000  1
  C  C4  1  0.50015000  0.35563000  0.50001000  1
  C  C5  1  0.42093000  0.54682000  0.25379000  1
  C  C6  1  0.42068000  0.54696000  0.16495000  1
  C  C7  1  0.50000000  0.49999000  0.12005000  1
  C  C8  1  0.57933000  0.45303000  0.16520000  1
  C  C9  1  0.57911000  0.45317000  0.25404000  1
  C  C10  1  0.49999000  0.50000000  0.03772000  1
  C  C11  1  0.49998000  0.50000000  0.96228000  1
  C  C12  1  0.49998000  0.49999000  0.87995000  1
  C  C13  1  0.42063000  0.54694000  0.83479000  1
  C  C14  1  0.42086000  0.54680000  0.74595000  1
  C  C15  1  0.57910000  0.45318000  0.74622000  1
  C  C16  1  0.57933000  0.45305000  0.83506000  1
  C  C17  1  0.50011000  0.27406000  0.50001000  1
  C  C18  1  0.49994000  0.23167000  0.42345000  1
  C  C19  1  0.49990000  0.15061000  0.42322000  1
  C  C20  1  0.50002000  0.10953000  0.49999000  1
  C  C21  1  0.50019000  0.15060000  0.57678000  1
  C  C22  1  0.50023000  0.23166000  0.57656000  1
  C  C23  1  0.49999000  0.03441000  0.49999000  1
  C  C24  1  0.49997000  0.96558000  0.49998000  1
  C  C25  1  0.49994000  0.89046000  0.49998000  1
  C  C26  1  0.49974000  0.84938000  0.42320000  1
  C  C27  1  0.49971000  0.76832000  0.42343000  1
  C  C28  1  0.49988000  0.72593000  0.49999000  1
  C  C29  1  0.50008000  0.76832000  0.57654000  1
  C  C30  1  0.50010000  0.84938000  0.57677000  1
  C  C31  1  0.91692000  0.42649000  0.47777000  1
  C  C32  1  0.05824000  0.42241000  0.47801000  1
  C  C33  1  0.13046000  0.49632000  0.49982000  1
  C  C34  1  0.07806000  0.55312000  0.43911000  1
  C  C35  1  0.93673000  0.55735000  0.43958000  1
  C  C36  1  0.86819000  0.50371000  0.50019000  1
  C  C37  1  0.93226000  0.52235000  0.58290000  1
  C  C38  1  0.07374000  0.51870000  0.58261000  1
  N  N1  1  0.50003000  0.50000000  0.30038000  1
  N  N2  1  0.49998000  0.49999000  0.69962000  1
  Cl  Cl1  1  0.67983000  0.39353000  0.11183000  1
  Cl  Cl2  1  0.32008000  0.60642000  0.88816000  1
  Cl  Cl3  1  0.50035000  0.10175000  0.67406000  1
  Cl  Cl4  1  0.49952000  0.89822000  0.32592000  1
  O  O1  1  0.66020000  0.50535000  0.42539000  1
  O  O2  1  0.33950000  0.49486000  0.42486000  1
  O  O3  1  0.49968000  0.60029000  0.42512000  1
  O  O4  1  0.50002000  0.39992000  0.42513000  1
  O  O5  1  0.50029000  0.39970000  0.57489000  1
  O  O6  1  0.50003000  0.60007000  0.57487000  1
  O  O7  1  0.33968000  0.49475000  0.57461000  1
  O  O8  1  0.66051000  0.50510000  0.57514000  1
