data_DB1-Cu2O8N2-ADC_A-fum_A_No19_repeat
_audit_creation_date              2024-02-20
_audit_creation_method            'Materials Studio'
_symmetry_space_group_name_H-M    'P1'
_symmetry_Int_Tables_number       1
_symmetry_cell_setting            triclinic
loop_
_symmetry_equiv_pos_as_xyz
  x,y,z
_cell_length_a                    15.8494
_cell_length_b                    17.5218
_cell_length_c                    8.7576
_cell_angle_alpha                 89.5454
_cell_angle_beta                  94.7939
_cell_angle_gamma                 95.2900
loop_
_atom_site_label
_atom_site_type_symbol
_atom_site_fract_x
_atom_site_fract_y
_atom_site_fract_z
_atom_site_U_iso_or_equiv
_atom_site_adp_type
_atom_site_occupancy
Cu1    Cu    0.41981   0.49705   0.50595   0.00000  Uiso   1.00
Cu2    Cu    0.58019   0.50294   0.49408   0.00000  Uiso   1.00
O1     O     0.43891   0.49779   0.70462   0.00000  Uiso   1.00
O2     O     0.41151   0.49693   0.30607   0.00000  Uiso   1.00
O3     O     0.43089   0.59704   0.50475   0.00000  Uiso   1.00
O4     O     0.41953   0.39768   0.50594   0.00000  Uiso   1.00
O5     O     0.56911   0.40295   0.49522   0.00000  Uiso   1.00
O6     O     0.58047   0.60231   0.49413   0.00000  Uiso   1.00
O7     O     0.56108   0.50231   0.29524   0.00000  Uiso   1.00
O8     O     0.58848   0.50304   0.69396   0.00000  Uiso   1.00
C1     C     0.51974   0.50064   0.78716   0.00000  Uiso   1.00
C2     C     0.48026   0.49935   0.21286   0.00000  Uiso   1.00
C3     C     0.50819   0.64362   0.49928   0.00000  Uiso   1.00
C4     C     0.49181   0.35637   0.50075   0.00000  Uiso   1.00
N1     N     0.30063   0.49267   0.51477   0.00000  Uiso   1.00
C5     C     0.25125   0.53975   0.41996   0.00000  Uiso   1.00
C6     C     0.16298   0.53658   0.42635   0.00000  Uiso   1.00
C7     C     0.12151   0.48599   0.52820   0.00000  Uiso   1.00
C8     C     0.17101   0.43903   0.62275   0.00000  Uiso   1.00
C9     C     0.25920   0.44224   0.61630   0.00000  Uiso   1.00
C10    C     0.02779   0.47952   0.54123   0.00000  Uiso   1.00
C11    C     0.97221   0.52048   0.45876   0.00000  Uiso   1.00
C12    C     0.82898   0.56096   0.37725   0.00000  Uiso   1.00
C13    C     0.87849   0.51400   0.47180   0.00000  Uiso   1.00
C14    C     0.83702   0.46342   0.57366   0.00000  Uiso   1.00
C15    C     0.74875   0.46024   0.58006   0.00000  Uiso   1.00
N2     N     0.69936   0.50732   0.48526   0.00000  Uiso   1.00
C16    C     0.74079   0.55775   0.38372   0.00000  Uiso   1.00
H1     H     0.28146   0.57909   0.34075   0.00000  Uiso   1.00
H2     H     0.12860   0.57402   0.35096   0.00000  Uiso   1.00
H3     H     0.14132   0.39953   0.70229   0.00000  Uiso   1.00
H4     H     0.85866   0.60047   0.29771   0.00000  Uiso   1.00
H5     H     0.87140   0.42598   0.64905   0.00000  Uiso   1.00
H6     H     0.71855   0.42090   0.65927   0.00000  Uiso   1.00
H7     H     0.00474   0.43848   0.62387   0.00000  Uiso   1.00
H8     H     0.99525   0.56153   0.37612   0.00000  Uiso   1.00
C17    C     0.48692   0.27084   0.50106   0.00000  Uiso   1.00
C18    C     0.56077   0.23233   0.49580   0.00000  Uiso   1.00
C19    C     0.55629   0.15211   0.49608   0.00000  Uiso   1.00
C20    C     0.47747   0.10802   0.50166   0.00000  Uiso   1.00
C21    C     0.40382   0.14666   0.50690   0.00000  Uiso   1.00
C22    C     0.40835   0.22680   0.50661   0.00000  Uiso   1.00
C23    C     0.46786   0.02245   0.50230   0.00000  Uiso   1.00
C24    C     0.53217   0.97754   0.49772   0.00000  Uiso   1.00
C25    C     0.59620   0.85333   0.49313   0.00000  Uiso   1.00
C26    C     0.52255   0.89197   0.49837   0.00000  Uiso   1.00
C27    C     0.44373   0.84788   0.50394   0.00000  Uiso   1.00
C28    C     0.43925   0.76766   0.50423   0.00000  Uiso   1.00
C29    C     0.51309   0.72915   0.49897   0.00000  Uiso   1.00
C30    C     0.59166   0.77318   0.49341   0.00000  Uiso   1.00
H9     H     0.62207   0.26477   0.49146   0.00000  Uiso   1.00
H10    H     0.61497   0.12591   0.49191   0.00000  Uiso   1.00
H11    H     0.34226   0.11467   0.51126   0.00000  Uiso   1.00
H12    H     0.65776   0.88531   0.48877   0.00000  Uiso   1.00
H13    H     0.38504   0.87408   0.50812   0.00000  Uiso   1.00
H14    H     0.37794   0.73523   0.50856   0.00000  Uiso   1.00
H15    H     0.40386   0.99626   0.50683   0.00000  Uiso   1.00
H16    H     0.59618   0.00372   0.49319   0.00000  Uiso   1.00
C31    C     0.46750   0.49886   0.04437   0.00000  Uiso   1.00
C32    C     0.53250   0.50113   0.95566   0.00000  Uiso   1.00
H17    H     0.40280   0.49658   0.99248   0.00000  Uiso   1.00
H18    H     0.59720   0.50341   0.00754   0.00000  Uiso   1.00
O9     O     0.30271   0.39799   0.70541   0.00000  Uiso   1.00
Li1    Li    0.27493   0.33111   0.84007   0.00000  Uiso   1.00
O10    O     0.69728   0.60200   0.29462   0.00000  Uiso   1.00
Li2    Li    0.72505   0.66888   0.15995   0.00000  Uiso   1.00
O11    O     0.33897   0.26037   0.51155   0.00000  Uiso   1.00
Li3    Li    0.23462   0.22654   0.51894   0.00000  Uiso   1.00
O12    O     0.66104   0.73961   0.48848   0.00000  Uiso   1.00
Li4    Li    0.76540   0.77344   0.48109   0.00000  Uiso   1.00
