data_DB1-Cu2O8-irmof10_A-irmof8_A_No365_repeat
_audit_creation_date              2024-02-20
_audit_creation_method            'Materials Studio'
_symmetry_space_group_name_H-M    'P1'
_symmetry_Int_Tables_number       1
_symmetry_cell_setting            triclinic
loop_
_symmetry_equiv_pos_as_xyz
  x,y,z
_cell_length_a                    29.8915
_cell_length_b                    40.8668
_cell_length_c                    10.0000
_cell_angle_alpha                 90.0000
_cell_angle_beta                  90.0000
_cell_angle_gamma                 43.1244
loop_
_atom_site_label
_atom_site_type_symbol
_atom_site_fract_x
_atom_site_fract_y
_atom_site_fract_z
_atom_site_U_iso_or_equiv
_atom_site_adp_type
_atom_site_occupancy
Cu1    Cu    0.50000   0.50000   0.37274   0.00000  Uiso   1.00
Cu2    Cu    0.50000   0.50000   0.62726   0.00000  Uiso   1.00
O1     O     0.43777   0.56224   0.38131   0.00000  Uiso   1.00
O2     O     0.56223   0.43763   0.38132   0.00000  Uiso   1.00
O3     O     0.44184   0.49987   0.38132   0.00000  Uiso   1.00
O4     O     0.55816   0.50001   0.38132   0.00000  Uiso   1.00
O5     O     0.55818   0.50012   0.61868   0.00000  Uiso   1.00
O6     O     0.44183   0.50001   0.61868   0.00000  Uiso   1.00
O7     O     0.56222   0.43771   0.61868   0.00000  Uiso   1.00
O8     O     0.43778   0.56237   0.61867   0.00000  Uiso   1.00
C1     C     0.41031   0.58978   0.50000   0.00000  Uiso   1.00
C2     C     0.58969   0.41023   0.50001   0.00000  Uiso   1.00
C3     C     0.41616   0.49994   0.50000   0.00000  Uiso   1.00
C4     C     0.58384   0.50007   0.50000   0.00000  Uiso   1.00
Cu3    Cu    0.99987   0.50013   0.62730   0.00000  Uiso   1.00
Cu4    Cu    0.00011   0.49990   0.37278   0.00000  Uiso   1.00
O9     O     0.93789   0.56237   0.61826   0.00000  Uiso   1.00
O10    O     0.06212   0.43776   0.61917   0.00000  Uiso   1.00
O11    O     0.05830   0.49999   0.61872   0.00000  Uiso   1.00
O12    O     0.94171   0.50013   0.61872   0.00000  Uiso   1.00
O13    O     0.94169   0.50002   0.38136   0.00000  Uiso   1.00
O14    O     0.05825   0.49992   0.38135   0.00000  Uiso   1.00
O15    O     0.06220   0.43761   0.38181   0.00000  Uiso   1.00
O16    O     0.93784   0.56227   0.38091   0.00000  Uiso   1.00
C5     C     0.91050   0.58979   0.49938   0.00000  Uiso   1.00
C6     C     0.08947   0.41024   0.50069   0.00000  Uiso   1.00
C7     C     0.08395   0.49996   0.50003   0.00000  Uiso   1.00
C8     C     0.91603   0.50007   0.50003   0.00000  Uiso   1.00
Cu5    Cu    0.03530   0.96500   0.62731   0.00000  Uiso   1.00
Cu6    Cu    0.03499   0.96500   0.37280   0.00000  Uiso   1.00
O17    O     0.09750   0.90276   0.61874   0.00000  Uiso   1.00
O18    O     0.97282   0.02737   0.61873   0.00000  Uiso   1.00
O19    O     0.97711   0.96489   0.61938   0.00000  Uiso   1.00
O20    O     0.09321   0.96524   0.61809   0.00000  Uiso   1.00
O21    O     0.09316   0.96513   0.38073   0.00000  Uiso   1.00
O22    O     0.97709   0.96475   0.38202   0.00000  Uiso   1.00
O23    O     0.97267   0.02730   0.38138   0.00000  Uiso   1.00
O24    O     0.09748   0.90263   0.38138   0.00000  Uiso   1.00
C9     C     0.12495   0.87523   0.50005   0.00000  Uiso   1.00
C10    C     0.94533   0.05478   0.50005   0.00000  Uiso   1.00
C11    C     0.95153   0.96471   0.50098   0.00000  Uiso   1.00
C12    C     0.11876   0.96529   0.49912   0.00000  Uiso   1.00
Cu7    Cu    0.53678   0.96490   0.36932   0.00000  Uiso   1.00
Cu8    Cu    0.53686   0.96513   0.62384   0.00000  Uiso   1.00
O25    O     0.59879   0.90266   0.37835   0.00000  Uiso   1.00
O26    O     0.47478   0.02727   0.37744   0.00000  Uiso   1.00
O27    O     0.59518   0.96479   0.37725   0.00000  Uiso   1.00
O28    O     0.47838   0.96514   0.37854   0.00000  Uiso   1.00
O29    O     0.47844   0.96525   0.61590   0.00000  Uiso   1.00
O30    O     0.59527   0.96487   0.61461   0.00000  Uiso   1.00
O31    O     0.47486   0.02742   0.61480   0.00000  Uiso   1.00
O32    O     0.59884   0.90276   0.61571   0.00000  Uiso   1.00
C13    C     0.62618   0.87524   0.49723   0.00000  Uiso   1.00
C14    C     0.44745   0.05479   0.49592   0.00000  Uiso   1.00
C15    C     0.62101   0.96473   0.49565   0.00000  Uiso   1.00
C16    C     0.45263   0.96530   0.49751   0.00000  Uiso   1.00
C17    C     0.63206   0.50007   0.50001   0.00000  Uiso   1.00
C18    C     0.86780   0.50007   0.50003   0.00000  Uiso   1.00
C19    C     0.65571   0.50001   0.38007   0.00000  Uiso   1.00
C20    C     0.70263   0.50001   0.37896   0.00000  Uiso   1.00
C21    C     0.84416   0.50013   0.61997   0.00000  Uiso   1.00
C22    C     0.79724   0.50013   0.62108   0.00000  Uiso   1.00
C23    C     0.84427   0.50002   0.38009   0.00000  Uiso   1.00
C24    C     0.79736   0.50001   0.37897   0.00000  Uiso   1.00
C25    C     0.65560   0.50012   0.61995   0.00000  Uiso   1.00
C26    C     0.70251   0.50012   0.62107   0.00000  Uiso   1.00
C27    C     0.72630   0.50007   0.50002   0.00000  Uiso   1.00
C28    C     0.77357   0.50007   0.50002   0.00000  Uiso   1.00
H1     H     0.71853   0.49997   0.29548   0.00000  Uiso   1.00
H2     H     0.78134   0.50017   0.70456   0.00000  Uiso   1.00
H3     H     0.86037   0.49998   0.29694   0.00000  Uiso   1.00
H4     H     0.78153   0.49997   0.29548   0.00000  Uiso   1.00
H5     H     0.63950   0.50016   0.70309   0.00000  Uiso   1.00
H6     H     0.71833   0.50016   0.70455   0.00000  Uiso   1.00
C29    C     0.36793   0.49994   0.50001   0.00000  Uiso   1.00
C30    C     0.13218   0.49995   0.50003   0.00000  Uiso   1.00
C31    C     0.34441   0.49987   0.38007   0.00000  Uiso   1.00
C32    C     0.29749   0.49987   0.37896   0.00000  Uiso   1.00
C33    C     0.15570   0.50003   0.61997   0.00000  Uiso   1.00
C34    C     0.20261   0.50003   0.62108   0.00000  Uiso   1.00
C35    C     0.15584   0.49988   0.38009   0.00000  Uiso   1.00
C36    C     0.20276   0.49988   0.37897   0.00000  Uiso   1.00
C37    C     0.34427   0.50002   0.61995   0.00000  Uiso   1.00
C38    C     0.29735   0.50002   0.62107   0.00000  Uiso   1.00
C39    C     0.27369   0.49995   0.50002   0.00000  Uiso   1.00
C40    C     0.22642   0.49995   0.50002   0.00000  Uiso   1.00
H7     H     0.28168   0.49982   0.29548   0.00000  Uiso   1.00
H8     H     0.21843   0.50008   0.70456   0.00000  Uiso   1.00
H9     H     0.13983   0.49983   0.29694   0.00000  Uiso   1.00
H10    H     0.21867   0.49983   0.29548   0.00000  Uiso   1.00
H11    H     0.36027   0.50007   0.70309   0.00000  Uiso   1.00
H12    H     0.28144   0.50007   0.70455   0.00000  Uiso   1.00
C41    C     0.21030   0.78991   0.59792   0.00000  Uiso   1.00
C42    C     0.19227   0.80780   0.36386   0.00000  Uiso   1.00
C43    C     0.24082   0.75922   0.32768   0.00000  Uiso   1.00
C44    C     0.27513   0.72496   0.43236   0.00000  Uiso   1.00
C45    C     0.32496   0.67509   0.40214   0.00000  Uiso   1.00
C46    C     0.34299   0.65721   0.63619   0.00000  Uiso   1.00
C47    C     0.29445   0.70579   0.67237   0.00000  Uiso   1.00
C48    C     0.26014   0.74004   0.56769   0.00000  Uiso   1.00
C49    C     0.17793   0.82223   0.50004   0.00000  Uiso   1.00
C50    C     0.35733   0.64278   0.50001   0.00000  Uiso   1.00
H13    H     0.19918   0.80111   0.70257   0.00000  Uiso   1.00
H14    H     0.16513   0.83491   0.28672   0.00000  Uiso   1.00
H15    H     0.33608   0.66390   0.29749   0.00000  Uiso   1.00
H16    H     0.37014   0.63009   0.71332   0.00000  Uiso   1.00
C51    C     0.64132   0.35863   0.50001   0.00000  Uiso   1.00
C52    C     0.89370   0.10638   0.50004   0.00000  Uiso   1.00
C53    C     0.66654   0.33338   0.38008   0.00000  Uiso   1.00
C54    C     0.71677   0.28318   0.37897   0.00000  Uiso   1.00
C55    C     0.86848   0.13162   0.61998   0.00000  Uiso   1.00
C56    C     0.81825   0.18183   0.62109   0.00000  Uiso   1.00
C57    C     0.86842   0.13162   0.38010   0.00000  Uiso   1.00
C58    C     0.81818   0.18182   0.37898   0.00000  Uiso   1.00
C59    C     0.66661   0.33339   0.61996   0.00000  Uiso   1.00
C60    C     0.71684   0.28318   0.62108   0.00000  Uiso   1.00
C61    C     0.74220   0.25779   0.50002   0.00000  Uiso   1.00
C62    C     0.79282   0.20721   0.50003   0.00000  Uiso   1.00
H17    H     0.73373   0.26621   0.29549   0.00000  Uiso   1.00
H18    H     0.80129   0.19880   0.70457   0.00000  Uiso   1.00
H19    H     0.88558   0.11444   0.29696   0.00000  Uiso   1.00
H20    H     0.80118   0.19879   0.29549   0.00000  Uiso   1.00
H21    H     0.64944   0.35057   0.70310   0.00000  Uiso   1.00
H22    H     0.73384   0.26621   0.70456   0.00000  Uiso   1.00
C63    C     0.71119   0.78983   0.40000   0.00000  Uiso   1.00
C64    C     0.69330   0.80794   0.63392   0.00000  Uiso   1.00
C65    C     0.74167   0.75939   0.67046   0.00000  Uiso   1.00
C66    C     0.77583   0.72504   0.56603   0.00000  Uiso   1.00
C67    C     0.82550   0.67520   0.59662   0.00000  Uiso   1.00
C68    C     0.84339   0.65709   0.36269   0.00000  Uiso   1.00
C69    C     0.79501   0.70563   0.32616   0.00000  Uiso   1.00
C70    C     0.76085   0.73999   0.43059   0.00000  Uiso   1.00
C71    C     0.67897   0.82224   0.49763   0.00000  Uiso   1.00
C72    C     0.85772   0.64279   0.49898   0.00000  Uiso   1.00
H23    H     0.70006   0.80093   0.29526   0.00000  Uiso   1.00
H24    H     0.66627   0.83512   0.71087   0.00000  Uiso   1.00
H25    H     0.83662   0.66410   0.70135   0.00000  Uiso   1.00
H26    H     0.87042   0.62990   0.28576   0.00000  Uiso   1.00
C73    C     0.14082   0.35864   0.50106   0.00000  Uiso   1.00
C74    C     0.39186   0.10639   0.50287   0.00000  Uiso   1.00
C75    C     0.16587   0.33351   0.62118   0.00000  Uiso   1.00
C76    C     0.21583   0.28331   0.62265   0.00000  Uiso   1.00
C77    C     0.36681   0.13152   0.38275   0.00000  Uiso   1.00
C78    C     0.31686   0.18172   0.38127   0.00000  Uiso   1.00
C79    C     0.36666   0.13175   0.62263   0.00000  Uiso   1.00
C80    C     0.31670   0.18195   0.62339   0.00000  Uiso   1.00
C81    C     0.16602   0.33329   0.38130   0.00000  Uiso   1.00
C82    C     0.21598   0.28308   0.38055   0.00000  Uiso   1.00
C83    C     0.24117   0.25781   0.50178   0.00000  Uiso   1.00
C84    C     0.29151   0.20722   0.50215   0.00000  Uiso   1.00
H27    H     0.23267   0.26641   0.70626   0.00000  Uiso   1.00
H28    H     0.30002   0.19862   0.29767   0.00000  Uiso   1.00
H29    H     0.38371   0.11464   0.70590   0.00000  Uiso   1.00
H30    H     0.29976   0.19900   0.70675   0.00000  Uiso   1.00
H31    H     0.14898   0.35039   0.29803   0.00000  Uiso   1.00
H32    H     0.23292   0.26604   0.29718   0.00000  Uiso   1.00
C85    C     0.16678   0.96549   0.49858   0.00000  Uiso   1.00
C86    C     0.40154   0.96648   0.49594   0.00000  Uiso   1.00
C87    C     0.19036   0.96565   0.61826   0.00000  Uiso   1.00
C88    C     0.23709   0.96584   0.61884   0.00000  Uiso   1.00
C89    C     0.37795   0.96632   0.37627   0.00000  Uiso   1.00
C90    C     0.33123   0.96613   0.37568   0.00000  Uiso   1.00
C91    C     0.37814   0.96644   0.61614   0.00000  Uiso   1.00
C92    C     0.33142   0.96624   0.61778   0.00000  Uiso   1.00
C93    C     0.19018   0.96554   0.37838   0.00000  Uiso   1.00
C94    C     0.23690   0.96573   0.37674   0.00000  Uiso   1.00
C95    C     0.26062   0.96589   0.49753   0.00000  Uiso   1.00
C96    C     0.30770   0.96608   0.49700   0.00000  Uiso   1.00
H33    H     0.25295   0.96595   0.70215   0.00000  Uiso   1.00
H34    H     0.31537   0.96602   0.29237   0.00000  Uiso   1.00
H35    H     0.39419   0.96654   0.69911   0.00000  Uiso   1.00
H36    H     0.31569   0.96621   0.70144   0.00000  Uiso   1.00
H37    H     0.17412   0.96543   0.29542   0.00000  Uiso   1.00
H38    H     0.25263   0.96576   0.29308   0.00000  Uiso   1.00
C97    C     0.90351   0.96451   0.50152   0.00000  Uiso   1.00
C98    C     0.66877   0.96351   0.50411   0.00000  Uiso   1.00
C99    C     0.88010   0.96448   0.62172   0.00000  Uiso   1.00
C100   C     0.83338   0.96428   0.62335   0.00000  Uiso   1.00
C101   C     0.69219   0.96353   0.38391   0.00000  Uiso   1.00
C102   C     0.73890   0.96373   0.38228   0.00000  Uiso   1.00
C103   C     0.69233   0.96368   0.62379   0.00000  Uiso   1.00
C104   C     0.73905   0.96388   0.62439   0.00000  Uiso   1.00
C105   C     0.87995   0.96433   0.38184   0.00000  Uiso   1.00
C106   C     0.83323   0.96413   0.38124   0.00000  Uiso   1.00
C107   C     0.80968   0.96411   0.50255   0.00000  Uiso   1.00
C108   C     0.76260   0.96391   0.50308   0.00000  Uiso   1.00
H39    H     0.81764   0.96427   0.70700   0.00000  Uiso   1.00
H40    H     0.75464   0.96375   0.29862   0.00000  Uiso   1.00
H41    H     0.67640   0.96366   0.70711   0.00000  Uiso   1.00
H42    H     0.75490   0.96400   0.70770   0.00000  Uiso   1.00
H43    H     0.89588   0.96435   0.29852   0.00000  Uiso   1.00
H44    H     0.81738   0.96402   0.29793   0.00000  Uiso   1.00
O33    O     0.63406   0.49996   0.26765   0.00000  Uiso   1.00
Li1    Li    0.65088   0.49988   0.10403   0.00000  Uiso   1.00
O34    O     0.86581   0.50018   0.73238   0.00000  Uiso   1.00
Li2    Li    0.84899   0.50026   0.89600   0.00000  Uiso   1.00
O35    O     0.36619   0.49980   0.26765   0.00000  Uiso   1.00
Li3    Li    0.34954   0.49970   0.10403   0.00000  Uiso   1.00
O36    O     0.13392   0.50010   0.73238   0.00000  Uiso   1.00
Li4    Li    0.15056   0.50020   0.89600   0.00000  Uiso   1.00
O37    O     0.64327   0.35661   0.26766   0.00000  Uiso   1.00
Li5    Li    0.66115   0.33869   0.10404   0.00000  Uiso   1.00
O38    O     0.89175   0.10840   0.73240   0.00000  Uiso   1.00
Li6    Li    0.87387   0.12631   0.89602   0.00000  Uiso   1.00
O39    O     0.14268   0.35684   0.73343   0.00000  Uiso   1.00
Li7    Li    0.16041   0.33908   0.89718   0.00000  Uiso   1.00
O40    O     0.39000   0.10819   0.27050   0.00000  Uiso   1.00
Li8    Li    0.37228   0.12595   0.10676   0.00000  Uiso   1.00
O41    O     0.16883   0.96561   0.73091   0.00000  Uiso   1.00
Li9    Li    0.18563   0.96576   0.89434   0.00000  Uiso   1.00
O42    O     0.39948   0.96636   0.26361   0.00000  Uiso   1.00
Li10   Li    0.38268   0.96621   0.10018   0.00000  Uiso   1.00
O43    O     0.90178   0.96464   0.73389   0.00000  Uiso   1.00
Li11   Li    0.88521   0.96467   0.89769   0.00000  Uiso   1.00
O44    O     0.67050   0.96337   0.27174   0.00000  Uiso   1.00
Li12   Li    0.68707   0.96334   0.10794   0.00000  Uiso   1.00
O45    O     0.27864   0.72169   0.81669   0.00000  Uiso   1.00
H45    H     0.23896   0.76139   0.82125   0.00000  Uiso   1.00
O46    O     0.25663   0.74332   0.18336   0.00000  Uiso   1.00
H46    H     0.29631   0.70362   0.17880   0.00000  Uiso   1.00
O47    O     0.77921   0.72140   0.18173   0.00000  Uiso   1.00
H47    H     0.73967   0.76110   0.17688   0.00000  Uiso   1.00
O48    O     0.75746   0.74363   0.81489   0.00000  Uiso   1.00
H48    H     0.79700   0.70393   0.81974   0.00000  Uiso   1.00
