# Generated by REPEAT Assigner based on pymatgen
data_DB1-AlO6-mof200_No1
_audit_creation_date              2022-05-24
_audit_creation_method            REPEAT_Assigner
_cell_length_a                    23.794100
_cell_length_b                    23.795000
_cell_length_c                    4.318700
_cell_angle_alpha                 93.081400
_cell_angle_beta                  93.171300
_cell_angle_gamma                 60.027900
_cell_volume                      2113.961253
_symmetry_space_group_name_H-M    P1
_symmetry_Int_Tables_number       1
loop_
    _symmetry_equiv_pos_site_id
    _symmetry_equiv_pos_as_xyz
    1  x,y,z
loop_
    _atom_site_type_symbol
    _atom_site_label
    _atom_site_fract_x
    _atom_site_fract_y
    _atom_site_fract_z
    _atom_type_partial_charge
    O   O1   0.430990  0.562170  0.274070  -0.585598
    O   O2   0.506720  0.430930  0.258280  -0.602997
    O   O3   0.562280  0.506890  0.297710  -0.584025
    O   O4   0.430850  0.506890  0.704270  -0.580276
    O   O5   0.507060  0.562170  0.743870  -0.597631
    O   O6   0.562080  0.430930  0.721770  -0.593156
    C   C1   0.549290  0.401060  0.485710  0.795565
    C   C2   0.549670  0.549470  0.529790  0.773926
    C   C3   0.401040  0.549470  0.484490  0.769711
    Al  Al1  0.500000  0.500000  0.999990  1.404297
    C   C4   0.654470  0.292030  0.485330  -0.110363
    H   H1   0.681530  0.317360  0.475370  0.108915
    C   C5   0.688640  0.223920  0.502610  -0.122087
    H   H2   0.741130  0.198870  0.502860  0.096581
    C   C6   0.751760  0.081660  0.687530  -0.066421
    H   H3   0.771450  0.108280  0.818760  0.079321
    C   C7   0.786000  0.013370  0.694300  -0.165021
    H   H4   0.830880  0.989680  0.830900  0.095400
    C   C8   0.292100  0.654610  0.474520  -0.083418
    H   H5   0.317500  0.681490  0.459560  0.106449
    C   C9   0.224020  0.688950  0.491350  -0.138676
    H   H6   0.199140  0.741440  0.493450  0.093663
    C   C10  0.077930  0.749930  0.348530  -0.061264
    H   H7   0.101440  0.767440  0.204900  0.075693
    C   C11  0.009680  0.784050  0.355260  -0.202270
    H   H8   0.982940  0.826660  0.216470  0.105273
    C   C12  0.585960  0.327440  0.475090  -0.108258
    C   C13  0.655650  0.188540  0.509680  0.121463
    C   C14  0.692260  0.115280  0.519320  -0.036707
    C   C15  0.762090  0.976120  0.532680  0.162402
    C   C16  0.798970  0.902810  0.538300  -0.007170
    C   C17  0.867550  0.867780  0.534740  -0.117571
    H   H9   0.893610  0.894110  0.528780  0.079719
    C   C18  0.292150  0.553390  0.493820  -0.111747
    H   H10  0.317560  0.500840  0.491990  0.114276
    C   C19  0.224040  0.587750  0.511330  -0.106010
    H   H11  0.199030  0.560400  0.519940  0.085078
    C   C20  0.081910  0.671670  0.694700  -0.095786
    H   H12  0.108680  0.628900  0.832320  0.082030
    C   C21  0.013630  0.705870  0.701810  -0.156766
    H   H13  0.990080  0.688330  0.845070  0.093758
    C   C22  0.655100  0.553260  0.552880  -0.116311
    H   H14  0.681950  0.500690  0.545810  0.113100
    C   C23  0.689410  0.587350  0.558890  -0.126235
    H   H15  0.741910  0.559810  0.560960  0.096221
    C   C24  0.750130  0.668500  0.392020  -0.097576
    H   H16  0.767560  0.623790  0.255430  0.083641
    C   C25  0.784180  0.702730  0.387760  -0.145691
    H   H17  0.826670  0.683230  0.247940  0.091221
    C   C26  0.327500  0.586130  0.472930  -0.121162
    C   C27  0.188610  0.656190  0.507950  0.108608
    C   C28  0.115360  0.693060  0.517860  0.015895
    C   C29  0.976210  0.762670  0.531920  0.176565
    C   C30  0.902910  0.799200  0.537920  0.006049
    C   C31  0.867930  0.765670  0.545260  -0.141544
    H   H18  0.894300  0.713230  0.547410  0.080887
    C   C32  0.553850  0.654780  0.562250  -0.100185
    H   H19  0.501290  0.681820  0.560550  0.111988
    C   C33  0.588170  0.688890  0.568940  -0.143191
    H   H20  0.560790  0.741380  0.569650  0.097096
    C   C34  0.672110  0.751740  0.730350  -0.039820
    H   H21  0.629460  0.771350  0.869000  0.070928
    C   C35  0.706250  0.785920  0.726470  -0.218117
    H   H22  0.688780  0.830690  0.862660  0.110216
    C   C36  0.553010  0.292100  0.487120  -0.115520
    H   H23  0.500430  0.317530  0.480530  0.113645
    C   C37  0.587170  0.224000  0.503730  -0.118424
    H   H24  0.559680  0.199170  0.514110  0.093261
    C   C38  0.668310  0.078020  0.358260  -0.034740
    H   H25  0.623490  0.101670  0.221260  0.069931
    C   C39  0.702590  0.009760  0.364650  -0.203507
    H   H26  0.683010  0.983160  0.232240  0.107799
    C   C40  0.586620  0.586280  0.551950  -0.100464
    C   C41  0.656600  0.655830  0.564900  0.131401
    C   C42  0.693410  0.692370  0.563120  -0.009575
    C   C43  0.762890  0.762100  0.554800  0.172389
    C   C44  0.799360  0.798930  0.549020  0.005445
    C   C45  0.765770  0.867500  0.545660  -0.121299
    H   H27  0.713330  0.893600  0.548130  0.086773
