data_DB1-Al2O6-ADC_B-DPAC_B_No244_repeat
_audit_creation_date              2024-02-23
_audit_creation_method            'Materials Studio'
_symmetry_space_group_name_H-M    'P1'
_symmetry_Int_Tables_number       1
_symmetry_cell_setting            triclinic
loop_
_symmetry_equiv_pos_as_xyz
  x,y,z
_cell_length_a                    23.8490
_cell_length_b                    34.0765
_cell_length_c                    6.6072
_cell_angle_alpha                 90.0009
_cell_angle_beta                  90.0073
_cell_angle_gamma                 45.5819
loop_
_atom_site_label
_atom_site_type_symbol
_atom_site_fract_x
_atom_site_fract_y
_atom_site_fract_z
_atom_site_U_iso_or_equiv
_atom_site_adp_type
_atom_site_occupancy
Al1    Al    0.50000   0.50000   0.00000   0.00000  Uiso   1.00
Al2    Al    0.50000   0.50000   0.50000   0.00000  Uiso   1.00
O1     O     0.60163   0.44996   0.07633   0.00000  Uiso   1.00
O2     O     0.50154   0.55004   0.42372   0.00000  Uiso   1.00
O3     O     0.39837   0.55004   0.57625   0.00000  Uiso   1.00
O4     O     0.49846   0.44996   0.92371   0.00000  Uiso   1.00
O5     O     0.39837   0.55004   0.92367   0.00000  Uiso   1.00
O6     O     0.49846   0.44996   0.57629   0.00000  Uiso   1.00
O7     O     0.60163   0.44996   0.42375   0.00000  Uiso   1.00
O8     O     0.50154   0.55004   0.07630   0.00000  Uiso   1.00
O9     O     0.52444   0.50000   0.75001   0.00000  Uiso   1.00
O10    O     0.47556   0.50000   0.24999   0.00000  Uiso   1.00
C1     C     0.63743   0.43199   0.25006   0.00000  Uiso   1.00
C2     C     0.50140   0.56802   0.25001   0.00000  Uiso   1.00
C3     C     0.36257   0.56802   0.74994   0.00000  Uiso   1.00
C4     C     0.49861   0.43199   0.75000   0.00000  Uiso   1.00
H1     H     0.56492   0.50000   0.75003   0.00000  Uiso   1.00
H2     H     0.43508   0.50000   0.24997   0.00000  Uiso   1.00
Al3    Al    0.49991   0.00003   0.99987   0.00000  Uiso   1.00
Al4    Al    0.50000   0.00000   0.49987   0.00000  Uiso   1.00
O11    O     0.39830   0.05008   0.07624   0.00000  Uiso   1.00
O12    O     0.49842   0.94998   0.42361   0.00000  Uiso   1.00
O13    O     0.60164   0.94994   0.57608   0.00000  Uiso   1.00
O14    O     0.50164   0.05000   0.92356   0.00000  Uiso   1.00
O15    O     0.60170   0.94992   0.92350   0.00000  Uiso   1.00
O16    O     0.50158   0.05002   0.57614   0.00000  Uiso   1.00
O17    O     0.39836   0.05006   0.42366   0.00000  Uiso   1.00
O18    O     0.49836   0.95000   0.07619   0.00000  Uiso   1.00
O19    O     0.47560   0.99999   0.74990   0.00000  Uiso   1.00
O20    O     0.52441   0.00001   0.24985   0.00000  Uiso   1.00
C5     C     0.36253   0.06805   0.24998   0.00000  Uiso   1.00
C6     C     0.49853   0.93202   0.24990   0.00000  Uiso   1.00
C7     C     0.63748   0.93195   0.74977   0.00000  Uiso   1.00
C8     C     0.50147   0.06798   0.74984   0.00000  Uiso   1.00
H3     H     0.43511  -0.00000   0.74994   0.00000  Uiso   1.00
H4     H     0.56489  -0.00000   0.24981   0.00000  Uiso   1.00
C9     C     0.49885   0.89028   0.24992   0.00000  Uiso   1.00
C10    C     0.49904   0.86858   0.43358   0.00000  Uiso   1.00
C11    C     0.49936   0.82709   0.43414   0.00000  Uiso   1.00
C12    C     0.49950   0.80608   0.24996   0.00000  Uiso   1.00
C13    C     0.49932   0.82711   0.06576   0.00000  Uiso   1.00
C14    C     0.49900   0.86859   0.06629   0.00000  Uiso   1.00
C15    C     0.49981   0.76764   0.24999   0.00000  Uiso   1.00
C16    C     0.50008   0.73241   0.25001   0.00000  Uiso   1.00
C17    C     0.50039   0.69397   0.25000   0.00000  Uiso   1.00
C18    C     0.50055   0.67295   0.43420   0.00000  Uiso   1.00
C19    C     0.50088   0.63147   0.43365   0.00000  Uiso   1.00
C20    C     0.50106   0.60977   0.25001   0.00000  Uiso   1.00
C21    C     0.50088   0.63146   0.06636   0.00000  Uiso   1.00
C22    C     0.50055   0.67295   0.06582   0.00000  Uiso   1.00
H5     H     0.49894   0.88297   0.56972   0.00000  Uiso   1.00
H6     H     0.49949   0.81254   0.57006   0.00000  Uiso   1.00
H7     H     0.49941   0.81256   0.92987   0.00000  Uiso   1.00
H8     H     0.50043   0.68751   0.57010   0.00000  Uiso   1.00
H9     H     0.50100   0.61706   0.93022   0.00000  Uiso   1.00
H10    H     0.50044   0.68750   0.92991   0.00000  Uiso   1.00
C23    C     0.50115   0.10972   0.74986   0.00000  Uiso   1.00
C24    C     0.50096   0.13142   0.93352   0.00000  Uiso   1.00
C25    C     0.50064   0.17291   0.93409   0.00000  Uiso   1.00
C26    C     0.50050   0.19392   0.74992   0.00000  Uiso   1.00
C27    C     0.50069   0.17289   0.56571   0.00000  Uiso   1.00
C28    C     0.50101   0.13141   0.56623   0.00000  Uiso   1.00
C29    C     0.50020   0.23236   0.74995   0.00000  Uiso   1.00
C30    C     0.49992   0.26759   0.74998   0.00000  Uiso   1.00
C31    C     0.49962   0.30603   0.74997   0.00000  Uiso   1.00
C32    C     0.49945   0.32705   0.93417   0.00000  Uiso   1.00
C33    C     0.49912   0.36854   0.93363   0.00000  Uiso   1.00
C34    C     0.49895   0.39024   0.74999   0.00000  Uiso   1.00
C35    C     0.49912   0.36854   0.56634   0.00000  Uiso   1.00
C36    C     0.49945   0.32705   0.56579   0.00000  Uiso   1.00
H11    H     0.50106   0.11703   0.06966   0.00000  Uiso   1.00
H12    H     0.50051   0.18746   0.07001   0.00000  Uiso   1.00
H13    H     0.50059   0.18744   0.42982   0.00000  Uiso   1.00
H14    H     0.49957   0.31249   0.07007   0.00000  Uiso   1.00
H15    H     0.49900   0.38294   0.43020   0.00000  Uiso   1.00
H16    H     0.49956   0.31250   0.42988   0.00000  Uiso   1.00
C37    C     0.72058   0.89028   0.74978   0.00000  Uiso   1.00
C38    C     0.76379   0.86858   0.56614   0.00000  Uiso   1.00
C39    C     0.84643   0.82709   0.56561   0.00000  Uiso   1.00
C40    C     0.88832   0.80608   0.74980   0.00000  Uiso   1.00
C41    C     0.84645   0.82711   0.93399   0.00000  Uiso   1.00
C42    C     0.76380   0.86859   0.93343   0.00000  Uiso   1.00
C43    C     0.96491   0.76764   0.74981   0.00000  Uiso   1.00
C44    C     0.03508   0.73241   0.74981   0.00000  Uiso   1.00
C45    C     0.11167   0.69397   0.74985   0.00000  Uiso   1.00
C46    C     0.15354   0.67295   0.56567   0.00000  Uiso   1.00
C47    C     0.23618   0.63147   0.56625   0.00000  Uiso   1.00
C48    C     0.27941   0.60977   0.74991   0.00000  Uiso   1.00
C49    C     0.23619   0.63146   0.93354   0.00000  Uiso   1.00
C50    C     0.15354   0.67295   0.93405   0.00000  Uiso   1.00
H17    H     0.73510   0.88297   0.42999   0.00000  Uiso   1.00
H18    H     0.87542   0.81254   0.42971   0.00000  Uiso   1.00
H19    H     0.87545   0.81256   0.06989   0.00000  Uiso   1.00
H20    H     0.12454   0.68751   0.42976   0.00000  Uiso   1.00
H21    H     0.26487   0.61706   0.06969   0.00000  Uiso   1.00
H22    H     0.12455   0.68750   0.06995   0.00000  Uiso   1.00
C51    C     0.27942   0.10966   0.25022   0.00000  Uiso   1.00
C52    C     0.23621   0.13134   0.43386   0.00000  Uiso   1.00
C53    C     0.15357   0.17284   0.43440   0.00000  Uiso   1.00
C54    C     0.11168   0.19388   0.25020   0.00000  Uiso   1.00
C55    C     0.15355   0.17287   0.06602   0.00000  Uiso   1.00
C56    C     0.23620   0.13137   0.06657   0.00000  Uiso   1.00
C57    C     0.03510   0.23234   0.25019   0.00000  Uiso   1.00
C58    C     0.96492   0.26757   0.25019   0.00000  Uiso   1.00
C59    C     0.88833   0.30602   0.25015   0.00000  Uiso   1.00
C60    C     0.84646   0.32705   0.43433   0.00000  Uiso   1.00
C61    C     0.76382   0.36854   0.43375   0.00000  Uiso   1.00
C62    C     0.72060   0.39024   0.25009   0.00000  Uiso   1.00
C63    C     0.76381   0.36854   0.06646   0.00000  Uiso   1.00
C64    C     0.84646   0.32704   0.06595   0.00000  Uiso   1.00
H23    H     0.26490   0.11693   0.57001   0.00000  Uiso   1.00
H24    H     0.12458   0.18739   0.57030   0.00000  Uiso   1.00
H25    H     0.12455   0.18744   0.93011   0.00000  Uiso   1.00
H26    H     0.87546   0.31249   0.57024   0.00000  Uiso   1.00
H27    H     0.73513   0.38294   0.93031   0.00000  Uiso   1.00
H28    H     0.87545   0.31249   0.93006   0.00000  Uiso   1.00
H29    H     0.46009   0.93462   0.84241   0.00000  Uiso   1.00
H30    H     0.53739   0.86066   0.74088   0.00000  Uiso   1.00
N1     N     0.49880   0.88983   0.86546   0.00000  Uiso   1.00
H31    H     0.46274   0.60303   0.65750   0.00000  Uiso   1.00
H32    H     0.53948   0.60183   0.75906   0.00000  Uiso   1.00
N2     N     0.50105   0.61023   0.63447   0.00000  Uiso   1.00
H33    H     0.53992   0.06539   0.34238   0.00000  Uiso   1.00
H34    H     0.46262   0.13934   0.24079   0.00000  Uiso   1.00
N3     N     0.50120   0.11017   0.36540   0.00000  Uiso   1.00
H35    H     0.53726   0.39697   0.15752   0.00000  Uiso   1.00
H36    H     0.46053   0.39818   0.25901   0.00000  Uiso   1.00
N4     N     0.49896   0.38977   0.13445   0.00000  Uiso   1.00
H37    H     0.67066   0.93461   0.15725   0.00000  Uiso   1.00
H38    H     0.74127   0.86066   0.25885   0.00000  Uiso   1.00
N5     N     0.72151   0.88983   0.13424   0.00000  Uiso   1.00
H39    H     0.33120   0.60303   0.34242   0.00000  Uiso   1.00
H40    H     0.25687   0.60183   0.24086   0.00000  Uiso   1.00
N6     N     0.27849   0.61023   0.36545   0.00000  Uiso   1.00
H41    H     0.33122   0.10294   0.84275   0.00000  Uiso   1.00
H42    H     0.25686   0.10176   0.74115   0.00000  Uiso   1.00
N7     N     0.27849   0.11015   0.86576   0.00000  Uiso   1.00
H43    H     0.67068   0.43456   0.65759   0.00000  Uiso   1.00
H44    H     0.74126   0.36061   0.75914   0.00000  Uiso   1.00
N8     N     0.72152   0.38978   0.63456   0.00000  Uiso   1.00
