# Generated by REPEAT Assigner based on pymatgen
data_DB1-Zn2O8N2-irmof10_A-irmof8_A_No375
_audit_creation_date              2022-05-24
_audit_creation_method            REPEAT_Assigner
_cell_length_a                    13.190800
_cell_length_b                    28.336500
_cell_length_c                    14.262400
_cell_angle_alpha                 90.041700
_cell_angle_beta                  89.874200
_cell_angle_gamma                 89.789500
_cell_volume                      5330.965349
_symmetry_space_group_name_H-M    P1
_symmetry_Int_Tables_number       1
loop_
    _symmetry_equiv_pos_site_id
    _symmetry_equiv_pos_as_xyz
    1  x,y,z
loop_
    _atom_site_type_symbol
    _atom_site_label
    _atom_site_fract_x
    _atom_site_fract_y
    _atom_site_fract_z
    _atom_type_partial_charge
    O   O1   0.500940  0.431940  0.595200  -0.462826
    O   O2   0.500430  0.431950  0.404620  -0.538334
    C   C1   0.500630  0.407970  0.499930  0.398595
    Zn  Zn1  0.500000  0.500010  0.616230  0.970926
    O   O3   0.646170  0.500030  0.404520  -0.583183
    O   O4   0.646240  0.500090  0.595110  -0.583036
    C   C2   0.697740  0.500040  0.499840  0.472312
    O   O5   0.499260  0.568070  0.404800  -0.544684
    O   O6   0.499390  0.568060  0.595370  -0.550512
    C   C3   0.499290  0.592050  0.500080  0.487856
    Zn  Zn2  0.500010  0.500010  0.383770  1.002330
    O   O7   0.353830  0.499890  0.595480  -0.562177
    O   O8   0.353770  0.500000  0.404890  -0.575804
    C   C4   0.302270  0.499810  0.500160  0.430354
    O   O9   0.500080  0.033570  0.404840  -0.461018
    O   O10  0.499830  0.033560  0.595420  -0.537226
    C   C5   0.499840  0.057540  0.500120  0.390744
    Zn  Zn3  0.499280  0.965500  0.383820  0.970543
    O   O11  0.645740  0.965060  0.594760  -0.586270
    O   O12  0.645550  0.964990  0.404180  -0.584390
    C   C6   0.697180  0.964900  0.499170  0.471376
    O   O13  0.498990  0.897440  0.595250  -0.542992
    O   O14  0.498860  0.897450  0.404680  -0.548476
    C   C7   0.498950  0.873460  0.499970  0.483107
    Zn  Zn4  0.499600  0.965500  0.616270  1.007472
    O   O15  0.353140  0.966040  0.405330  -0.569775
    O   O16  0.353330  0.965930  0.595920  -0.584752
    C   C8   0.301710  0.966270  0.500920  0.449657
    N   N1   0.500000  0.500010  0.752960  -0.223584
    N   N2   0.500020  0.500000  0.247040  -0.206205
    C   C9   0.435360  0.529880  0.802580  0.544261
    C   C10  0.434760  0.530160  0.900910  -0.401226
    C   C11  0.564660  0.470130  0.197420  0.539974
    C   C12  0.565260  0.469850  0.099090  -0.385986
    C   C13  0.435380  0.529880  0.197770  0.053117
    C   C14  0.434770  0.530160  0.099450  -0.349093
    C   C15  0.564650  0.470130  0.802220  0.121075
    C   C16  0.565250  0.469850  0.900550  -0.371050
    C   C17  0.500010  0.500010  0.950460  0.211313
    C   C18  0.500010  0.500010  0.049540  0.201949
    H   H1   0.389770  0.550960  0.934280  0.178876
    H   H2   0.610250  0.449050  0.065720  0.180531
    H   H3   0.390570  0.550590  0.231550  0.146949
    H   H4   0.389780  0.550960  0.066330  0.183126
    H   H5   0.609460  0.449420  0.768450  0.127732
    H   H6   0.610250  0.449050  0.933670  0.173126
    C   C19  0.499010  0.789330  0.431380  -0.179333
    C   C20  0.499100  0.807030  0.595480  -0.238538
    C   C21  0.499170  0.759150  0.620860  0.081809
    C   C22  0.499170  0.725340  0.547470  0.046951
    C   C23  0.499240  0.676190  0.568670  -0.175893
    C   C24  0.499150  0.658480  0.404570  -0.235372
    C   C25  0.499070  0.706360  0.379190  0.079534
    C   C26  0.499080  0.740170  0.452580  0.048699
    C   C27  0.499020  0.821210  0.499990  0.027146
    C   C28  0.499230  0.644300  0.500060  0.021460
    H   H7   0.498970  0.800330  0.358000  0.127658
    H   H8   0.499110  0.833780  0.649560  0.150550
    H   H9   0.499280  0.665180  0.642050  0.126008
    H   H10  0.499140  0.631730  0.350500  0.150058
    C   C29  0.500510  0.357090  0.499950  -0.086346
    C   C30  0.499960  0.108410  0.500090  -0.080026
    C   C31  0.500680  0.332250  0.584060  0.532719
    C   C32  0.500570  0.282760  0.584870  -0.433203
    C   C33  0.499790  0.133260  0.415980  0.532023
    C   C34  0.499900  0.182750  0.415170  -0.431695
    C   C35  0.500240  0.133340  0.584170  -0.136858
    C   C36  0.500350  0.182830  0.584930  -0.277469
    C   C37  0.500230  0.332170  0.415870  -0.135117
    C   C38  0.500120  0.282670  0.415120  -0.280191
    C   C39  0.500290  0.257690  0.500010  0.189223
    C   C40  0.500180  0.207820  0.500040  0.179329
    H   H11  0.500690  0.266060  0.643410  0.177819
    H   H12  0.499780  0.199450  0.356630  0.177131
    H   H13  0.500360  0.116430  0.642480  0.165368
    H   H14  0.500540  0.199590  0.643450  0.155862
    H   H15  0.500120  0.349070  0.357570  0.164670
    H   H16  0.499930  0.265920  0.356600  0.156929
    C   C41  0.121390  0.499900  0.568690  -0.260746
    C   C42  0.159750  0.499830  0.404600  -0.280101
    C   C43  0.056940  0.499860  0.379190  0.089416
    C   C44  0.984180  0.499920  0.452550  0.038434
    C   C45  0.878620  0.499950  0.431310  -0.198473
    C   C46  0.840260  0.500020  0.595400  -0.238174
    C   C47  0.943070  0.499990  0.620810  0.069735
    C   C48  0.015830  0.499940  0.547450  0.073220
    C   C49  0.190030  0.499850  0.500100  0.129088
    C   C50  0.809980  0.500000  0.499900  0.052514
    H   H17  0.144880  0.499930  0.642080  0.162074
    H   H18  0.217320  0.499800  0.350540  0.167919
    H   H19  0.855120  0.499920  0.357920  0.138782
    H   H20  0.782680  0.500060  0.649450  0.154937
    N   N3   0.499100  0.965500  0.247090  -0.218927
    N   N4   0.498450  0.965510  0.753010  -0.205120
    C   C51  0.434460  0.935810  0.197810  0.538962
    C   C52  0.433730  0.935540  0.099480  -0.397887
    C   C53  0.563090  0.995200  0.802290  0.537030
    C   C54  0.563820  0.995470  0.900620  -0.385195
    C   C55  0.433940  0.935820  0.802610  0.050622
    C   C56  0.433470  0.935540  0.900940  -0.350097
    C   C57  0.563610  0.995190  0.197490  0.117334
    C   C58  0.564080  0.995470  0.099160  -0.369049
    C   C59  0.498840  0.965510  0.049590  0.208953
    C   C60  0.498710  0.965500  0.950510  0.204705
    H   H21  0.388750  0.914870  0.066350  0.177658
    H   H22  0.608810  0.016140  0.933750  0.179902
    H   H23  0.389140  0.915230  0.769070  0.148810
    H   H24  0.388570  0.914870  0.934300  0.183507
    H   H25  0.608410  0.015770  0.231030  0.128791
    H   H26  0.608980  0.016140  0.065800  0.172712
    C   C61  0.120730  0.963810  0.428110  -0.261915
    C   C62  0.159310  0.963770  0.592000  -0.288984
    C   C63  0.056540  0.964030  0.617950  0.097251
    C   C64  0.983680  0.964190  0.544970  0.041393
    C   C65  0.878150  0.964460  0.566760  -0.206007
    C   C66  0.839570  0.964500  0.402870  -0.247462
    C   C67  0.942340  0.964240  0.376920  0.073942
    C   C68  0.015200  0.964080  0.449910  0.071010
    C   C69  0.189470  0.963660  0.496350  0.120971
    C   C70  0.809410  0.964610  0.498530  0.063765
    H   H27  0.144130  0.963710  0.354600  0.166064
    H   H28  0.216960  0.963640  0.645770  0.172680
    H   H29  0.854750  0.964560  0.640270  0.139838
    H   H30  0.781920  0.964630  0.349120  0.157170
    H   H31  0.392880  0.582090  0.687700  0.375392
    H   H32  0.285060  0.566780  0.773220  0.372552
    N   N5   0.364880  0.562460  0.749850  -0.888677
    H   H33  0.677110  0.450720  0.312200  0.387594
    H   H34  0.645000  0.400420  0.226870  0.368956
    N   N6   0.635150  0.437550  0.250150  -0.898181
    H   H35  0.550820  0.390100  0.684580  0.330790
    H   H36  0.451380  0.347390  0.734290  0.359132
    N   N7   0.500990  0.358940  0.675740  -0.934920
    H   H37  0.549130  0.075190  0.315030  0.330083
    H   H38  0.449610  0.118330  0.266190  0.358570
    N   N8   0.499480  0.106570  0.324310  -0.933129
    H   H39  0.392260  0.883730  0.312910  0.372806
    H   H40  0.284290  0.899350  0.227940  0.371908
    N   N9   0.364130  0.903440  0.250910  -0.884145
    H   H41  0.675330  0.014270  0.686920  0.387184
    H   H42  0.643220  0.064670  0.772420  0.368697
    N   N10  0.633430  0.027570  0.749190  -0.895725
    C   C71  0.498990  0.722440  0.275160  -0.122395
    H   H43  0.439480  0.710630  0.244570  0.043149
    H   H44  0.499100  0.756290  0.272380  0.034171
    H   H45  0.558330  0.710340  0.244190  0.062580
    C   C72  0.499270  0.743080  0.724890  -0.124025
    H   H46  0.439780  0.755050  0.755790  0.043232
    H   H47  0.499480  0.709230  0.727680  0.035249
    H   H48  0.558630  0.755010  0.755550  0.062888
    C   C73  0.977390  0.500010  0.724860  -0.146124
    H   H49  0.951950  0.472340  0.755590  0.053146
    H   H50  0.050100  0.500060  0.727670  0.051500
    H   H51  0.951360  0.527660  0.755670  0.056461
    C   C74  0.022620  0.499840  0.275140  -0.117088
    H   H52  0.048400  0.472130  0.244400  0.049224
    H   H53  0.949920  0.499950  0.272330  0.028020
    H   H54  0.048330  0.527450  0.244340  0.052121
    C   C75  0.976530  0.964110  0.272700  -0.143646
    H   H55  0.950980  0.991860  0.242100  0.053094
    H   H56  0.049230  0.963860  0.269510  0.047386
    H   H57  0.950520  0.936540  0.242030  0.056271
    C   C76  0.022360  0.964150  0.722180  -0.125325
    H   H58  0.048120  0.991790  0.752780  0.051635
    H   H59  0.949660  0.964260  0.725370  0.029607
    H   H60  0.048180  0.936470  0.752840  0.053319
