data_DB1-Cu2O8N2-irmof10_A-irmof20_A_No377_repeat
_audit_creation_date              2024-02-20
_audit_creation_method            'Materials Studio'
_symmetry_space_group_name_H-M    'P1'
_symmetry_Int_Tables_number       1
_symmetry_cell_setting            triclinic
loop_
_symmetry_equiv_pos_as_xyz
  x,y,z
_cell_length_a                    12.5011
_cell_length_b                    27.4469
_cell_length_c                    13.3747
_cell_angle_alpha                 90.0003
_cell_angle_beta                  89.9971
_cell_angle_gamma                 89.9030
loop_
_atom_site_label
_atom_site_type_symbol
_atom_site_fract_x
_atom_site_fract_y
_atom_site_fract_z
_atom_site_U_iso_or_equiv
_atom_site_adp_type
_atom_site_occupancy
Cu1    Cu    0.50000   0.50000   0.40485   0.00000  Uiso   1.00
Cu2    Cu    0.50001   0.50000   0.59515   0.00000  Uiso   1.00
O1     O     0.63909   0.50003   0.41126   0.00000  Uiso   1.00
O2     O     0.36063   0.50011   0.41127   0.00000  Uiso   1.00
O3     O     0.49970   0.56348   0.41127   0.00000  Uiso   1.00
O4     O     0.50002   0.43665   0.41126   0.00000  Uiso   1.00
O5     O     0.50027   0.43651   0.58873   0.00000  Uiso   1.00
O6     O     0.50002   0.56334   0.58873   0.00000  Uiso   1.00
O7     O     0.36080   0.50003   0.58874   0.00000  Uiso   1.00
O8     O     0.63938   0.49987   0.58872   0.00000  Uiso   1.00
C1     C     0.70063   0.49996   0.49999   0.00000  Uiso   1.00
C2     C     0.29938   0.50004   0.50001   0.00000  Uiso   1.00
C3     C     0.49986   0.59137   0.50000   0.00000  Uiso   1.00
C4     C     0.50015   0.40862   0.50000   0.00000  Uiso   1.00
Cu3    Cu    0.50037   0.95546   0.59517   0.00000  Uiso   1.00
Cu4    Cu    0.49969   0.95546   0.40487   0.00000  Uiso   1.00
O9     O     0.63944   0.95521   0.58831   0.00000  Uiso   1.00
O10    O     0.36098   0.95557   0.58920   0.00000  Uiso   1.00
O11    O     0.50004   0.89198   0.58876   0.00000  Uiso   1.00
O12    O     0.50038   0.01881   0.58876   0.00000  Uiso   1.00
O13    O     0.49998   0.01895   0.41129   0.00000  Uiso   1.00
O14    O     0.49972   0.89212   0.41129   0.00000  Uiso   1.00
O15    O     0.36051   0.95564   0.41174   0.00000  Uiso   1.00
O16    O     0.63908   0.95537   0.41085   0.00000  Uiso   1.00
C5     C     0.70065   0.95519   0.49938   0.00000  Uiso   1.00
C6     C     0.29941   0.95574   0.50066   0.00000  Uiso   1.00
C7     C     0.49988   0.86408   0.50002   0.00000  Uiso   1.00
C8     C     0.50019   0.04684   0.50002   0.00000  Uiso   1.00
N1     N     0.50001   0.50000   0.73656   0.00000  Uiso   1.00
N2     N     0.50000   0.50000   0.26343   0.00000  Uiso   1.00
C9     C     0.56792   0.46908   0.78928   0.00000  Uiso   1.00
C10    C     0.56855   0.46879   0.89414   0.00000  Uiso   1.00
C11    C     0.43209   0.53092   0.21072   0.00000  Uiso   1.00
C12    C     0.43146   0.53120   0.10586   0.00000  Uiso   1.00
C13    C     0.56792   0.46908   0.21071   0.00000  Uiso   1.00
C14    C     0.56855   0.46879   0.10585   0.00000  Uiso   1.00
C15    C     0.43209   0.53092   0.78929   0.00000  Uiso   1.00
C16    C     0.43146   0.53121   0.89415   0.00000  Uiso   1.00
C17    C     0.50000   0.50000   0.94717   0.00000  Uiso   1.00
C18    C     0.50000   0.50000   0.05283   0.00000  Uiso   1.00
H1     H     0.61582   0.44727   0.92958   0.00000  Uiso   1.00
H2     H     0.38419   0.55273   0.07041   0.00000  Uiso   1.00
H3     H     0.61499   0.44764   0.24659   0.00000  Uiso   1.00
H4     H     0.61582   0.44727   0.07040   0.00000  Uiso   1.00
H5     H     0.38502   0.55235   0.75341   0.00000  Uiso   1.00
H6     H     0.38419   0.55273   0.92960   0.00000  Uiso   1.00
C19    C     0.50001   0.67733   0.57931   0.00000  Uiso   1.00
S1     S     0.49966   0.67508   0.38555   0.00000  Uiso   1.00
C20    C     0.49973   0.77813   0.42071   0.00000  Uiso   1.00
H7     H     0.49961   0.78834   0.35436   0.00000  Uiso   1.00
S2     S     0.50008   0.78038   0.61447   0.00000  Uiso   1.00
C21    C     0.49987   0.64574   0.50001   0.00000  Uiso   1.00
C22    C     0.49988   0.80972   0.50002   0.00000  Uiso   1.00
C23    C     0.49978   0.72773   0.44891   0.00000  Uiso   1.00
C24    C     0.49996   0.72773   0.55111   0.00000  Uiso   1.00
C25    C     0.50015   0.35610   0.50000   0.00000  Uiso   1.00
C26    C     0.50018   0.09936   0.50002   0.00000  Uiso   1.00
C27    C     0.50003   0.33041   0.41033   0.00000  Uiso   1.00
C28    C     0.50004   0.27931   0.40950   0.00000  Uiso   1.00
C29    C     0.50030   0.12505   0.58969   0.00000  Uiso   1.00
C30    C     0.50030   0.17615   0.59052   0.00000  Uiso   1.00
C31    C     0.50005   0.12505   0.41034   0.00000  Uiso   1.00
C32    C     0.50005   0.17615   0.40950   0.00000  Uiso   1.00
C33    C     0.50028   0.33041   0.58968   0.00000  Uiso   1.00
C34    C     0.50029   0.27931   0.59052   0.00000  Uiso   1.00
C35    C     0.50016   0.25347   0.50001   0.00000  Uiso   1.00
C36    C     0.50017   0.20199   0.50001   0.00000  Uiso   1.00
H8     H     0.49995   0.26204   0.34708   0.00000  Uiso   1.00
H9     H     0.50038   0.19342   0.65294   0.00000  Uiso   1.00
H10    H     0.49997   0.10756   0.34818   0.00000  Uiso   1.00
H11    H     0.49996   0.19342   0.34708   0.00000  Uiso   1.00
H12    H     0.50037   0.34790   0.65184   0.00000  Uiso   1.00
H13    H     0.50038   0.26204   0.65294   0.00000  Uiso   1.00
C37    C     0.88936   0.50005   0.42069   0.00000  Uiso   1.00
S3     S     0.88439   0.49988   0.61445   0.00000  Uiso   1.00
C38    C     0.11065   0.49994   0.57931   0.00000  Uiso   1.00
H14    H     0.13306   0.49988   0.64566   0.00000  Uiso   1.00
S4     S     0.11562   0.50011   0.38555   0.00000  Uiso   1.00
C39    C     0.81999   0.49997   0.50000   0.00000  Uiso   1.00
C40    C     0.18002   0.50002   0.50001   0.00000  Uiso   1.00
C41    C     0.00000   0.49995   0.55110   0.00000  Uiso   1.00
C42    C     0.00001   0.50004   0.44890   0.00000  Uiso   1.00
N3     N     0.49918   0.95546   0.26346   0.00000  Uiso   1.00
N4     N     0.49728   0.95546   0.73659   0.00000  Uiso   1.00
C43    C     0.56690   0.98628   0.21052   0.00000  Uiso   1.00
C44    C     0.56716   0.98656   0.10566   0.00000  Uiso   1.00
C45    C     0.42955   0.92465   0.78953   0.00000  Uiso   1.00
C46    C     0.42930   0.92436   0.89439   0.00000  Uiso   1.00
C47    C     0.56538   0.98628   0.78910   0.00000  Uiso   1.00
C48    C     0.56639   0.98656   0.89395   0.00000  Uiso   1.00
C49    C     0.43107   0.92465   0.21095   0.00000  Uiso   1.00
C50    C     0.43006   0.92436   0.10610   0.00000  Uiso   1.00
C51    C     0.49842   0.95546   0.05285   0.00000  Uiso   1.00
C52    C     0.49804   0.95546   0.94720   0.00000  Uiso   1.00
H15    H     0.61430   0.00801   0.07006   0.00000  Uiso   1.00
H16    H     0.38216   0.90291   0.92999   0.00000  Uiso   1.00
H17    H     0.61233   0.00764   0.75306   0.00000  Uiso   1.00
H18    H     0.61379   0.00801   0.92925   0.00000  Uiso   1.00
H19    H     0.38412   0.90329   0.24699   0.00000  Uiso   1.00
H20    H     0.38267   0.90291   0.07080   0.00000  Uiso   1.00
C53    C     0.88966   0.95479   0.57807   0.00000  Uiso   1.00
S5     S     0.88400   0.95498   0.38432   0.00000  Uiso   1.00
C54    C     0.11039   0.95456   0.41873   0.00000  Uiso   1.00
H21    H     0.13256   0.95459   0.35231   0.00000  Uiso   1.00
S6     S     0.11605   0.95438   0.61247   0.00000  Uiso   1.00
C55    C     0.82001   0.95499   0.49899   0.00000  Uiso   1.00
C56    C     0.18004   0.95437   0.49781   0.00000  Uiso   1.00
C57    C     0.99984   0.95473   0.44730   0.00000  Uiso   1.00
C58    C     0.00021   0.95463   0.54950   0.00000  Uiso   1.00
O17    O     0.63157   0.44009   0.74076   0.00000  Uiso   1.00
Li1    Li    0.72421   0.39791   0.77817   0.00000  Uiso   1.00
O18    O     0.36844   0.55990   0.25924   0.00000  Uiso   1.00
Li2    Li    0.27580   0.60208   0.22183   0.00000  Uiso   1.00
O19    O     0.49991   0.35405   0.32627   0.00000  Uiso   1.00
Li3    Li    0.49975   0.33581   0.20394   0.00000  Uiso   1.00
O20    O     0.50042   0.10141   0.67375   0.00000  Uiso   1.00
Li4    Li    0.50059   0.11965   0.79608   0.00000  Uiso   1.00
O21    O     0.63073   0.01516   0.25883   0.00000  Uiso   1.00
Li5    Li    0.72324   0.05720   0.22112   0.00000  Uiso   1.00
O22    O     0.36573   0.89577   0.74122   0.00000  Uiso   1.00
Li6    Li    0.27321   0.85373   0.77893   0.00000  Uiso   1.00
O23    O     0.50020   0.66076   0.68697   0.00000  Uiso   1.00
H22    H     0.50030   0.69306   0.73690   0.00000  Uiso   1.00
O24    O     0.85300   0.50015   0.31303   0.00000  Uiso   1.00
H23    H     0.92392   0.50020   0.26310   0.00000  Uiso   1.00
O25    O     0.85369   0.95476   0.68584   0.00000  Uiso   1.00
H24    H     0.92480   0.95459   0.73554   0.00000  Uiso   1.00
