# Generated by REPEAT Assigner based on pymatgen
data_DB1-Zn2O8N2-DPAC_A-irmof14_A_No620
_audit_creation_date              2022-05-24
_audit_creation_method            REPEAT_Assigner
_cell_length_a                    32.670200
_cell_length_b                    17.572400
_cell_length_c                    16.737700
_cell_angle_alpha                 90.040700
_cell_angle_beta                  89.868300
_cell_angle_gamma                 89.769700
_cell_volume                      9608.904677
_symmetry_space_group_name_H-M    P1
_symmetry_Int_Tables_number       1
loop_
    _symmetry_equiv_pos_site_id
    _symmetry_equiv_pos_as_xyz
    1  x,y,z
loop_
    _atom_site_type_symbol
    _atom_site_label
    _atom_site_fract_x
    _atom_site_fract_y
    _atom_site_fract_z
    _atom_type_partial_charge
    O   O1   0.500300  0.390250  0.581120  -0.511815
    O   O2   0.500100  0.390270  0.418720  -0.487162
    C   C1   0.500150  0.351590  0.499930  0.434560
    Zn  Zn1  0.500000  0.500010  0.599040  0.969228
    O   O3   0.559020  0.499870  0.418630  -0.556683
    O   O4   0.559040  0.499960  0.581030  -0.535899
    C   C2   0.579840  0.499820  0.499860  0.408237
    O   O5   0.499780  0.609780  0.418880  -0.541848
    O   O6   0.499830  0.609750  0.581280  -0.457058
    C   C3   0.499820  0.648440  0.500080  0.392619
    Zn  Zn2  0.500010  0.500020  0.400960  0.942624
    O   O7   0.440980  0.500000  0.581370  -0.607614
    O   O8   0.440960  0.500190  0.418970  -0.463785
    C   C4   0.420170  0.499940  0.500150  0.407628
    O   O9   0.962010  0.388020  0.418860  -0.521860
    O   O10  0.962220  0.388240  0.581250  -0.491143
    C   C5   0.962230  0.349460  0.500040  0.454191
    Zn  Zn3  0.962130  0.497760  0.400960  0.972698
    O   O11  0.903110  0.498380  0.581370  -0.558927
    O   O12  0.903090  0.498280  0.418970  -0.537135
    C   C6   0.882290  0.498430  0.500150  0.411655
    O   O13  0.962170  0.607740  0.581140  -0.542089
    O   O14  0.962120  0.607530  0.418750  -0.458795
    C   C7   0.962070  0.646310  0.499960  0.394736
    Zn  Zn4  0.962120  0.498000  0.599040  0.945946
    O   O15  0.021150  0.497230  0.418630  -0.608322
    O   O16  0.021170  0.497610  0.581030  -0.470490
    C   C8   0.041970  0.497080  0.499850  0.409573
    N   N1   0.500010  0.500020  0.284450  -0.286291
    C   C9   0.526390  0.451210  0.240300  0.125948
    C   C10  0.526470  0.451060  0.156160  -0.372631
    C   C11  0.500010  0.500000  0.113690  0.340882
    C   C12  0.473550  0.548960  0.156470  -0.448070
    C   C13  0.473630  0.548820  0.240600  0.621435
    C   C14  0.500010  0.500000  0.035720  -0.098008
    C   C15  0.500010  0.499990  0.964280  -0.127737
    C   C16  0.500000  0.499990  0.886310  0.342982
    C   C17  0.526450  0.451030  0.843520  -0.386146
    C   C18  0.526370  0.451170  0.759390  0.538704
    N   N2   0.500000  0.500000  0.715550  -0.241020
    C   C19  0.473630  0.548820  0.759710  0.090245
    C   C20  0.473550  0.548960  0.843840  -0.360224
    H   H1   0.545950  0.415030  0.269380  0.137813
    H   H2   0.545990  0.414940  0.126530  0.182062
    H   H3   0.454030  0.585070  0.127060  0.189510
    H   H4   0.545970  0.414900  0.872930  0.181905
    H   H5   0.454080  0.585010  0.730630  0.135226
    H   H6   0.454040  0.585090  0.873480  0.170965
    C   C21  0.500110  0.270950  0.499950  -0.180801
    C   C22  0.500120  0.229100  0.572450  -0.042897
    C   C23  0.500080  0.148970  0.572690  -0.313391
    C   C24  0.500030  0.108300  0.499990  0.321818
    C   C25  0.500010  0.148840  0.427270  -0.433006
    C   C26  0.500050  0.228970  0.427460  0.551231
    C   C27  0.499990  0.034030  0.500010  -0.124973
    C   C28  0.499960  0.965990  0.500030  -0.126930
    C   C29  0.499920  0.891730  0.500040  0.317752
    C   C30  0.499930  0.851180  0.572750  -0.411019
    C   C31  0.499890  0.771040  0.572550  0.514751
    C   C32  0.499850  0.729080  0.500060  -0.100656
    C   C33  0.499850  0.770930  0.427560  -0.110778
    C   C34  0.499880  0.851060  0.427340  -0.303880
    H   H7   0.500160  0.256960  0.626190  0.109290
    H   H8   0.500090  0.120900  0.626340  0.161366
    H   H9   0.499970  0.120670  0.373630  0.183652
    H   H10  0.499950  0.879340  0.626400  0.174474
    H   H11  0.499820  0.743070  0.373830  0.158413
    H   H12  0.499880  0.879130  0.373680  0.156762
    C   C35  0.643300  0.499490  0.428740  -0.212659
    C   C36  0.686120  0.499290  0.432270  0.134251
    C   C37  0.709900  0.499140  0.362870  -0.001133
    H   H13  0.630000  0.499520  0.379640  0.126964
    C   C38  0.643090  0.499570  0.571090  -0.244540
    C   C39  0.685930  0.499370  0.567640  0.150438
    C   C40  0.709510  0.499300  0.637090  -0.042871
    H   H14  0.629660  0.499660  0.620170  0.164539
    C   C41  0.818840  0.498760  0.571260  -0.214802
    C   C42  0.776010  0.498960  0.567730  0.133695
    C   C43  0.752230  0.499110  0.637140  0.000187
    H   H15  0.832130  0.498730  0.620360  0.128946
    C   C44  0.819040  0.498680  0.428910  -0.246828
    C   C45  0.776200  0.498880  0.432360  0.149204
    C   C46  0.752630  0.498950  0.362910  -0.041144
    H   H16  0.832480  0.498590  0.379830  0.166815
    C   C47  0.620780  0.499630  0.499890  0.142277
    C   C48  0.710860  0.499220  0.499980  -0.036862
    C   C49  0.841350  0.498620  0.500110  0.142045
    C   C50  0.751270  0.499030  0.500020  -0.033059
    C   C51  0.085340  0.497410  0.499880  -0.112695
    C   C52  0.107980  0.497650  0.427400  -0.069432
    C   C53  0.151080  0.497980  0.427220  -0.324291
    C   C54  0.172820  0.498080  0.499950  0.316114
    C   C55  0.150880  0.497850  0.572640  -0.436766
    C   C56  0.107780  0.497520  0.572390  0.534757
    C   C57  0.212770  0.498390  0.499970  -0.113423
    C   C58  0.249360  0.498670  0.499990  -0.116339
    C   C59  0.289310  0.498970  0.500030  0.321083
    C   C60  0.311250  0.499220  0.427340  -0.443987
    C   C61  0.354350  0.499540  0.427590  0.540512
    C   C62  0.376790  0.499620  0.500110  -0.116296
    C   C63  0.354150  0.499370  0.572580  -0.064027
    C   C64  0.311050  0.499050  0.572760  -0.328513
    H   H17  0.093090  0.497580  0.373650  0.143678
    H   H18  0.166280  0.498150  0.373580  0.164604
    H   H19  0.165930  0.497920  0.626300  0.182046
    H   H20  0.296200  0.499180  0.373680  0.183959
    H   H21  0.369030  0.499420  0.626340  0.141770
    H   H22  0.295850  0.498870  0.626400  0.165491
    N   N3   0.962120  0.496980  0.715550  -0.295070
    C   C65  0.935820  0.448470  0.759690  0.132881
    C   C66  0.935750  0.448410  0.843820  -0.378816
    C   C67  0.962130  0.497160  0.886310  0.349397
    C   C68  0.988500  0.545820  0.843540  -0.453207
    C   C69  0.988420  0.545590  0.759410  0.628306
    C   C70  0.962130  0.497250  0.964280  -0.101053
    C   C71  0.962130  0.497320  0.035720  -0.128666
    C   C72  0.962130  0.497410  0.113690  0.349725
    C   C73  0.935760  0.448740  0.156470  -0.392904
    C   C74  0.935840  0.448990  0.240600  0.548612
    N   N4   0.962130  0.497620  0.284450  -0.249768
    C   C75  0.988420  0.546140  0.240300  0.098603
    C   C76  0.988500  0.546190  0.156170  -0.366546
    H   H23  0.916320  0.412430  0.730600  0.137983
    H   H24  0.916280  0.412500  0.873450  0.182763
    H   H25  0.007960  0.581790  0.872960  0.190033
    H   H26  0.916310  0.412760  0.127060  0.183379
    H   H27  0.007910  0.582190  0.269390  0.133208
    H   H28  0.007950  0.582100  0.126540  0.171871
    C   C77  0.960750  0.268830  0.500220  -0.204689
    C   C78  0.960800  0.226900  0.427710  -0.027503
    C   C79  0.960980  0.146760  0.427450  -0.322166
    C   C80  0.961100  0.106170  0.500140  0.328842
    C   C81  0.961040  0.146800  0.572870  -0.440061
    C   C82  0.960870  0.226930  0.572700  0.563313
    C   C83  0.961260  0.031910  0.500110  -0.127364
    C   C84  0.961400  0.963870  0.500070  -0.124386
    C   C85  0.961560  0.889600  0.500050  0.315152
    C   C86  0.961620  0.848970  0.427320  -0.410563
    C   C87  0.961790  0.768830  0.427510  0.514375
    C   C88  0.961900  0.726950  0.499990  -0.100395
    C   C89  0.961830  0.768880  0.572500  -0.109698
    C   C90  0.961660  0.849020  0.572740  -0.304044
    H   H29  0.960720  0.254690  0.373980  0.106744
    H   H30  0.961010  0.118630  0.373790  0.162383
    H   H31  0.961130  0.118690  0.626510  0.185051
    H   H32  0.961550  0.877070  0.373690  0.174898
    H   H33  0.961910  0.741090  0.626230  0.158227
    H   H34  0.961620  0.877150  0.626400  0.156834
    H   H35  0.427340  0.581910  0.336610  0.374295
    H   H36  0.441030  0.661710  0.262830  0.368745
    N   N5   0.444790  0.602190  0.283830  -0.878278
    H   H37  0.544370  0.365260  0.663460  0.363760
    H   H38  0.587240  0.391070  0.737060  0.361283
    N   N6   0.555200  0.397790  0.716150  -0.862499
    H   H39  0.479970  0.320310  0.339200  0.359441
    H   H40  0.520080  0.249640  0.298890  0.341311
    N   N7   0.500040  0.269920  0.348180  -0.914266
    H   H41  0.479790  0.680070  0.661050  0.341981
    H   H42  0.520000  0.750000  0.700890  0.364692
    N   N8   0.499900  0.730090  0.651830  -0.924196
    H   H43  0.058430  0.534400  0.660800  0.315462
    H   H44  0.096490  0.459990  0.700770  0.364397
    N   N9   0.085610  0.497280  0.651650  -0.927404
    H   H45  0.403380  0.537360  0.339340  0.309152
    H   H46  0.365970  0.462450  0.299080  0.364445
    N   N10  0.376530  0.499810  0.348340  -0.926174
    H   H47  0.034660  0.578140  0.663400  0.374194
    H   H48  0.020840  0.658150  0.737200  0.370824
    N   N11  0.017180  0.598650  0.716190  -0.883963
    H   H49  0.917980  0.363350  0.336510  0.368064
    H   H50  0.875080  0.389470  0.262920  0.362696
    N   N12  0.907100  0.395920  0.283830  -0.869541
    H   H51  0.980800  0.318190  0.660980  0.358953
    H   H52  0.940800  0.247930  0.701280  0.340149
    N   N13  0.960820  0.267980  0.651990  -0.916434
    H   H53  0.982040  0.677570  0.338990  0.343169
    H   H54  0.941720  0.747830  0.299160  0.364844
    N   N14  0.961860  0.727780  0.348220  -0.925222
    Cl  Cl1  0.778190  0.498770  0.270240  -0.070725
    Cl  Cl2  0.684600  0.499200  0.270150  -0.071881
    Cl  Cl3  0.777530  0.499040  0.729860  -0.072727
    Cl  Cl4  0.683940  0.499470  0.729760  -0.069730
