# Generated by REPEAT Assigner based on pymatgen
data_DB1-Cu2O8-irmof10_A-irmof8_A_No195
_audit_creation_date              2022-05-24
_audit_creation_method            REPEAT_Assigner
_cell_length_a                    29.891500
_cell_length_b                    40.866800
_cell_length_c                    10.000000
_cell_angle_alpha                 90.000000
_cell_angle_beta                  90.000000
_cell_angle_gamma                 43.124400
_cell_volume                      8350.464791
_symmetry_space_group_name_H-M    P1
_symmetry_Int_Tables_number       1
loop_
    _symmetry_equiv_pos_site_id
    _symmetry_equiv_pos_as_xyz
    1  x,y,z
loop_
    _atom_site_type_symbol
    _atom_site_label
    _atom_site_fract_x
    _atom_site_fract_y
    _atom_site_fract_z
    _atom_type_partial_charge
    Cu  Cu1   0.500000  0.500000  0.372740  1.132899
    Cu  Cu2   0.500000  0.500000  0.627260  1.154100
    O   O1    0.437770  0.562240  0.381310  -0.605307
    O   O2    0.562230  0.437630  0.381320  -0.593995
    O   O3    0.441840  0.499870  0.381320  -0.603400
    O   O4    0.558160  0.500010  0.381320  -0.602930
    O   O5    0.558180  0.500120  0.618680  -0.613259
    O   O6    0.441830  0.500010  0.618680  -0.616770
    O   O7    0.562220  0.437710  0.618680  -0.605042
    O   O8    0.437780  0.562370  0.618670  -0.617374
    C   C1    0.410310  0.589780  0.500000  0.605003
    C   C2    0.589690  0.410230  0.500010  0.587727
    C   C3    0.416160  0.499940  0.500000  0.626686
    C   C4    0.583840  0.500070  0.500000  0.619360
    Cu  Cu3   0.999870  0.500130  0.627300  1.132348
    Cu  Cu4   0.000110  0.499900  0.372780  1.154039
    O   O9    0.937890  0.562370  0.618260  -0.605039
    O   O10   0.062120  0.437760  0.619170  -0.593425
    O   O11   0.058300  0.499990  0.618720  -0.600052
    O   O12   0.941710  0.500130  0.618720  -0.604809
    O   O13   0.941690  0.500020  0.381360  -0.614718
    O   O14   0.058250  0.499920  0.381350  -0.613862
    O   O15   0.062200  0.437610  0.381810  -0.605133
    O   O16   0.937840  0.562270  0.380910  -0.617198
    C   C5    0.910500  0.589790  0.499380  0.605547
    C   C6    0.089470  0.410240  0.500690  0.589678
    C   C7    0.083950  0.499960  0.500030  0.618142
    C   C8    0.916030  0.500070  0.500030  0.624232
    Cu  Cu5   0.035300  0.965000  0.627310  1.131042
    Cu  Cu6   0.034990  0.965000  0.372800  1.151449
    O   O17   0.097500  0.902760  0.618740  -0.604358
    O   O18   0.972820  0.027370  0.618730  -0.593141
    O   O19   0.977110  0.964890  0.619380  -0.599771
    O   O20   0.093210  0.965240  0.618090  -0.604429
    O   O21   0.093160  0.965130  0.380730  -0.613000
    O   O22   0.977090  0.964750  0.382020  -0.613672
    O   O23   0.972670  0.027300  0.381380  -0.603845
    O   O24   0.097480  0.902630  0.381380  -0.616307
    C   C9    0.124950  0.875230  0.500050  0.604681
    C   C10   0.945330  0.054780  0.500050  0.587125
    C   C11   0.951530  0.964710  0.500980  0.617716
    C   C12   0.118760  0.965290  0.499120  0.622323
    Cu  Cu7   0.536780  0.964900  0.369320  1.136552
    Cu  Cu8   0.536860  0.965130  0.623840  1.148638
    O   O25   0.598790  0.902660  0.378350  -0.605030
    O   O26   0.474780  0.027270  0.377440  -0.590168
    O   O27   0.595180  0.964790  0.377250  -0.611990
    O   O28   0.478380  0.965140  0.378540  -0.599501
    O   O29   0.478440  0.965250  0.615900  -0.609270
    O   O30   0.595270  0.964870  0.614610  -0.618049
    O   O31   0.474860  0.027420  0.614800  -0.596147
    O   O32   0.598840  0.902760  0.615710  -0.613980
    C   C13   0.626180  0.875240  0.497230  0.598669
    C   C14   0.447450  0.054790  0.495920  0.556812
    C   C15   0.621010  0.964730  0.495650  0.631620
    C   C16   0.452630  0.965300  0.497510  0.621376
    C   C17   0.632060  0.500070  0.500010  -0.161243
    C   C18   0.867800  0.500070  0.500030  -0.162743
    C   C19   0.655710  0.500010  0.380070  0.059888
    C   C20   0.702630  0.500010  0.378960  -0.099290
    C   C21   0.844160  0.500130  0.619970  0.059180
    C   C22   0.797240  0.500130  0.621080  -0.102387
    C   C23   0.844270  0.500020  0.380090  0.075808
    C   C24   0.797360  0.500010  0.378970  -0.485418
    C   C25   0.655600  0.500120  0.619950  0.069357
    C   C26   0.702510  0.500120  0.621070  -0.470315
    C   C27   0.726300  0.500070  0.500020  0.216756
    C   C28   0.773570  0.500070  0.500020  0.227294
    H   H1    0.639700  0.499970  0.296920  0.077539
    H   H2    0.860170  0.500170  0.703110  0.079135
    H   H3    0.860370  0.499980  0.296940  0.081369
    H   H4    0.781530  0.499970  0.295480  0.333126
    H   H5    0.639500  0.500160  0.703090  0.083384
    H   H6    0.718330  0.500160  0.704550  0.326450
    C   C29   0.367930  0.499940  0.500010  -0.166015
    C   C30   0.132180  0.499950  0.500030  -0.160432
    C   C31   0.344410  0.499870  0.380070  0.060725
    C   C32   0.297490  0.499870  0.378960  -0.103021
    C   C33   0.155700  0.500030  0.619970  0.059996
    C   C34   0.202610  0.500030  0.621080  -0.099138
    C   C35   0.155840  0.499880  0.380090  0.069510
    C   C36   0.202760  0.499880  0.378970  -0.470218
    C   C37   0.344270  0.500020  0.619950  0.078288
    C   C38   0.297350  0.500020  0.621070  -0.487764
    C   C39   0.273690  0.499950  0.500020  0.229839
    C   C40   0.226420  0.499950  0.500020  0.215539
    H   H7    0.360520  0.499820  0.296920  0.078559
    H   H8    0.139590  0.500080  0.703110  0.077350
    H   H9    0.139830  0.499830  0.296940  0.083273
    H   H10   0.218670  0.499830  0.295480  0.326469
    H   H11   0.360270  0.500070  0.703090  0.080692
    H   H12   0.281440  0.500070  0.704550  0.333873
    C   C41   0.210300  0.789910  0.597920  -0.234965
    C   C42   0.192270  0.807800  0.363860  -0.197681
    C   C43   0.240820  0.759220  0.327680  0.158476
    C   C44   0.275130  0.724960  0.432360  0.080703
    C   C45   0.324960  0.675090  0.402140  -0.231219
    C   C46   0.342990  0.657210  0.636190  -0.199358
    C   C47   0.294450  0.705790  0.672370  0.160513
    C   C48   0.260140  0.740040  0.567690  0.082227
    C   C49   0.177930  0.822230  0.500040  0.006347
    C   C50   0.357330  0.642780  0.500010  0.005274
    H   H13   0.199180  0.801110  0.702570  0.143409
    H   H14   0.165130  0.834910  0.286720  0.202102
    H   H15   0.336080  0.663900  0.297490  0.142062
    H   H16   0.370140  0.630090  0.713320  0.202622
    C   C51   0.641320  0.358630  0.500010  -0.114031
    C   C52   0.893700  0.106380  0.500040  -0.116836
    C   C53   0.666540  0.333380  0.380080  0.033718
    C   C54   0.716770  0.283180  0.378970  -0.099522
    C   C55   0.868480  0.131620  0.619980  0.037510
    C   C56   0.818250  0.181830  0.621090  -0.105092
    C   C57   0.868420  0.131620  0.380100  0.047750
    C   C58   0.818180  0.181820  0.378980  -0.481534
    C   C59   0.666610  0.333390  0.619960  0.043674
    C   C60   0.716840  0.283180  0.621080  -0.473081
    C   C61   0.742200  0.257790  0.500020  0.222272
    C   C62   0.792820  0.207210  0.500030  0.232425
    H   H17   0.649330  0.350560  0.296930  0.086758
    H   H18   0.885690  0.114450  0.703130  0.086330
    H   H19   0.885580  0.114440  0.296960  0.091579
    H   H20   0.801180  0.198790  0.295490  0.331752
    H   H21   0.649440  0.350570  0.703100  0.092320
    H   H22   0.733840  0.266210  0.704560  0.328716
    C   C63   0.711190  0.789830  0.400000  -0.233566
    C   C64   0.693300  0.807940  0.633920  -0.200410
    C   C65   0.741670  0.759390  0.670460  0.159243
    C   C66   0.775830  0.725040  0.566030  0.082393
    C   C67   0.825500  0.675200  0.596620  -0.233676
    C   C68   0.843390  0.657090  0.362690  -0.198873
    C   C69   0.795010  0.705630  0.326160  0.160144
    C   C70   0.760850  0.739990  0.430590  0.080536
    C   C71   0.678970  0.822240  0.497630  0.010795
    C   C72   0.857720  0.642790  0.498980  0.005445
    H   H23   0.700060  0.800930  0.295260  0.142498
    H   H24   0.666270  0.835120  0.710870  0.202449
    H   H25   0.836620  0.664100  0.701350  0.143301
    H   H26   0.870420  0.629900  0.285760  0.202697
    C   C73   0.140820  0.358640  0.501060  -0.120402
    C   C74   0.391860  0.106390  0.502870  -0.064936
    C   C75   0.165870  0.333510  0.621180  0.039481
    C   C76   0.215830  0.283310  0.622650  -0.109115
    C   C77   0.366810  0.131520  0.382750  0.000247
    C   C78   0.316860  0.181720  0.381270  -0.083808
    C   C79   0.366660  0.131750  0.622630  0.019305
    C   C80   0.316700  0.181950  0.623390  -0.463674
    C   C81   0.166020  0.333290  0.381300  0.050965
    C   C82   0.215980  0.283080  0.380550  -0.488542
    C   C83   0.241170  0.257810  0.501780  0.243960
    C   C84   0.291510  0.207220  0.502150  0.206475
    H   H27   0.148720  0.350760  0.704200  0.085714
    H   H28   0.383960  0.114270  0.299730  0.094480
    H   H29   0.383710  0.114640  0.705900  0.097996
    H   H30   0.299760  0.199000  0.706750  0.329416
    H   H31   0.148980  0.350390  0.298030  0.091452
    H   H32   0.232920  0.266040  0.297180  0.333689
    C   C85   0.166780  0.965490  0.498580  -0.161307
    C   C86   0.401540  0.966480  0.495940  -0.168469
    C   C87   0.190360  0.965650  0.618260  0.058307
    C   C88   0.237090  0.965840  0.618840  -0.103303
    C   C89   0.377950  0.966320  0.376270  0.067629
    C   C90   0.331230  0.966130  0.375680  -0.104646
    C   C91   0.378140  0.966440  0.616140  0.069464
    C   C92   0.331420  0.966240  0.617780  -0.473154
    C   C93   0.190180  0.965540  0.378380  0.077832
    C   C94   0.236900  0.965730  0.376740  -0.488556
    C   C95   0.260620  0.965890  0.497530  0.229177
    C   C96   0.307700  0.966080  0.497000  0.221467
    H   H33   0.174440  0.965620  0.701580  0.080456
    H   H34   0.393880  0.966350  0.292940  0.075908
    H   H35   0.394190  0.966540  0.699110  0.084026
    H   H36   0.315690  0.966210  0.701440  0.327997
    H   H37   0.174120  0.965430  0.295420  0.080826
    H   H38   0.252630  0.965760  0.293080  0.334466
    C   C97   0.903510  0.964510  0.501520  -0.163955
    C   C98   0.668770  0.963510  0.504110  -0.150833
    C   C99   0.880100  0.964480  0.621720  0.061285
    C   C100  0.833380  0.964280  0.623350  -0.102373
    C   C101  0.692190  0.963530  0.383910  0.043589
    C   C102  0.738900  0.963730  0.382280  -0.098871
    C   C103  0.692330  0.963680  0.623790  0.073986
    C   C104  0.739050  0.963880  0.624390  -0.489082
    C   C105  0.879950  0.964330  0.381840  0.074700
    C   C106  0.833230  0.964130  0.381240  -0.478144
    C   C107  0.809680  0.964110  0.502550  0.223559
    C   C108  0.762600  0.963910  0.503080  0.226195
    H   H39   0.896130  0.964600  0.704680  0.077032
    H   H40   0.676150  0.963410  0.300950  0.082351
    H   H41   0.676400  0.963660  0.707110  0.082323
    H   H42   0.754900  0.964000  0.707700  0.335198
    H   H43   0.895880  0.964350  0.298520  0.081615
    H   H44   0.817380  0.964020  0.297930  0.328558
    Cl  Cl1   0.731780  0.499940  0.225920  -0.082065
    Cl  Cl2   0.768090  0.500200  0.774120  -0.080733
    Cl  Cl3   0.268510  0.499780  0.225920  -0.080542
    Cl  Cl4   0.231600  0.500120  0.774120  -0.081878
    Cl  Cl5   0.747860  0.252070  0.225930  -0.082266
    Cl  Cl6   0.787160  0.212940  0.774130  -0.081447
    Cl  Cl7   0.246700  0.252340  0.775920  -0.080380
    Cl  Cl8   0.285990  0.212700  0.228010  -0.085438
    Cl  Cl9   0.266160  0.966040  0.771560  -0.080702
    Cl  Cl10  0.302160  0.965930  0.222960  -0.080289
    Cl  Cl11  0.804520  0.964250  0.776710  -0.081736
    Cl  Cl12  0.767760  0.963760  0.228920  -0.082562
    O   O33   0.278640  0.721690  0.816690  -0.454081
    H   H45   0.238960  0.761390  0.821250  0.340149
    O   O34   0.256630  0.743320  0.183360  -0.453776
    H   H46   0.296310  0.703620  0.178800  0.340691
    O   O35   0.779210  0.721400  0.181730  -0.454643
    H   H47   0.739670  0.761100  0.176880  0.340831
    O   O36   0.757460  0.743630  0.814890  -0.453009
    H   H48   0.797000  0.703930  0.819740  0.339515
