# Generated by REPEAT Assigner based on pymatgen
data_DB1-Zn2O8-AZO_A-DPAC_A_No308
_audit_creation_date              2022-05-24
_audit_creation_method            REPEAT_Assigner
_cell_length_a                    17.572400
_cell_length_b                    39.014300
_cell_length_c                    10.000000
_cell_angle_alpha                 90.000000
_cell_angle_beta                  90.000000
_cell_angle_gamma                 116.555000
_cell_volume                      6132.505948
_symmetry_space_group_name_H-M    P1
_symmetry_Int_Tables_number       1
loop_
    _symmetry_equiv_pos_site_id
    _symmetry_equiv_pos_as_xyz
    1  x,y,z
loop_
    _atom_site_type_symbol
    _atom_site_label
    _atom_site_fract_x
    _atom_site_fract_y
    _atom_site_fract_z
    _atom_type_partial_charge
    O   O1   0.390560  0.500370  0.635770  -0.596875
    O   O2   0.390330  0.500000  0.363960  -0.671426
    C   C1   0.351730  0.500140  0.499880  0.367328
    Zn  Zn1  0.500050  0.500110  0.665770  1.247802
    O   O3   0.555120  0.555160  0.363800  -0.548851
    O   O4   0.555310  0.555370  0.635620  -0.552201
    C   C2   0.574600  0.574740  0.499740  0.456822
    O   O5   0.609540  0.499700  0.364230  -0.597605
    O   O6   0.609630  0.499930  0.636040  -0.669030
    C   C3   0.648270  0.499830  0.500130  0.364835
    Zn  Zn2  0.499980  0.499890  0.334230  1.242682
    O   O7   0.444760  0.444840  0.636200  -0.556812
    O   O8   0.444860  0.444640  0.364380  -0.545794
    C   C4   0.425170  0.425260  0.500260  0.457239
    O   O9   0.887850  0.999820  0.266530  -0.595598
    O   O10  0.888320  0.000190  0.538330  -0.645574
    C   C5   0.849520  0.000110  0.402400  0.384201
    Zn  Zn3  0.997690  0.999910  0.236570  1.263679
    O   O11  0.943100  0.944860  0.538530  -0.630522
    O   O12  0.942910  0.944660  0.266720  -0.596590
    C   C6   0.923620  0.925280  0.402590  0.473674
    O   O13  0.107780  0.000150  0.538140  -0.580427
    O   O14  0.107450  0.999920  0.266340  -0.662901
    C   C7   0.146210  0.999960  0.402260  0.390679
    Zn  Zn4  0.998010  0.000130  0.568100  1.289046
    O   O15  0.052440  0.055180  0.266140  -0.605338
    O   O16  0.052910  0.055380  0.537950  -0.627448
    C   C8   0.071820  0.074760  0.402070  0.482949
    C   C9   0.881030  0.882510  0.402520  -0.009032
    C   C10  0.860440  0.861830  0.523640  -0.212473
    C   C11  0.820450  0.821660  0.523250  -0.076954
    C   C12  0.800240  0.801360  0.401930  0.224799
    C   C13  0.820540  0.821750  0.281370  -0.208378
    C   C14  0.860520  0.861900  0.281290  0.219025
    N   N1   0.759280  0.760220  0.398290  -0.007582
    N   N2   0.738940  0.739800  0.504050  -0.344094
    C   C15  0.677680  0.678270  0.620970  -0.489809
    C   C16  0.697980  0.698660  0.500400  0.558658
    C   C17  0.677770  0.678350  0.379080  -0.476926
    C   C18  0.637780  0.638190  0.378700  0.291430
    C   C19  0.617190  0.617510  0.499810  -0.241154
    C   C20  0.637700  0.638120  0.621040  0.320400
    H   H1   0.875470  0.876930  0.618230  0.175808
    H   H2   0.805150  0.806310  0.617150  0.067236
    H   H3   0.692990  0.693660  0.714910  0.168188
    H   H4   0.693070  0.693710  0.285190  0.174791
    C   C21  0.114950  0.117530  0.402130  -0.016800
    C   C22  0.135640  0.138180  0.523300  -0.206527
    C   C23  0.176140  0.178340  0.523040  -0.079558
    C   C24  0.196780  0.198670  0.401780  0.229132
    C   C25  0.176380  0.178320  0.281150  -0.215440
    C   C26  0.135900  0.138170  0.280960  0.222474
    N   N3   0.238270  0.239820  0.398260  -0.011454
    N   N4   0.258710  0.260200  0.504080  -0.341039
    C   C27  0.320600  0.321710  0.621180  -0.488787
    C   C28  0.300210  0.301350  0.500560  0.557626
    C   C29  0.320850  0.321680  0.379300  -0.477028
    C   C30  0.361350  0.361840  0.379030  0.288345
    C   C31  0.382040  0.382500  0.500210  -0.236892
    C   C32  0.361090  0.361850  0.621380  0.316885
    H   H5   0.120280  0.123050  0.617850  0.173906
    H   H6   0.191500  0.193680  0.616980  0.066508
    H   H7   0.304960  0.306300  0.715070  0.168015
    H   H8   0.305490  0.306340  0.285350  0.177428
    C   C33  0.271050  0.500100  0.499910  0.084990
    C   C34  0.229250  0.500190  0.621270  -0.194507
    C   C35  0.149080  0.500160  0.621660  -0.204070
    C   C36  0.108320  0.500020  0.499980  0.247655
    C   C37  0.148820  0.499930  0.378270  -0.286421
    C   C38  0.228990  0.499970  0.378590  0.294483
    C   C39  0.034030  0.499990  0.500020  -0.109761
    C   C40  0.965950  0.499960  0.500050  -0.109706
    C   C41  0.891660  0.499930  0.500060  0.247244
    C   C42  0.851140  0.500010  0.621770  -0.286113
    C   C43  0.770980  0.499980  0.621430  0.291724
    C   C44  0.728940  0.499860  0.500110  0.088036
    C   C45  0.770750  0.499780  0.378760  -0.193926
    C   C46  0.850920  0.499810  0.378380  -0.203778
    H   H9   0.257170  0.500290  0.711210  0.186009
    H   H10  0.121040  0.500230  0.711470  0.149124
    H   H11  0.120590  0.499830  0.288480  0.196601
    H   H12  0.879350  0.500100  0.711560  0.197378
    H   H13  0.742850  0.499690  0.288810  0.186257
    H   H14  0.878970  0.499750  0.288570  0.148646
    C   C47  0.767500  0.998720  0.402700  0.061016
    C   C48  0.725590  0.998700  0.281330  -0.179133
    C   C49  0.645620  0.998860  0.280910  -0.209964
    C   C50  0.605180  0.999050  0.402580  0.250508
    C   C51  0.645780  0.999080  0.524300  -0.282912
    C   C52  0.725760  0.998920  0.524010  0.294280
    C   C53  0.531060  0.999200  0.402510  -0.111822
    C   C54  0.463150  0.999340  0.402460  -0.111802
    C   C55  0.389030  0.999480  0.402410  0.252645
    C   C56  0.348430  0.999460  0.280690  -0.292113
    C   C57  0.268450  0.999620  0.281000  0.306637
    C   C58  0.226700  0.999800  0.402310  0.048524
    C   C59  0.268600  0.999820  0.523680  -0.172006
    C   C60  0.348580  0.999670  0.524090  -0.210332
    H   H15  0.753280  0.998560  0.191400  0.180050
    H   H16  0.617500  0.998830  0.191090  0.149900
    H   H17  0.617780  0.999230  0.614080  0.194279
    H   H18  0.376430  0.999330  0.190920  0.197109
    H   H19  0.240900  0.999950  0.613610  0.176871
    H   H20  0.376700  0.999690  0.613900  0.149454
    C   C61  0.882150  0.883610  0.145800  -0.374568
    H   H21  0.920010  0.876780  0.095880  0.091672
    H   H22  0.909020  0.910730  0.162060  0.180453
    H   H23  0.830780  0.876760  0.095690  0.087606
    C   C62  0.798580  0.799680  0.146580  0.061537
    H   H24  0.760590  0.806370  0.096420  0.047694
    H   H25  0.771740  0.772610  0.163710  -0.078202
    H   H26  0.849820  0.806390  0.096270  0.044697
    C   C63  0.616070  0.616410  0.756530  -0.162367
    H   H27  0.667470  0.623170  0.806470  0.043147
    H   H28  0.588970  0.589300  0.740280  0.083155
    H   H29  0.578410  0.623330  0.806630  0.048389
    C   C64  0.616230  0.616540  0.243080  -0.155121
    H   H30  0.578400  0.623390  0.193180  0.040032
    H   H31  0.589350  0.589420  0.259180  0.086272
    H   H32  0.667630  0.623410  0.193030  0.040979
    C   C65  0.114180  0.116480  0.145410  -0.376264
    H   H33  0.076620  0.123470  0.095340  0.094759
    H   H34  0.086940  0.089370  0.161580  0.183108
    H   H35  0.165560  0.123200  0.095480  0.084116
    C   C66  0.198830  0.200420  0.146440  0.082533
    H   H36  0.236660  0.193590  0.096420  0.045038
    H   H37  0.225980  0.227480  0.163650  -0.086205
    H   H38  0.147720  0.193860  0.095940  0.038395
    C   C67  0.382800  0.383540  0.756930  -0.160045
    H   H39  0.331400  0.376910  0.806690  0.046116
    H   H40  0.410280  0.410650  0.740750  0.083592
    H   H41  0.420160  0.376460  0.807170  0.044663
    C   C68  0.383370  0.383530  0.243480  -0.157444
    H   H42  0.421040  0.376540  0.193720  0.043783
    H   H43  0.410570  0.410640  0.259660  0.086650
    H   H44  0.332100  0.376810  0.193240  0.038125
    O   O17  0.269890  0.499860  0.245890  -0.597312
    H   H45  0.332310  0.499910  0.263320  0.451490
    O   O18  0.730060  0.500070  0.754130  -0.597781
    H   H46  0.667640  0.500030  0.736690  0.451408
    O   O19  0.766780  0.998960  0.656720  -0.592949
    H   H47  0.829020  0.998820  0.639320  0.441613
    O   O20  0.227430  0.999590  0.148290  -0.598105
    H   H48  0.165180  0.999730  0.165710  0.445616
