# Generated by REPEAT Assigner based on pymatgen
data_DB1-Zn2O8-ADC_A-BDC_A_No1118
_audit_creation_date              2022-05-24
_audit_creation_method            REPEAT_Assigner
_cell_length_a                    10.900600
_cell_length_b                    37.004800
_cell_length_c                    10.000000
_cell_angle_alpha                 90.000000
_cell_angle_beta                  90.000000
_cell_angle_gamma                 106.950000
_cell_volume                      3858.517457
_symmetry_space_group_name_H-M    P1
_symmetry_Int_Tables_number       1
loop_
    _symmetry_equiv_pos_site_id
    _symmetry_equiv_pos_as_xyz
    1  x,y,z
loop_
    _atom_site_type_symbol
    _atom_site_label
    _atom_site_fract_x
    _atom_site_fract_y
    _atom_site_fract_z
    _atom_type_partial_charge
    O   O1   0.323330  0.500330  0.635800  -0.636077
    O   O2   0.323140  0.499970  0.363990  -0.570899
    C   C1   0.260840  0.500090  0.499920  0.405572
    Zn  Zn1  0.500030  0.500110  0.665770  1.275770
    O   O3   0.554280  0.554380  0.363800  -0.613522
    O   O4   0.554500  0.554580  0.635620  -0.616541
    C   C2   0.573460  0.573690  0.499740  0.409365
    O   O5   0.676770  0.499740  0.364200  -0.492004
    O   O6   0.676820  0.499970  0.636010  -0.686422
    C   C3   0.739160  0.499880  0.500080  0.401762
    Zn  Zn2  0.500000  0.499890  0.334230  1.244376
    O   O7   0.445500  0.445620  0.636200  -0.618538
    O   O8   0.445750  0.445420  0.364380  -0.611353
    C   C4   0.426160  0.426320  0.500260  0.406624
    O   O9   0.819160  0.999790  0.273420  -0.636323
    O   O10  0.819740  0.000160  0.545230  -0.571828
    C   C5   0.757200  0.000070  0.409300  0.406224
    Zn  Zn3  0.996200  0.999910  0.243430  1.273489
    O   O11  0.942730  0.945640  0.545410  -0.611198
    O   O12  0.942510  0.945430  0.273590  -0.611060
    C   C6   0.923550  0.926330  0.409480  0.403808
    O   O13  0.173610  0.000180  0.544970  -0.491432
    O   O14  0.173180  0.999950  0.273170  -0.686429
    C   C7   0.235670  0.000000  0.409080  0.401278
    Zn  Zn4  0.996640  0.000130  0.574960  1.242685
    O   O15  0.049870  0.054390  0.272980  -0.615417
    O   O16  0.050550  0.054600  0.544800  -0.608784
    C   C8   0.068870  0.073700  0.408910  0.407759
    C   C9   0.881660  0.884140  0.409410  0.019374
    C   C10  0.861430  0.863750  0.530290  -0.134839
    C   C11  0.822140  0.824180  0.530400  -0.245410
    C   C12  0.801930  0.803830  0.409050  0.209077
    C   C13  0.822230  0.824280  0.288470  -0.319068
    C   C14  0.861480  0.863810  0.288450  0.327348
    C   C15  0.760110  0.761700  0.401490  -0.159094
    C   C16  0.736900  0.738320  0.507780  -0.158606
    C   C17  0.674780  0.675740  0.620780  -0.316070
    C   C18  0.695080  0.696190  0.500200  0.206085
    C   C19  0.674870  0.675840  0.378850  -0.239688
    C   C20  0.635580  0.636270  0.378940  -0.141851
    C   C21  0.615340  0.615880  0.499820  0.020227
    C   C22  0.635520  0.636200  0.620780  0.326238
    H   H1   0.876230  0.878660  0.624850  0.161828
    H   H2   0.808210  0.810140  0.626070  0.149064
    H   H3   0.807640  0.809590  0.193470  0.189369
    H   H4   0.689360  0.690420  0.715790  0.187611
    H   H5   0.688800  0.689880  0.283170  0.148505
    H   H6   0.620780  0.621360  0.284380  0.164019
    H   H7   0.748420  0.749930  0.302080  0.120835
    H   H8   0.748590  0.750090  0.607190  0.121916
    C   C23  0.111640  0.115890  0.408980  0.017609
    C   C24  0.132080  0.136250  0.529920  -0.140224
    C   C25  0.172190  0.175830  0.530150  -0.237300
    C   C26  0.193050  0.196200  0.408860  0.202572
    C   C27  0.172550  0.175780  0.288220  -0.314523
    C   C28  0.132470  0.136250  0.288080  0.326362
    C   C29  0.235760  0.238330  0.401430  -0.155610
    C   C30  0.259260  0.261690  0.507790  -0.160832
    C   C31  0.322490  0.324240  0.620980  -0.315976
    C   C32  0.301980  0.303820  0.500350  0.206473
    C   C33  0.322840  0.324190  0.379050  -0.242230
    C   C34  0.362950  0.363760  0.379270  -0.140347
    C   C35  0.383390  0.384130  0.500210  0.022811
    C   C36  0.362560  0.363780  0.621110  0.324626
    H   H9   0.116790  0.121320  0.624430  0.162518
    H   H10  0.186230  0.189840  0.625860  0.147889
    H   H11  0.187610  0.190490  0.193260  0.187069
    H   H12  0.307420  0.309530  0.715950  0.189259
    H   H13  0.308790  0.310180  0.283330  0.149054
    H   H14  0.378240  0.378690  0.284750  0.163779
    H   H15  0.247880  0.250130  0.302050  0.121125
    H   H16  0.247150  0.249890  0.607170  0.121204
    C   C37  0.871460  0.499930  0.500040  0.116960
    C   C38  0.128550  0.500040  0.499960  0.294505
    C   C39  0.936040  0.499860  0.380080  0.485371
    C   C40  0.063960  0.500110  0.619920  -0.297814
    C   C41  0.063700  0.499910  0.380040  -0.449574
    C   C42  0.936300  0.500060  0.619960  -0.250474
    H   H17  0.108100  0.500200  0.703050  0.165222
    H   H18  0.107660  0.499860  0.296890  0.140001
    H   H19  0.892350  0.500110  0.703120  0.182604
    C   C43  0.367780  0.999870  0.409110  0.116052
    C   C44  0.624510  0.999610  0.409160  0.294602
    C   C45  0.432490  0.999910  0.529060  0.485703
    C   C46  0.559800  0.999570  0.289210  -0.299315
    C   C47  0.559970  0.999780  0.529090  -0.449031
    C   C48  0.432320  0.999700  0.289180  -0.249441
    H   H20  0.603730  0.999460  0.206070  0.165592
    H   H21  0.604010  0.999810  0.612240  0.139957
    H   H22  0.388280  0.999680  0.206030  0.182769
    O   O17  0.882110  0.884600  0.156590  -0.603262
    H   H23  0.912790  0.915510  0.175280  0.416532
    O   O18  0.614890  0.615410  0.752640  -0.603060
    H   H24  0.584210  0.584510  0.733940  0.417960
    O   O19  0.111650  0.115490  0.156160  -0.601398
    H   H25  0.080290  0.084580  0.174750  0.415111
    O   O20  0.383380  0.384530  0.753030  -0.604455
    H   H26  0.414750  0.415440  0.734430  0.418879
    O   O21  0.876370  0.499740  0.267690  -0.835264
    Li  Li1  0.922110  0.499620  0.104050  0.883772
    O   O22  0.373100  0.000060  0.641460  -0.835388
    Li  Li2  0.419070  0.000160  0.805090  0.883818
