data_DB1-Cu2O8N2-AZO_A-irmof20_A_No312_repeat
_audit_creation_date              2024-02-23
_audit_creation_method            'Materials Studio'
_symmetry_space_group_name_H-M    'P1'
_symmetry_Int_Tables_number       1
_symmetry_cell_setting            triclinic
loop_
_symmetry_equiv_pos_as_xyz
  x,y,z
_cell_length_a                    15.6063
_cell_length_b                    17.2765
_cell_length_c                    12.5011
_cell_angle_alpha                 89.9196
_cell_angle_beta                  87.4608
_cell_angle_gamma                 95.7732
loop_
_atom_site_label
_atom_site_type_symbol
_atom_site_fract_x
_atom_site_fract_y
_atom_site_fract_z
_atom_site_U_iso_or_equiv
_atom_site_adp_type
_atom_site_occupancy
Cu1    Cu    0.41809   0.49671   0.50454   0.00000  Uiso   1.00
Cu2    Cu    0.58191   0.50328   0.49548   0.00000  Uiso   1.00
O1     O     0.42361   0.49698   0.64332   0.00000  Uiso   1.00
O2     O     0.42363   0.49711   0.36486   0.00000  Uiso   1.00
O3     O     0.42996   0.59821   0.50362   0.00000  Uiso   1.00
O4     O     0.41728   0.39589   0.50456   0.00000  Uiso   1.00
O5     O     0.57004   0.40178   0.49636   0.00000  Uiso   1.00
O6     O     0.58272   0.60410   0.49549   0.00000  Uiso   1.00
O7     O     0.57639   0.50312   0.35658   0.00000  Uiso   1.00
O8     O     0.57637   0.50285   0.63515   0.00000  Uiso   1.00
C1     C     0.49999   0.49993   0.70063   0.00000  Uiso   1.00
C2     C     0.50001   0.50006   0.29938   0.00000  Uiso   1.00
C3     C     0.50914   0.64576   0.49942   0.00000  Uiso   1.00
C4     C     0.49086   0.35423   0.50060   0.00000  Uiso   1.00
N1     N     0.29635   0.49183   0.51127   0.00000  Uiso   1.00
C5     C     0.25306   0.53979   0.44509   0.00000  Uiso   1.00
C6     C     0.16283   0.53604   0.45026   0.00000  Uiso   1.00
C7     C     0.11406   0.48433   0.52162   0.00000  Uiso   1.00
C8     C     0.15670   0.43657   0.58752   0.00000  Uiso   1.00
C9     C     0.24688   0.44013   0.58261   0.00000  Uiso   1.00
N2     N     0.02154   0.47916   0.52876   0.00000  Uiso   1.00
N3     N     0.97845   0.52083   0.47126   0.00000  Uiso   1.00
C10    C     0.84330   0.56342   0.41249   0.00000  Uiso   1.00
C11    C     0.88594   0.51566   0.47840   0.00000  Uiso   1.00
C12    C     0.83717   0.46395   0.54975   0.00000  Uiso   1.00
C13    C     0.74694   0.46020   0.55492   0.00000  Uiso   1.00
N4     N     0.70365   0.50816   0.48874   0.00000  Uiso   1.00
C14    C     0.75311   0.55986   0.41740   0.00000  Uiso   1.00
H1     H     0.28945   0.58004   0.38955   0.00000  Uiso   1.00
H2     H     0.13079   0.57329   0.39887   0.00000  Uiso   1.00
H3     H     0.11969   0.39656   0.64273   0.00000  Uiso   1.00
H4     H     0.88030   0.60343   0.35729   0.00000  Uiso   1.00
H5     H     0.86921   0.42670   0.60114   0.00000  Uiso   1.00
H6     H     0.71055   0.41994   0.61046   0.00000  Uiso   1.00
C15    C     0.48542   0.26748   0.50086   0.00000  Uiso   1.00
C16    C     0.56076   0.22869   0.49684   0.00000  Uiso   1.00
C17    C     0.55544   0.14721   0.49710   0.00000  Uiso   1.00
C18    C     0.47479   0.10287   0.50138   0.00000  Uiso   1.00
C19    C     0.39976   0.14108   0.50539   0.00000  Uiso   1.00
C20    C     0.40478   0.22251   0.50514   0.00000  Uiso   1.00
N5     N     0.46725   0.01932   0.50176   0.00000  Uiso   1.00
N6     N     0.53275   0.98067   0.49826   0.00000  Uiso   1.00
C21    C     0.60024   0.85891   0.49463   0.00000  Uiso   1.00
C22    C     0.52521   0.89712   0.49864   0.00000  Uiso   1.00
C23    C     0.44456   0.85278   0.50292   0.00000  Uiso   1.00
C24    C     0.43924   0.77130   0.50318   0.00000  Uiso   1.00
C25    C     0.51458   0.73251   0.49915   0.00000  Uiso   1.00
C26    C     0.59522   0.77748   0.49487   0.00000  Uiso   1.00
H7     H     0.62355   0.26178   0.49351   0.00000  Uiso   1.00
H8     H     0.61394   0.11850   0.49398   0.00000  Uiso   1.00
H9     H     0.33736   0.10743   0.50870   0.00000  Uiso   1.00
H10    H     0.66264   0.89256   0.49132   0.00000  Uiso   1.00
H11    H     0.38606   0.88149   0.50604   0.00000  Uiso   1.00
H12    H     0.37645   0.73821   0.50651   0.00000  Uiso   1.00
C27    C     0.43173   0.49735   0.89313   0.00000  Uiso   1.00
S1     S     0.59851   0.50375   0.87894   0.00000  Uiso   1.00
C28    C     0.56827   0.50264   0.10688   0.00000  Uiso   1.00
H13    H     0.62538   0.50484   0.12612   0.00000  Uiso   1.00
S2     S     0.40149   0.49623   0.12107   0.00000  Uiso   1.00
C29    C     0.49999   0.49996   0.81999   0.00000  Uiso   1.00
C30    C     0.50001   0.50003   0.18002   0.00000  Uiso   1.00
C31    C     0.54399   0.50169   0.99757   0.00000  Uiso   1.00
C32    C     0.45601   0.49830   0.00244   0.00000  Uiso   1.00
O9     O     0.28471   0.39516   0.64466   0.00000  Uiso   1.00
Li1    Li    0.24683   0.32682   0.73897   0.00000  Uiso   1.00
O10    O     0.71529   0.60483   0.35535   0.00000  Uiso   1.00
Li2    Li    0.75317   0.67317   0.26105   0.00000  Uiso   1.00
O11    O     0.33416   0.25639   0.50891   0.00000  Uiso   1.00
Li3    Li    0.22740   0.22178   0.51459   0.00000  Uiso   1.00
O12    O     0.66584   0.74360   0.49110   0.00000  Uiso   1.00
Li4    Li    0.77260   0.77821   0.48543   0.00000  Uiso   1.00
Cl1    Cl    0.32372   0.49319   0.85673   0.00000  Uiso   1.00
