# generated using pymatgen
data_Al2H16C23(SO5)2
_symmetry_space_group_name_H-M   'P 1'
_cell_length_a   6.60720000
_cell_length_b   10.73040000
_cell_length_c   12.60760000
_cell_angle_alpha   93.75930000
_cell_angle_beta   105.19100000
_cell_angle_gamma   72.06890000
_symmetry_Int_Tables_number   1
_chemical_formula_structural   Al2H16C23(SO5)2
_chemical_formula_sum   'Al2 H16 C23 S2 O10'
_cell_volume   820.60831258
_cell_formula_units_Z   1
loop_
 _symmetry_equiv_pos_site_id
 _symmetry_equiv_pos_as_xyz
  1  'x, y, z'
loop_
 _atom_site_type_symbol
 _atom_site_label
 _atom_site_symmetry_multiplicity
 _atom_site_fract_x
 _atom_site_fract_y
 _atom_site_fract_z
 _atom_site_occupancy
  Al  Al1  1  0.00000000  0.50000000  0.50000000  1
  Al  Al2  1  0.50000000  0.50000000  0.50000000  1
  H  H1  1  0.84944000  0.39181000  0.59069000  1
  H  H2  1  0.15056000  0.60819000  0.40932000  1
  H  H3  1  0.86275000  0.50089000  0.13671000  1
  H  H4  1  0.57362000  0.22627000  0.36243000  1
  H  H5  1  0.78598000  0.12294000  0.24183000  1
  H  H6  1  0.79488000  0.78133000  0.36000000  1
  H  H7  1  0.90120000  0.89123000  0.24056000  1
  H  H8  1  0.95358000  0.57561000  0.80325000  1
  H  H9  1  0.98383000  0.49922000  0.91092000  1
  H  H10  1  0.03180000  0.42204000  0.80580000  1
  H  H11  1  0.42905000  0.87721000  0.72304000  1
  H  H12  1  0.43163000  0.76550000  0.63634000  1
  H  H13  1  0.21419000  0.88000000  0.63203000  1
  H  H14  1  0.09817000  0.11303000  0.63308000  1
  H  H15  1  0.20271000  0.22696000  0.63910000  1
  H  H16  1  0.31276000  0.11024000  0.72430000  1
  C  C1  1  0.36541000  0.27066000  0.50148000  1
  C  C2  1  0.34722000  0.49799000  0.69244000  1
  C  C3  1  0.63459000  0.72934000  0.49852000  1
  C  C4  1  0.65278000  0.50201000  0.30757000  1
  C  C5  1  0.28299000  0.49926000  0.88632000  1
  C  C6  1  0.71701000  0.50074000  0.11368000  1
  C  C7  1  0.40814000  0.49879000  0.81506000  1
  C  C8  1  0.59187000  0.50121000  0.18494000  1
  C  C9  1  0.60344000  0.50000000  0.00000000  1
  C  C10  1  0.39656000  0.50000000  0.00000000  1
  C  C11  1  0.43648000  0.12774000  0.50070000  1
  C  C12  1  0.56428000  0.06266000  0.42918000  1
  C  C13  1  0.37535000  0.05876000  0.57149000  1
  C  C14  1  0.62133000  0.13539000  0.36006000  1
  C  C15  1  0.74822000  0.07437000  0.28773000  1
  C  C16  1  0.56352000  0.87226000  0.49930000  1
  C  C17  1  0.43572000  0.93734000  0.57082000  1
  C  C18  1  0.62466000  0.94124000  0.42851000  1
  C  C19  1  0.75215000  0.87232000  0.35862000  1
  C  C20  1  0.81639000  0.93727000  0.28698000  1
  C  C21  1  0.03985000  0.49901000  0.84791000  1
  C  C22  1  0.37152000  0.85739000  0.64791000  1
  C  C23  1  0.23374000  0.13447000  0.64943000  1
  S  S1  1  0.67269000  0.49922000  0.88123000  1
  S  S2  1  0.32731000  0.50077000  0.11877000  1
  O  O1  1  0.16199000  0.33041000  0.50181000  1
  O  O2  1  0.49603000  0.49767000  0.64230000  1
  O  O3  1  0.49059000  0.66959000  0.49819000  1
  O  O4  1  0.85139000  0.50234000  0.35770000  1
  O  O5  1  0.83801000  0.66959000  0.49819000  1
  O  O6  1  0.50397000  0.50234000  0.35770000  1
  O  O7  1  0.50941000  0.33041000  0.50181000  1
  O  O8  1  0.14861000  0.49767000  0.64230000  1
  O  O9  1  0.78744000  0.45927000  0.53415000  1
  O  O10  1  0.21256000  0.54073000  0.46586000  1
