# Generated by REPEAT Assigner based on pymatgen
data_DB1-Zn2O8N2-ADC_A-irmof6_A_No156
_audit_creation_date              2022-05-24
_audit_creation_method            REPEAT_Assigner
_cell_length_a                    16.735800
_cell_length_b                    17.722000
_cell_length_c                    11.005200
_cell_angle_alpha                 89.852100
_cell_angle_beta                  92.085000
_cell_angle_gamma                 84.915100
_cell_volume                      3248.999066
_symmetry_space_group_name_H-M    P1
_symmetry_Int_Tables_number       1
loop_
    _symmetry_equiv_pos_site_id
    _symmetry_equiv_pos_as_xyz
    1  x,y,z
loop_
    _atom_site_type_symbol
    _atom_site_label
    _atom_site_fract_x
    _atom_site_fract_y
    _atom_site_fract_z
    _atom_type_partial_charge
    O   O1   0.587330  0.387870  0.506000  -0.597605
    O   O2   0.424380  0.393790  0.495840  -0.592796
    C   C1   0.507960  0.352360  0.500900  0.446559
    Zn  Zn1  0.599380  0.496410  0.505830  0.954763
    O   O3   0.418370  0.502990  0.670420  -0.570234
    O   O4   0.581330  0.497180  0.680050  -0.284210
    C   C2   0.499880  0.500050  0.737000  0.329222
    O   O5   0.412660  0.612150  0.494230  -0.581761
    O   O6   0.575620  0.606230  0.503940  -0.590367
    C   C3   0.492040  0.647660  0.499010  0.379364
    Zn  Zn2  0.400620  0.503610  0.494180  1.024124
    O   O7   0.581630  0.496880  0.329590  -0.586882
    O   O8   0.418660  0.502970  0.319960  -0.607663
    C   C4   0.500130  0.499720  0.263010  0.593485
    N   N1   0.283700  0.507850  0.487340  0.002536
    C   C5   0.242940  0.461090  0.562960  -0.079116
    C   C6   0.158960  0.464070  0.558140  -0.203846
    C   C7   0.113260  0.514110  0.477200  0.256297
    C   C8   0.154150  0.560740  0.401790  -0.258904
    C   C9   0.238050  0.557740  0.406660  -0.042310
    C   C10  0.023700  0.520350  0.467120  -0.119283
    C   C11  0.976290  0.479660  0.532930  -0.098532
    C   C12  0.845840  0.439270  0.598250  -0.302146
    C   C13  0.886740  0.485890  0.522840  0.266361
    C   C14  0.841040  0.535940  0.441890  -0.243867
    C   C15  0.757060  0.538920  0.437070  -0.049631
    N   N2   0.716290  0.492170  0.512690  -0.030100
    C   C16  0.761940  0.442280  0.593380  0.064883
    H   H1   0.276550  0.422170  0.625920  0.162435
    H   H2   0.131180  0.426910  0.618250  0.139541
    H   H3   0.121010  0.599830  0.338570  0.165147
    H   H4   0.267710  0.594390  0.347380  0.158281
    H   H5   0.878970  0.400180  0.661470  0.169137
    H   H6   0.868820  0.573110  0.381780  0.146169
    H   H7   0.723460  0.577850  0.374120  0.152750
    H   H8   0.732280  0.405630  0.652650  0.120106
    C   C17  0.512570  0.267820  0.501060  0.084945
    C   C18  0.442300  0.229550  0.496820  -0.155178
    C   C19  0.446530  0.150260  0.496970  -0.171653
    C   C20  0.521480  0.106880  0.501380  0.192505
    C   C21  0.591560  0.145270  0.505610  -0.235651
    C   C22  0.587280  0.224490  0.505460  -0.108077
    C   C23  0.530580  0.022300  0.501810  -0.103904
    C   C24  0.469390  0.977720  0.498100  -0.102699
    C   C25  0.408430  0.854750  0.494300  -0.229543
    C   C26  0.478490  0.893140  0.498530  0.189944
    C   C27  0.553450  0.849770  0.502940  -0.167982
    C   C28  0.557680  0.770470  0.503090  -0.179498
    C   C29  0.487420  0.732200  0.498850  0.137291
    C   C30  0.412710  0.775520  0.494450  -0.133925
    H   H9   0.384000  0.261460  0.493390  0.116732
    H   H10  0.390690  0.124190  0.493600  0.136038
    H   H11  0.650100  0.113800  0.509050  0.162509
    H   H12  0.642350  0.252330  0.508780  0.108632
    H   H13  0.349880  0.886210  0.490850  0.162021
    H   H14  0.609290  0.875830  0.506300  0.136547
    H   H15  0.615990  0.738570  0.506520  0.129052
    H   H16  0.357640  0.747680  0.491130  0.115383
    C   C31  0.500070  0.499800  0.132680  -0.129515
    C   C32  0.499940  0.499960  0.867330  0.112114
    C   C33  0.436720  0.502090  0.062780  0.149452
    C   C34  0.563290  0.497670  0.937230  -0.189815
    C   C35  0.436660  0.502180  0.930340  0.028439
    C   C36  0.563360  0.497580  0.069670  -0.105326
    C   C37  0.346670  0.505300  0.055060  -0.102904
    C   C38  0.346610  0.505380  0.928250  -0.043579
    H   H17  0.622500  0.495490  0.114400  0.086301
    H   H18  0.317510  0.555880  0.098130  0.045704
    H   H19  0.323390  0.456560  0.099330  0.050402
    H   H20  0.322800  0.456680  0.882290  0.039294
    H   H21  0.317900  0.555970  0.881160  0.036208
    C   C39  0.984750  0.578860  0.372480  -0.047314
    H   H22  0.953910  0.553380  0.312670  0.046823
    H   H23  0.026030  0.603180  0.333400  0.015353
    H   H24  0.950210  0.616190  0.412860  0.053383
    C   C40  0.015240  0.421140  0.627570  -0.031633
    H   H25  0.049590  0.383680  0.587140  0.040453
    H   H26  0.973950  0.396980  0.666910  0.017867
    H   H27  0.046280  0.446580  0.687180  0.043509
    C   C41  0.618250  0.985250  0.506980  -0.007345
    H   H28  0.627030  0.954310  0.578780  0.033507
    H   H29  0.654740  0.024120  0.509030  -0.002866
    H   H30  0.627200  0.954410  0.436340  0.030488
    C   C42  0.381720  0.014760  0.492920  -0.012687
    H   H31  0.372700  0.045420  0.563740  0.033124
    H   H32  0.345230  0.975890  0.490510  -0.002471
    H   H33  0.373010  0.045880  0.421310  0.033653
    C   C43  0.645850  0.494750  0.883740  0.509561
    O   O9   0.704870  0.525620  0.943800  -0.502480
    O   O10  0.657180  0.465580  0.783680  -0.346621
    H   H34  0.686630  0.538180  0.028860  0.343522
