# Generated by REPEAT Assigner based on pymatgen
data_DB1-Cu2O8N2-ADC_A-irmof10_A_No45
_audit_creation_date              2022-05-24
_audit_creation_method            REPEAT_Assigner
_cell_length_a                    23.014600
_cell_length_b                    29.891500
_cell_length_c                    15.849400
_cell_angle_alpha                 92.322000
_cell_angle_beta                  95.520200
_cell_angle_gamma                 49.578600
_cell_volume                      8258.821071
_symmetry_space_group_name_H-M    P1
_symmetry_Int_Tables_number       1
loop_
    _symmetry_equiv_pos_site_id
    _symmetry_equiv_pos_as_xyz
    1  x,y,z
loop_
    _atom_site_type_symbol
    _atom_site_label
    _atom_site_fract_x
    _atom_site_fract_y
    _atom_site_fract_z
    _atom_type_partial_charge
    Cu  Cu1  0.497030  0.499750  0.419400  1.074730
    Cu  Cu2  0.502960  0.500250  0.580590  0.747701
    O   O1   0.397650  0.549480  0.419170  -0.447529
    O   O2   0.597010  0.450080  0.430520  -0.647513
    O   O3   0.497450  0.557950  0.424850  -0.445400
    O   O4   0.497220  0.441610  0.424840  -0.395383
    O   O5   0.502570  0.442040  0.575150  -0.594483
    O   O6   0.502750  0.558400  0.575160  -0.484189
    O   O7   0.602420  0.450540  0.580830  -0.311463
    O   O8   0.402980  0.549910  0.569480  -0.559826
    C   C1   0.356360  0.571640  0.491830  0.488900
    C   C2   0.643630  0.428360  0.508170  0.444250
    C   C3   0.500100  0.583850  0.500010  0.463440
    C   C4   0.499890  0.416150  0.499990  0.500339
    Cu  Cu3  0.502700  0.000380  0.580600  0.900627
    Cu  Cu4  0.497260  0.999640  0.419440  0.964570
    O   O9   0.402920  0.049820  0.569130  -0.448496
    O   O10  0.602310  0.950670  0.581220  -0.501461
    O   O11  0.502730  0.941950  0.575180  -0.543586
    O   O12  0.502490  0.058530  0.575170  -0.370581
    O   O13  0.497250  0.058050  0.424860  -0.634893
    O   O14  0.497430  0.941500  0.424870  -0.537882
    O   O15  0.597120  0.950100  0.430920  -0.477799
    O   O16  0.397650  0.049370  0.418820  -0.370998
    C   C5   0.356330  0.071430  0.491310  0.326529
    C   C6   0.643630  0.928590  0.508730  0.501384
    C   C7   0.500080  0.916050  0.500020  0.565331
    C   C8   0.499870  0.083970  0.500010  0.431479
    N   N1   0.492630  0.499370  0.299620  -0.337391
    C   C9   0.539970  0.503400  0.256740  0.155543
    C   C10  0.536780  0.503120  0.168030  -0.237092
    C   C11  0.485920  0.498800  0.119580  0.090294
    C   C12  0.438710  0.494790  0.162600  -0.069071
    C   C13  0.441930  0.495070  0.251230  0.453772
    C   C14  0.479420  0.498250  0.024960  -0.148329
    C   C15  0.520590  0.501750  0.975040  -0.251931
    C   C16  0.561290  0.505210  0.837390  0.075699
    C   C17  0.514080  0.501200  0.880420  0.111174
    C   C18  0.463220  0.496880  0.831970  -0.177036
    C   C19  0.460030  0.496600  0.743260  -0.119861
    N   N2   0.507360  0.500630  0.700370  0.111205
    C   C20  0.558060  0.504930  0.748760  -0.033337
    H   H1   0.579520  0.506760  0.292370  0.121529
    H   H2   0.574410  0.506320  0.138810  0.115915
    H   H3   0.399000  0.491420  0.127460  -0.003762
    H   H4   0.601000  0.508580  0.872530  0.002482
    H   H5   0.425580  0.493680  0.861190  0.117037
    H   H6   0.420480  0.493240  0.707630  0.190594
    H   H7   0.438150  0.494750  0.996250  0.180380
    H   H8   0.561850  0.505250  0.003740  0.198305
    C   C21  0.500100  0.632080  0.500010  -0.043294
    C   C22  0.500090  0.867830  0.500020  -0.116039
    C   C23  0.497420  0.655380  0.424060  0.077176
    C   C24  0.497390  0.702290  0.423360  -0.163791
    C   C25  0.502760  0.844530  0.575970  0.239982
    C   C26  0.502790  0.797610  0.576680  -0.279640
    C   C27  0.497410  0.843940  0.424070  0.021461
    C   C28  0.497390  0.797020  0.423360  -0.313516
    C   C29  0.502770  0.655960  0.575960  0.111993
    C   C30  0.502790  0.702880  0.576670  -0.311728
    C   C31  0.500090  0.726320  0.500020  0.111955
    C   C32  0.500090  0.773590  0.500020  0.179768
    H   H9   0.495530  0.717950  0.370490  0.101315
    H   H10  0.504660  0.781960  0.629540  0.147004
    H   H11  0.495550  0.859790  0.371420  0.081601
    H   H12  0.495520  0.780960  0.370490  0.185106
    H   H13  0.504630  0.640110  0.628610  -0.022106
    H   H14  0.504660  0.718950  0.629540  0.181076
    C   C33  0.499890  0.367930  0.500000  -0.143416
    C   C34  0.499870  0.132190  0.500010  0.069037
    C   C35  0.497180  0.344050  0.424040  0.372127
    C   C36  0.497150  0.297140  0.423340  -0.366408
    C   C37  0.502580  0.156060  0.575960  0.012058
    C   C38  0.502600  0.202980  0.576670  -0.102096
    C   C39  0.497170  0.155500  0.424060  -0.081862
    C   C40  0.497150  0.202410  0.423350  -0.226549
    C   C41  0.502590  0.344620  0.575950  -0.062817
    C   C42  0.502610  0.297710  0.576660  -0.311254
    C   C43  0.499880  0.273690  0.500000  0.208841
    C   C44  0.499880  0.226420  0.500000  0.071060
    H   H15  0.495270  0.281080  0.370480  0.163189
    H   H16  0.504490  0.219040  0.629530  0.074915
    H   H17  0.495290  0.139250  0.371400  0.104546
    H   H18  0.495270  0.218070  0.370480  0.164704
    H   H19  0.504470  0.360870  0.628600  0.132177
    H   H20  0.504490  0.282040  0.629530  0.196265
    C   C45  0.729160  0.885900  0.513590  0.013943
    C   C46  0.767640  0.865120  0.439360  -0.037513
    C   C47  0.847860  0.825070  0.443810  -0.252532
    C   C48  0.891970  0.804630  0.522990  0.274940
    C   C49  0.853360  0.825470  0.597020  -0.189764
    C   C50  0.773210  0.865480  0.592510  0.028092
    C   C51  0.977550  0.762010  0.532580  -0.254026
    C   C52  0.022440  0.738220  0.467940  -0.232878
    C   C53  0.146640  0.674760  0.403520  -0.302526
    C   C54  0.108020  0.695600  0.477550  0.295463
    C   C55  0.152130  0.675160  0.556730  -0.249023
    C   C56  0.232350  0.635110  0.561190  -0.094156
    C   C57  0.270840  0.614330  0.486960  -0.057968
    C   C58  0.226780  0.634750  0.408030  0.208380
    H   H21  0.735190  0.880090  0.377770  0.082086
    H   H22  0.874050  0.810760  0.384820  0.140020
    H   H23  0.885370  0.810720  0.658860  0.096883
    H   H24  0.114630  0.689500  0.341670  0.123033
    H   H25  0.125940  0.689470  0.615720  0.142160
    H   H26  0.264790  0.620140  0.622780  0.126971
    H   H27  0.003750  0.750220  0.596890  0.171093
    H   H28  0.996240  0.750010  0.403630  0.171106
    C   C59  0.270840  0.113730  0.486490  0.038509
    C   C60  0.232350  0.134580  0.560720  0.005011
    C   C61  0.152130  0.174670  0.556250  -0.192907
    C   C62  0.108030  0.195090  0.477070  0.214192
    C   C63  0.146650  0.174180  0.403050  -0.205381
    C   C64  0.226790  0.134130  0.407560  0.048733
    C   C65  0.022450  0.237750  0.467460  -0.192502
    C   C66  0.977550  0.261600  0.532100  -0.279412
    C   C67  0.853350  0.325180  0.596510  -0.221041
    C   C68  0.891970  0.304270  0.522490  0.293169
    C   C69  0.847870  0.324690  0.443300  -0.262340
    C   C70  0.767650  0.364780  0.438830  -0.088367
    C   C71  0.729160  0.385630  0.513050  0.026730
    C   C72  0.773200  0.365230  0.591980  0.080836
    H   H29  0.264800  0.119620  0.622310  0.044255
    H   H30  0.125930  0.189030  0.615240  0.102378
    H   H31  0.114640  0.188910  0.341200  0.104127
    H   H32  0.885350  0.310450  0.658360  0.092654
    H   H33  0.874070  0.310320  0.384310  0.148544
    H   H34  0.735210  0.379730  0.377240  0.118184
    H   H35  0.996250  0.249520  0.403160  0.157551
    H   H36  0.003750  0.249840  0.596410  0.194010
    N   N3   0.436090  0.036120  0.696210  -0.174685
    C   C73  0.486650  0.983340  0.744850  0.077549
    C   C74  0.489720  0.983680  0.833550  -0.233687
    C   C75  0.442070  0.037050  0.876210  0.257851
    C   C76  0.391620  0.089690  0.827450  -0.252605
    C   C77  0.388600  0.089320  0.738830  0.274901
    C   C78  0.442220  0.040770  0.970450  -0.245923
    C   C79  0.487100  0.994420  0.025440  -0.241518
    C   C80  0.537690  0.945500  0.168450  -0.172485
    C   C81  0.487240  0.998140  0.119680  0.237543
    C   C82  0.439600  0.051510  0.162340  -0.186644
    C   C83  0.442660  0.051850  0.251040  0.121033
    N   N4   0.493220  0.999080  0.299680  -0.120546
    C   C84  0.540710  0.945880  0.257060  0.101226
    H   H37  0.523850  0.941770  0.713720  0.218622
    H   H38  0.529580  0.941890  0.867320  0.134849
    H   H39  0.354230  0.131460  0.858060  0.061560
    H   H40  0.575090  0.903730  0.137840  0.057664
    H   H41  0.399740  0.093300  0.128570  0.094711
    H   H42  0.405460  0.093430  0.282160  0.116665
    H   H43  0.402820  0.084440  0.994420  0.204489
    H   H44  0.526510  0.950740  0.001470  0.187834
    Br  Br1  0.370740  0.489020  0.311080  0.013381
    Br  Br2  0.629250  0.510980  0.688910  -0.006685
    Br  Br3  0.719530  0.894630  0.704130  -0.128133
    Br  Br4  0.280470  0.605590  0.296420  -0.248628
    Br  Br5  0.280490  0.104880  0.295960  -0.157072
    Br  Br6  0.719500  0.394480  0.703590  -0.162767
    Br  Br7  0.312880  0.168520  0.670350  -0.078998
    Br  Br8  0.616430  0.866670  0.325550  -0.066062
    Cl  Cl1  0.494020  0.625570  0.327530  -0.133426
    Cl  Cl2  0.506170  0.874340  0.672500  -0.221024
    Cl  Cl3  0.493750  0.373130  0.327520  -0.295856
    Cl  Cl4  0.506010  0.126990  0.672490  -0.110604
