data_DB1-Cu2O8N2-ADC_A-irmof6_A_No475_repeat
_audit_creation_date              2024-02-23
_audit_creation_method            'Materials Studio'
_symmetry_space_group_name_H-M    'P1'
_symmetry_Int_Tables_number       1
_symmetry_cell_setting            triclinic
loop_
_symmetry_equiv_pos_as_xyz
  x,y,z
_cell_length_a                    15.8494
_cell_length_b                    17.5218
_cell_length_c                    10.8046
_cell_angle_alpha                 89.9216
_cell_angle_beta                  87.6748
_cell_angle_gamma                 95.2900
loop_
_atom_site_label
_atom_site_type_symbol
_atom_site_fract_x
_atom_site_fract_y
_atom_site_fract_z
_atom_site_U_iso_or_equiv
_atom_site_adp_type
_atom_site_occupancy
Cu1    Cu    0.41940   0.49703   0.50481   0.00000  Uiso   1.00
Cu2    Cu    0.58060   0.50296   0.49521   0.00000  Uiso   1.00
O1     O     0.42483   0.49729   0.66541   0.00000  Uiso   1.00
O2     O     0.42485   0.49740   0.34323   0.00000  Uiso   1.00
O3     O     0.43056   0.59702   0.50384   0.00000  Uiso   1.00
O4     O     0.41912   0.39767   0.50480   0.00000  Uiso   1.00
O5     O     0.56943   0.40297   0.49614   0.00000  Uiso   1.00
O6     O     0.58087   0.60232   0.49526   0.00000  Uiso   1.00
O7     O     0.57517   0.50281   0.33447   0.00000  Uiso   1.00
O8     O     0.57514   0.50256   0.65679   0.00000  Uiso   1.00
C1     C     0.49999   0.49994   0.73213   0.00000  Uiso   1.00
C2     C     0.50001   0.50005   0.26788   0.00000  Uiso   1.00
C3     C     0.50824   0.64363   0.49942   0.00000  Uiso   1.00
C4     C     0.49176   0.35636   0.50060   0.00000  Uiso   1.00
N1     N     0.29962   0.49263   0.51194   0.00000  Uiso   1.00
C5     C     0.25676   0.53995   0.43529   0.00000  Uiso   1.00
C6     C     0.16805   0.53676   0.44046   0.00000  Uiso   1.00
C7     C     0.11957   0.48593   0.52280   0.00000  Uiso   1.00
C8     C     0.16257   0.43873   0.59923   0.00000  Uiso   1.00
C9     C     0.25120   0.44196   0.59401   0.00000  Uiso   1.00
C10    C     0.02495   0.47942   0.53333   0.00000  Uiso   1.00
C11    C     0.97505   0.52058   0.46666   0.00000  Uiso   1.00
C12    C     0.83742   0.56126   0.40077   0.00000  Uiso   1.00
C13    C     0.88043   0.51407   0.47721   0.00000  Uiso   1.00
C14    C     0.83195   0.46324   0.55955   0.00000  Uiso   1.00
C15    C     0.74324   0.46004   0.56472   0.00000  Uiso   1.00
N2     N     0.70038   0.50736   0.48808   0.00000  Uiso   1.00
C16    C     0.74879   0.55804   0.40600   0.00000  Uiso   1.00
H1     H     0.29241   0.57948   0.37126   0.00000  Uiso   1.00
H2     H     0.13885   0.57438   0.37952   0.00000  Uiso   1.00
H3     H     0.12741   0.39904   0.66353   0.00000  Uiso   1.00
H4     H     0.87258   0.60096   0.33647   0.00000  Uiso   1.00
H5     H     0.86115   0.42561   0.62049   0.00000  Uiso   1.00
H6     H     0.70759   0.42051   0.62875   0.00000  Uiso   1.00
H7     H     0.99622   0.43818   0.60014   0.00000  Uiso   1.00
H8     H     0.00378   0.56183   0.39985   0.00000  Uiso   1.00
C17    C     0.48685   0.27084   0.50085   0.00000  Uiso   1.00
C18    C     0.56106   0.23234   0.49660   0.00000  Uiso   1.00
C19    C     0.55656   0.15212   0.49683   0.00000  Uiso   1.00
C20    C     0.47736   0.10802   0.50134   0.00000  Uiso   1.00
C21    C     0.40335   0.14664   0.50558   0.00000  Uiso   1.00
C22    C     0.40790   0.22679   0.50534   0.00000  Uiso   1.00
C23    C     0.46771   0.02245   0.50186   0.00000  Uiso   1.00
C24    C     0.53232   0.97755   0.49816   0.00000  Uiso   1.00
C25    C     0.59667   0.85334   0.49444   0.00000  Uiso   1.00
C26    C     0.52267   0.89197   0.49868   0.00000  Uiso   1.00
C27    C     0.44346   0.84787   0.50319   0.00000  Uiso   1.00
C28    C     0.43895   0.76765   0.50342   0.00000  Uiso   1.00
C29    C     0.51316   0.72915   0.49917   0.00000  Uiso   1.00
C30    C     0.59211   0.77320   0.49467   0.00000  Uiso   1.00
H9     H     0.62266   0.26479   0.49310   0.00000  Uiso   1.00
H10    H     0.61553   0.12593   0.49346   0.00000  Uiso   1.00
H11    H     0.34149   0.11464   0.50910   0.00000  Uiso   1.00
H12    H     0.65854   0.88534   0.49092   0.00000  Uiso   1.00
H13    H     0.38449   0.87406   0.50656   0.00000  Uiso   1.00
H14    H     0.37735   0.73521   0.50692   0.00000  Uiso   1.00
H15    H     0.40339   0.99625   0.50552   0.00000  Uiso   1.00
H16    H     0.59665   0.00374   0.49449   0.00000  Uiso   1.00
C31    C     0.50001   0.50002   0.13514   0.00000  Uiso   1.00
C32    C     0.50000   0.49997   0.86487   0.00000  Uiso   1.00
C33    C     0.56689   0.50236   0.06346   0.00000  Uiso   1.00
C34    C     0.43312   0.49764   0.93655   0.00000  Uiso   1.00
C35    C     0.56688   0.50233   0.92857   0.00000  Uiso   1.00
C36    C     0.43312   0.49766   0.07144   0.00000  Uiso   1.00
C37    C     0.66200   0.50569   0.05492   0.00000  Uiso   1.00
C38    C     0.66200   0.50567   0.92577   0.00000  Uiso   1.00
H17    H     0.69297   0.55693   0.09856   0.00000  Uiso   1.00
H18    H     0.68648   0.45645   0.09985   0.00000  Uiso   1.00
H19    H     0.68699   0.45639   0.87879   0.00000  Uiso   1.00
H20    H     0.69244   0.55684   0.87757   0.00000  Uiso   1.00
O9     O     0.28858   0.39748   0.66605   0.00000  Uiso   1.00
Li1    Li    0.25154   0.33027   0.77490   0.00000  Uiso   1.00
O10    O     0.71141   0.60251   0.33397   0.00000  Uiso   1.00
Li2    Li    0.74844   0.66972   0.22511   0.00000  Uiso   1.00
O11    O     0.33817   0.26034   0.50934   0.00000  Uiso   1.00
Li3    Li    0.23331   0.22649   0.51531   0.00000  Uiso   1.00
O12    O     0.66183   0.73964   0.49068   0.00000  Uiso   1.00
Li4    Li    0.76670   0.77348   0.48471   0.00000  Uiso   1.00
Cl1    Cl    0.33198   0.49406   0.87412   0.00000  Uiso   1.00
Cl2    Cl    0.33199   0.49418   0.14593   0.00000  Uiso   1.00
