# generated using pymatgen
data_Zn2H22C47Br(NO9)2
_symmetry_space_group_name_H-M   'P 1'
_cell_length_a   30.76340000
_cell_length_b   17.57240000
_cell_length_c   16.73770000
_cell_angle_alpha   90.04070000
_cell_angle_beta   89.87000000
_cell_angle_gamma   89.76090000
_symmetry_Int_Tables_number   1
_chemical_formula_structural   Zn2H22C47Br(NO9)2
_chemical_formula_sum   'Zn4 H44 C94 Br2 N4 O36'
_cell_volume   9048.07476366
_cell_formula_units_Z   2
loop_
 _symmetry_equiv_pos_site_id
 _symmetry_equiv_pos_as_xyz
  1  'x, y, z'
loop_
 _atom_site_type_symbol
 _atom_site_label
 _atom_site_symmetry_multiplicity
 _atom_site_fract_x
 _atom_site_fract_y
 _atom_site_fract_z
 _atom_site_occupancy
  Zn  Zn1  1  0.50000000  0.50001000  0.59904000  1
  Zn  Zn2  1  0.50000000  0.50002000  0.40096000  1
  Zn  Zn3  1  0.92879000  0.49792000  0.40093000  1
  Zn  Zn4  1  0.92878000  0.49816000  0.59901000  1
  H  H1  1  0.54879000  0.41502000  0.26938000  1
  H  H2  1  0.54884000  0.41493000  0.12654000  1
  H  H3  1  0.45123000  0.58502000  0.26991000  1
  H  H4  1  0.54876000  0.41497000  0.73008000  1
  H  H5  1  0.45123000  0.58502000  0.73063000  1
  H  H6  1  0.45119000  0.58510000  0.87348000  1
  H  H7  1  0.50017000  0.25696000  0.62619000  1
  H  H8  1  0.50009000  0.12090000  0.62634000  1
  H  H9  1  0.50004000  0.25674000  0.37371000  1
  H  H10  1  0.49989000  0.74328000  0.62630000  1
  H  H11  1  0.49981000  0.74307000  0.37383000  1
  H  H12  1  0.49987000  0.87913000  0.37368000  1
  H  H13  1  0.77688000  0.49883000  0.37904000  1
  H  H14  1  0.80719000  0.49884000  0.62753000  1
  H  H15  1  0.65190000  0.49958000  0.62093000  1
  H  H16  1  0.62159000  0.49956000  0.37245000  1
  H  H17  1  0.06787000  0.49770000  0.37363000  1
  H  H18  1  0.14559000  0.49824000  0.37356000  1
  H  H19  1  0.06751000  0.49748000  0.62610000  1
  H  H20  1  0.36129000  0.49976000  0.37386000  1
  H  H21  1  0.36091000  0.49945000  0.62633000  1
  H  H22  1  0.28319000  0.49893000  0.62638000  1
  H  H23  1  0.88014000  0.41260000  0.73057000  1
  H  H24  1  0.88010000  0.41267000  0.87341000  1
  H  H25  1  0.97741000  0.58170000  0.73008000  1
  H  H26  1  0.88017000  0.41317000  0.26987000  1
  H  H27  1  0.97741000  0.58233000  0.26936000  1
  H  H28  1  0.97745000  0.58224000  0.12651000  1
  H  H29  1  0.92729000  0.25485000  0.37394000  1
  H  H30  1  0.92760000  0.11878000  0.37376000  1
  H  H31  1  0.92741000  0.25491000  0.62642000  1
  H  H32  1  0.92847000  0.74116000  0.37372000  1
  H  H33  1  0.92855000  0.74124000  0.62620000  1
  H  H34  1  0.92825000  0.87731000  0.62637000  1
  H  H35  1  0.44243000  0.53657000  0.02251000  1
  H  H36  1  0.52115000  0.39935000  0.97759000  1
  H  H37  1  0.47407000  0.02133000  0.39828000  1
  H  H38  1  0.47412000  0.97914000  0.60204000  1
  H  H39  1  0.20194000  0.54371000  0.60192000  1
  H  H40  1  0.22644000  0.54410000  0.39819000  1
  H  H41  1  0.98630000  0.53345000  0.97747000  1
  H  H42  1  0.90782000  0.39701000  0.02235000  1
  H  H43  1  0.95381000  0.01924000  0.60180000  1
  H  H44  1  0.95382000  0.97681000  0.39803000  1
  C  C1  1  0.50016000  0.35159000  0.49993000  1
  C  C2  1  0.58479000  0.49980000  0.49986000  1
  C  C3  1  0.49981000  0.64844000  0.50008000  1
  C  C4  1  0.41522000  0.49997000  0.50014000  1
  C  C5  1  0.92889000  0.34961000  0.50001000  1
  C  C6  1  0.84400000  0.49860000  0.50011000  1
  C  C7  1  0.92872000  0.64646000  0.49993000  1
  C  C8  1  0.01357000  0.49721000  0.49983000  1
  C  C9  1  0.52803000  0.45121000  0.24030000  1
  C  C10  1  0.52811000  0.45105000  0.15617000  1
  C  C11  1  0.50001000  0.50000000  0.11369000  1
  C  C12  1  0.47191000  0.54897000  0.15647000  1
  C  C13  1  0.47200000  0.54883000  0.24060000  1
  C  C14  1  0.50001000  0.50000000  0.03572000  1
  C  C15  1  0.50001000  0.49999000  0.96428000  1
  C  C16  1  0.50000000  0.49999000  0.88631000  1
  C  C17  1  0.52809000  0.45102000  0.84352000  1
  C  C18  1  0.52800000  0.45117000  0.75939000  1
  C  C19  1  0.47199000  0.54882000  0.75971000  1
  C  C20  1  0.47191000  0.54897000  0.84384000  1
  C  C21  1  0.50011000  0.27095000  0.49995000  1
  C  C22  1  0.50013000  0.22910000  0.57245000  1
  C  C23  1  0.50008000  0.14897000  0.57269000  1
  C  C24  1  0.50003000  0.10830000  0.49999000  1
  C  C25  1  0.50001000  0.14884000  0.42727000  1
  C  C26  1  0.50005000  0.22897000  0.42746000  1
  C  C27  1  0.49999000  0.03403000  0.50001000  1
  C  C28  1  0.49996000  0.96599000  0.50003000  1
  C  C29  1  0.49992000  0.89173000  0.50004000  1
  C  C30  1  0.49992000  0.85118000  0.57275000  1
  C  C31  1  0.49988000  0.77104000  0.57255000  1
  C  C32  1  0.49984000  0.72908000  0.50006000  1
  C  C33  1  0.49984000  0.77093000  0.42756000  1
  C  C34  1  0.49988000  0.85106000  0.42734000  1
  C  C35  1  0.76662000  0.49893000  0.44156000  1
  C  C36  1  0.78264000  0.49893000  0.58141000  1
  C  C37  1  0.73850000  0.49915000  0.60298000  1
  C  C38  1  0.70749000  0.49926000  0.54040000  1
  C  C39  1  0.66217000  0.49948000  0.55841000  1
  C  C40  1  0.64614000  0.49947000  0.41856000  1
  C  C41  1  0.69029000  0.49925000  0.39699000  1
  C  C42  1  0.72130000  0.49915000  0.45957000  1
  C  C43  1  0.79588000  0.49883000  0.50006000  1
  C  C44  1  0.63291000  0.49958000  0.49991000  1
  C  C45  1  0.05964000  0.49753000  0.49986000  1
  C  C46  1  0.08368000  0.49776000  0.42738000  1
  C  C47  1  0.12945000  0.49808000  0.42720000  1
  C  C48  1  0.15254000  0.49818000  0.49993000  1
  C  C49  1  0.12924000  0.49795000  0.57262000  1
  C  C50  1  0.08347000  0.49763000  0.57237000  1
  C  C51  1  0.19496000  0.49847000  0.49995000  1
  C  C52  1  0.23383000  0.49874000  0.49998000  1
  C  C53  1  0.27625000  0.49903000  0.50002000  1
  C  C54  1  0.29955000  0.49928000  0.42733000  1
  C  C55  1  0.34532000  0.49959000  0.42759000  1
  C  C56  1  0.36915000  0.49966000  0.50010000  1
  C  C57  1  0.34511000  0.49941000  0.57257000  1
  C  C58  1  0.29933000  0.49910000  0.57275000  1
  C  C59  1  0.90085000  0.44863000  0.75966000  1
  C  C60  1  0.90077000  0.44857000  0.84379000  1
  C  C61  1  0.92878000  0.49732000  0.88628000  1
  C  C62  1  0.95679000  0.54597000  0.84351000  1
  C  C63  1  0.95671000  0.54573000  0.75938000  1
  C  C64  1  0.92878000  0.49740000  0.96425000  1
  C  C65  1  0.92878000  0.49748000  0.03569000  1
  C  C66  1  0.92879000  0.49757000  0.11365000  1
  C  C67  1  0.90079000  0.44890000  0.15643000  1
  C  C68  1  0.90087000  0.44915000  0.24056000  1
  C  C69  1  0.95671000  0.54629000  0.24027000  1
  C  C70  1  0.95679000  0.54633000  0.15614000  1
  C  C71  1  0.92732000  0.26898000  0.50019000  1
  C  C72  1  0.92738000  0.22705000  0.42767000  1
  C  C73  1  0.92756000  0.14691000  0.42742000  1
  C  C74  1  0.92769000  0.10633000  0.50011000  1
  C  C75  1  0.92763000  0.14695000  0.57284000  1
  C  C76  1  0.92745000  0.22709000  0.57266000  1
  C  C77  1  0.92786000  0.03206000  0.50007000  1
  C  C78  1  0.92801000  0.96402000  0.50004000  1
  C  C79  1  0.92818000  0.88975000  0.50002000  1
  C  C80  1  0.92825000  0.84912000  0.42729000  1
  C  C81  1  0.92843000  0.76899000  0.42748000  1
  C  C82  1  0.92854000  0.72710000  0.49995000  1
  C  C83  1  0.92847000  0.76904000  0.57247000  1
  C  C84  1  0.92829000  0.84917000  0.57271000  1
  C  C85  1  0.44120000  0.60247000  0.11291000  1
  C  C86  1  0.55879000  0.39749000  0.88708000  1
  C  C87  1  0.49995000  0.10712000  0.34781000  1
  C  C88  1  0.49996000  0.89289000  0.65222000  1
  C  C89  1  0.15292000  0.49805000  0.65210000  1
  C  C90  1  0.27588000  0.49921000  0.34784000  1
  C  C91  1  0.98741000  0.59924000  0.88708000  1
  C  C92  1  0.87018000  0.39561000  0.11287000  1
  C  C93  1  0.92777000  0.10532000  0.65229000  1
  C  C94  1  0.92813000  0.89074000  0.34784000  1
  Br  Br1  1  0.71034000  0.49909000  0.27840000  1
  Br  Br2  1  0.71845000  0.49930000  0.72157000  1
  N  N1  1  0.50001000  0.50002000  0.28445000  1
  N  N2  1  0.50000000  0.50000000  0.71555000  1
  N  N3  1  0.92878000  0.49714000  0.71552000  1
  N  N4  1  0.92879000  0.49777000  0.28442000  1
  O  O1  1  0.50032000  0.39025000  0.58111000  1
  O  O2  1  0.50010000  0.39027000  0.41872000  1
  O  O3  1  0.56268000  0.49985000  0.41864000  1
  O  O4  1  0.56270000  0.49995000  0.58104000  1
  O  O5  1  0.49977000  0.60978000  0.41888000  1
  O  O6  1  0.49982000  0.60975000  0.58128000  1
  O  O7  1  0.43732000  0.50002000  0.58136000  1
  O  O8  1  0.43730000  0.50021000  0.41897000  1
  O  O9  1  0.92866000  0.38818000  0.41883000  1
  O  O10  1  0.92888000  0.38839000  0.58122000  1
  O  O11  1  0.86611000  0.49855000  0.58133000  1
  O  O12  1  0.86609000  0.49845000  0.41893000  1
  O  O13  1  0.92883000  0.60789000  0.58111000  1
  O  O14  1  0.92878000  0.60768000  0.41871000  1
  O  O15  1  0.99146000  0.49737000  0.41861000  1
  O  O16  1  0.99149000  0.49775000  0.58100000  1
  O  O17  1  0.42562000  0.58280000  0.04198000  1
  O  O18  1  0.43000000  0.66285000  0.14436000  1
  O  O19  1  0.54763000  0.37013000  0.95809000  1
  O  O20  1  0.59332000  0.37816000  0.85555000  1
  O  O21  1  0.48092000  0.03967000  0.34222000  1
  O  O22  1  0.51652000  0.13679000  0.28854000  1
  O  O23  1  0.48101000  0.96067000  0.65802000  1
  O  O24  1  0.51655000  0.86292000  0.71131000  1
  O  O25  1  0.19137000  0.53156000  0.65791000  1
  O  O26  1  0.13590000  0.46885000  0.71122000  1
  O  O27  1  0.23712000  0.53220000  0.34216000  1
  O  O28  1  0.29317000  0.47038000  0.28862000  1
  O  O29  1  0.00302000  0.57951000  0.95801000  1
  O  O30  1  0.99850000  0.65948000  0.85564000  1
  O  O31  1  0.88139000  0.36806000  0.04185000  1
  O  O32  1  0.83568000  0.37663000  0.14439000  1
  O  O33  1  0.94692000  0.03771000  0.65786000  1
  O  O34  1  0.91115000  0.13522000  0.71157000  1
  O  O35  1  0.94697000  0.95834000  0.34205000  1
  O  O36  1  0.91160000  0.86085000  0.28874000  1
