# generated using pymatgen
data_AlH7C14BrO6
_symmetry_space_group_name_H-M   'P 1'
_cell_length_a   6.60720000
_cell_length_b   10.73040000
_cell_length_c   17.35560000
_cell_angle_alpha   92.39950000
_cell_angle_beta   100.97600000
_cell_angle_gamma   72.06890000
_symmetry_Int_Tables_number   1
_chemical_formula_structural   AlH7C14BrO6
_chemical_formula_sum   'Al2 H14 C28 Br2 O12'
_cell_volume   1149.10762445
_cell_formula_units_Z   2
loop_
 _symmetry_equiv_pos_site_id
 _symmetry_equiv_pos_as_xyz
  1  'x, y, z'
loop_
 _atom_site_type_symbol
 _atom_site_label
 _atom_site_symmetry_multiplicity
 _atom_site_fract_x
 _atom_site_fract_y
 _atom_site_fract_z
 _atom_site_occupancy
  Al  Al1  1  0.00000000  0.50000000  0.50000000  1
  Al  Al2  1  0.50000000  0.50000000  0.50000000  1
  H  H1  1  0.83656000  0.39165000  0.56476000  1
  H  H2  1  0.16344000  0.60835000  0.43524000  1
  H  H3  1  0.95140000  0.50167000  0.26489000  1
  H  H4  1  0.88201000  0.50077000  0.12457000  1
  H  H5  1  0.31174000  0.50180000  0.26486000  1
  H  H6  1  0.68823000  0.49831000  0.73513000  1
  H  H7  1  0.04865000  0.49830000  0.73512000  1
  H  H8  1  0.11806000  0.49922000  0.87544000  1
  H  H9  1  0.59315000  0.22652000  0.40176000  1
  H  H10  1  0.81476000  0.78157000  0.40002000  1
  H  H11  1  0.38068000  0.88926000  0.58354000  1
  H  H12  1  0.27378000  0.10388000  0.58438000  1
  H  H13  1  0.16599000  0.50041000  0.04654000  1
  H  H14  1  0.83400000  0.49975000  0.95344000  1
  C  C1  1  0.36520000  0.27066000  0.50106000  1
  C  C2  1  0.31990000  0.49765000  0.63742000  1
  C  C3  1  0.63480000  0.72934000  0.49894000  1
  C  C4  1  0.68010000  0.50235000  0.36258000  1
  C  C5  1  0.63879000  0.50182000  0.27941000  1
  C  C6  1  0.80099000  0.50151000  0.23620000  1
  C  C7  1  0.76049000  0.50098000  0.15356000  1
  C  C8  1  0.55548000  0.50075000  0.11167000  1
  C  C9  1  0.39207000  0.50106000  0.15354000  1
  C  C10  1  0.43365000  0.50158000  0.23618000  1
  C  C11  1  0.51745000  0.50026000  0.03509000  1
  C  C12  1  0.48261000  0.49980000  0.96491000  1
  C  C13  1  0.44455000  0.49931000  0.88832000  1
  C  C14  1  0.60793000  0.49904000  0.84645000  1
  C  C15  1  0.56633000  0.49850000  0.76381000  1
  C  C16  1  0.36122000  0.49821000  0.72059000  1
  C  C17  1  0.19904000  0.49849000  0.76380000  1
  C  C18  1  0.23955000  0.49903000  0.84645000  1
  C  C19  1  0.43638000  0.12774000  0.50050000  1
  C  C20  1  0.57433000  0.06278000  0.44942000  1
  C  C21  1  0.36520000  0.05863000  0.55105000  1
  C  C22  1  0.64120000  0.13564000  0.40006000  1
  C  C23  1  0.77835000  0.07475000  0.34841000  1
  C  C24  1  0.56362000  0.87226000  0.49950000  1
  C  C25  1  0.42567000  0.93722000  0.55058000  1
  C  C26  1  0.63481000  0.94137000  0.44895000  1
  C  C27  1  0.77222000  0.87256000  0.39903000  1
  C  C28  1  0.84663000  0.93765000  0.34788000  1
  Br  Br1  1  0.87730000  0.18346000  0.27516000  1
  Br  Br2  1  0.05087000  0.83495000  0.27380000  1
  O  O1  1  0.16173000  0.33041000  0.50129000  1
  O  O2  1  0.47583000  0.49741000  0.60162000  1
  O  O3  1  0.49085000  0.66959000  0.49871000  1
  O  O4  1  0.87160000  0.50259000  0.39838000  1
  O  O5  1  0.83827000  0.66959000  0.49871000  1
  O  O6  1  0.52417000  0.50259000  0.39838000  1
  O  O7  1  0.50915000  0.33041000  0.50129000  1
  O  O8  1  0.12841000  0.49741000  0.60162000  1
  O  O9  1  0.78259000  0.45920000  0.52438000  1
  O  O10  1  0.21741000  0.54079000  0.47562000  1
  O  O11  1  0.17060000  0.50082000  0.11081000  1
  O  O12  1  0.82938000  0.49933000  0.88917000  1
