# generated using pymatgen
data_CuC19N4(Cl3O)4
_symmetry_space_group_name_H-M   'P 1'
_cell_length_a   31.21260000
_cell_length_b   23.13890000
_cell_length_c   22.08490000
_cell_angle_alpha   65.17830000
_cell_angle_beta   51.10510000
_cell_angle_gamma   48.29520000
_symmetry_Int_Tables_number   1
_chemical_formula_structural   CuC19N4(Cl3O)4
_chemical_formula_sum   'Cu4 C76 N16 Cl48 O16'
_cell_volume   9268.07690837
_cell_formula_units_Z   4
loop_
 _symmetry_equiv_pos_site_id
 _symmetry_equiv_pos_as_xyz
  1  'x, y, z'
loop_
 _atom_site_type_symbol
 _atom_site_label
 _atom_site_symmetry_multiplicity
 _atom_site_fract_x
 _atom_site_fract_y
 _atom_site_fract_z
 _atom_site_occupancy
  Cu  Cu1  1  0.45915000  0.50328000  0.49672000  1
  Cu  Cu2  1  0.54085000  0.49673000  0.50327000  1
  Cu  Cu3  1  0.04085000  0.49673000  0.50327000  1
  Cu  Cu4  1  0.95915000  0.50328000  0.49672000  1
  C  C1  1  0.56811000  0.50043000  0.35423000  1
  C  C2  1  0.43189000  0.49958000  0.64577000  1
  C  C3  1  0.56810000  0.35497000  0.49972000  1
  C  C4  1  0.43190000  0.64504000  0.50027000  1
  C  C5  1  0.06809000  0.35497000  0.49973000  1
  C  C6  1  0.93190000  0.64504000  0.50027000  1
  C  C7  1  0.06811000  0.50042000  0.35423000  1
  C  C8  1  0.93189000  0.49959000  0.64577000  1
  C  C9  1  0.87528000  0.46031000  0.53970000  1
  C  C10  1  0.83028000  0.46405000  0.53596000  1
  C  C11  1  0.80752000  0.51563000  0.48437000  1
  C  C12  1  0.83035000  0.56327000  0.43672000  1
  C  C13  1  0.87532000  0.55972000  0.44027000  1
  C  C14  1  0.66965000  0.43674000  0.56327000  1
  C  C15  1  0.69248000  0.48438000  0.51562000  1
  C  C16  1  0.66972000  0.53596000  0.46403000  1
  C  C17  1  0.62472000  0.53970000  0.46029000  1
  C  C18  1  0.62467000  0.44029000  0.55973000  1
  C  C19  1  0.12472000  0.53970000  0.46029000  1
  C  C20  1  0.16972000  0.53596000  0.46403000  1
  C  C21  1  0.19248000  0.48438000  0.51562000  1
  C  C22  1  0.16965000  0.43674000  0.56328000  1
  C  C23  1  0.12467000  0.44029000  0.55973000  1
  C  C24  1  0.33035000  0.56327000  0.43672000  1
  C  C25  1  0.30752000  0.51563000  0.48437000  1
  C  C26  1  0.33028000  0.46405000  0.53597000  1
  C  C27  1  0.37528000  0.46031000  0.53970000  1
  C  C28  1  0.37532000  0.55972000  0.44027000  1
  C  C29  1  0.89135000  0.73135000  0.50049000  1
  C  C30  1  0.83281000  0.77618000  0.49760000  1
  C  C31  1  0.79482000  0.85723000  0.49783000  1
  C  C32  1  0.81454000  0.89512000  0.50094000  1
  C  C33  1  0.87263000  0.85090000  0.50382000  1
  C  C34  1  0.91075000  0.76987000  0.50361000  1
  C  C35  1  0.62737000  0.14911000  0.49617000  1
  C  C36  1  0.68546000  0.10489000  0.49904000  1
  C  C37  1  0.70518000  0.14278000  0.50216000  1
  C  C38  1  0.66719000  0.22383000  0.50238000  1
  C  C39  1  0.60865000  0.26866000  0.49949000  1
  C  C40  1  0.58925000  0.23014000  0.49638000  1
  C  C41  1  0.10870000  0.26866000  0.49943000  1
  C  C42  1  0.16723000  0.22383000  0.50235000  1
  C  C43  1  0.20521000  0.14278000  0.50214000  1
  C  C44  1  0.18549000  0.10490000  0.49900000  1
  C  C45  1  0.12742000  0.14912000  0.49609000  1
  C  C46  1  0.08931000  0.23015000  0.49630000  1
  C  C47  1  0.37263000  0.85090000  0.50384000  1
  C  C48  1  0.31456000  0.89512000  0.50093000  1
  C  C49  1  0.29485000  0.85724000  0.49779000  1
  C  C50  1  0.33282000  0.77618000  0.49757000  1
  C  C51  1  0.39135000  0.73136000  0.50049000  1
  C  C52  1  0.41074000  0.76987000  0.50363000  1
  C  C53  1  0.89132000  0.49940000  0.73251000  1
  C  C54  1  0.83289000  0.50229000  0.77131000  1
  C  C55  1  0.79490000  0.50210000  0.85278000  1
  C  C56  1  0.81450000  0.49902000  0.89713000  1
  C  C57  1  0.87247000  0.49614000  0.85891000  1
  C  C58  1  0.91060000  0.49631000  0.77748000  1
  C  C59  1  0.62752000  0.50388000  0.14108000  1
  C  C60  1  0.68549000  0.50100000  0.10287000  1
  C  C61  1  0.70509000  0.49791000  0.14721000  1
  C  C62  1  0.66710000  0.49773000  0.22869000  1
  C  C63  1  0.60867000  0.50062000  0.26748000  1
  C  C64  1  0.58939000  0.50370000  0.22251000  1
  C  C65  1  0.10842000  0.50124000  0.26749000  1
  C  C66  1  0.16690000  0.49824000  0.22869000  1
  C  C67  1  0.20492000  0.49835000  0.14721000  1
  C  C68  1  0.18530000  0.50147000  0.10288000  1
  C  C69  1  0.12728000  0.50446000  0.14110000  1
  C  C70  1  0.08912000  0.50436000  0.22253000  1
  C  C71  1  0.37244000  0.49626000  0.85891000  1
  C  C72  1  0.31441000  0.49925000  0.89713000  1
  C  C73  1  0.29479000  0.50236000  0.85279000  1
  C  C74  1  0.33282000  0.50247000  0.77131000  1
  C  C75  1  0.39130000  0.49947000  0.73251000  1
  C  C76  1  0.41059000  0.49636000  0.77747000  1
  N  N1  1  0.89843000  0.50815000  0.49185000  1
  N  N2  1  0.76143000  0.52079000  0.47921000  1
  N  N3  1  0.73857000  0.47922000  0.52078000  1
  N  N4  1  0.60156000  0.49186000  0.50814000  1
  N  N5  1  0.10157000  0.49186000  0.50814000  1
  N  N6  1  0.23857000  0.47922000  0.52078000  1
  N  N7  1  0.26143000  0.52079000  0.47921000  1
  N  N8  1  0.39843000  0.50815000  0.49185000  1
  N  N9  1  0.77667000  0.97806000  0.50125000  1
  N  N10  1  0.72332000  0.02195000  0.49874000  1
  N  N11  1  0.22336000  0.02196000  0.49869000  1
  N  N12  1  0.27670000  0.97806000  0.50123000  1
  N  N13  1  0.77662000  0.49875000  0.98067000  1
  N  N14  1  0.72337000  0.50127000  0.01932000  1
  N  N15  1  0.22321000  0.50166000  0.01933000  1
  N  N16  1  0.27650000  0.49905000  0.98067000  1
  Cl  Cl1  1  0.90289000  0.62054000  0.37943000  1
  Cl  Cl2  1  0.80229000  0.62818000  0.37179000  1
  Cl  Cl3  1  0.90279000  0.39505000  0.60498000  1
  Cl  Cl4  1  0.80229000  0.40357000  0.59646000  1
  Cl  Cl5  1  0.69770000  0.37183000  0.62821000  1
  Cl  Cl6  1  0.59711000  0.37947000  0.62056000  1
  Cl  Cl7  1  0.69771000  0.59644000  0.40354000  1
  Cl  Cl8  1  0.59720000  0.60496000  0.39501000  1
  Cl  Cl9  1  0.09711000  0.37947000  0.62056000  1
  Cl  Cl10  1  0.19770000  0.37183000  0.62821000  1
  Cl  Cl11  1  0.09720000  0.60496000  0.39501000  1
  Cl  Cl12  1  0.19771000  0.59644000  0.40354000  1
  Cl  Cl13  1  0.30229000  0.62818000  0.37179000  1
  Cl  Cl14  1  0.40289000  0.62054000  0.37943000  1
  Cl  Cl15  1  0.30229000  0.40357000  0.59646000  1
  Cl  Cl16  1  0.40279000  0.39505000  0.60498000  1
  Cl  Cl17  1  0.98346000  0.71627000  0.50728000  1
  Cl  Cl18  1  0.89799000  0.89751000  0.50774000  1
  Cl  Cl19  1  0.80669000  0.73055000  0.49367000  1
  Cl  Cl20  1  0.72198000  0.91158000  0.49417000  1
  Cl  Cl21  1  0.60201000  0.10250000  0.49225000  1
  Cl  Cl22  1  0.51654000  0.28374000  0.49270000  1
  Cl  Cl23  1  0.77802000  0.08843000  0.50581000  1
  Cl  Cl24  1  0.69331000  0.26946000  0.50632000  1
  Cl  Cl25  1  0.01661000  0.28376000  0.49258000  1
  Cl  Cl26  1  0.10207000  0.10251000  0.49214000  1
  Cl  Cl27  1  0.19333000  0.26945000  0.50632000  1
  Cl  Cl28  1  0.27803000  0.08843000  0.50583000  1
  Cl  Cl29  1  0.39798000  0.89750000  0.50779000  1
  Cl  Cl30  1  0.48344000  0.71626000  0.50734000  1
  Cl  Cl31  1  0.22202000  0.91159000  0.49410000  1
  Cl  Cl32  1  0.30672000  0.73057000  0.49360000  1
  Cl  Cl33  1  0.98317000  0.49263000  0.73155000  1
  Cl  Cl34  1  0.89768000  0.49226000  0.91365000  1
  Cl  Cl35  1  0.80693000  0.50619000  0.71751000  1
  Cl  Cl36  1  0.72221000  0.50577000  0.89951000  1
  Cl  Cl37  1  0.60232000  0.50776000  0.08634000  1
  Cl  Cl38  1  0.51682000  0.50739000  0.26845000  1
  Cl  Cl39  1  0.77779000  0.49425000  0.10048000  1
  Cl  Cl40  1  0.69306000  0.49382000  0.28248000  1
  Cl  Cl41  1  0.01648000  0.50817000  0.26847000  1
  Cl  Cl42  1  0.10204000  0.50838000  0.08637000  1
  Cl  Cl43  1  0.19288000  0.49430000  0.28247000  1
  Cl  Cl44  1  0.27768000  0.49456000  0.10047000  1
  Cl  Cl45  1  0.39767000  0.49233000  0.91364000  1
  Cl  Cl46  1  0.48323000  0.49254000  0.73153000  1
  Cl  Cl47  1  0.22204000  0.50616000  0.89953000  1
  Cl  Cl48  1  0.30683000  0.50642000  0.71753000  1
  O  O1  1  0.50916000  0.50326000  0.39588000  1
  O  O2  1  0.41465000  0.50263000  0.59820000  1
  O  O3  1  0.50914000  0.40229000  0.49690000  1
  O  O4  1  0.41467000  0.60360000  0.49719000  1
  O  O5  1  0.49084000  0.59772000  0.50312000  1
  O  O6  1  0.58534000  0.39641000  0.50278000  1
  O  O7  1  0.49084000  0.49664000  0.60419000  1
  O  O8  1  0.58534000  0.49741000  0.40179000  1
  O  O9  1  0.08535000  0.39640000  0.50277000  1
  O  O10  1  0.99085000  0.59771000  0.50311000  1
  O  O11  1  0.08535000  0.49739000  0.40178000  1
  O  O12  1  0.99085000  0.49672000  0.60410000  1
  O  O13  1  0.91463000  0.50265000  0.59822000  1
  O  O14  1  0.00916000  0.50327000  0.39589000  1
  O  O15  1  0.91466000  0.60370000  0.49711000  1
  O  O16  1  0.00913000  0.40230000  0.49691000  1
