data_DB1-Cu2O8-fum_A-irmof6_A_No7_repeat
_audit_creation_date              2024-02-20
_audit_creation_method            'Materials Studio'
_symmetry_space_group_name_H-M    'P1'
_symmetry_Int_Tables_number       1
_symmetry_cell_setting            triclinic
loop_
_symmetry_equiv_pos_as_xyz
  x,y,z
_cell_length_a                    10.8046
_cell_length_b                    17.3799
_cell_length_c                    10.0000
_cell_angle_alpha                 90.0000
_cell_angle_beta                  90.0000
_cell_angle_gamma                 90.0941
loop_
_atom_site_label
_atom_site_type_symbol
_atom_site_fract_x
_atom_site_fract_y
_atom_site_fract_z
_atom_site_U_iso_or_equiv
_atom_site_adp_type
_atom_site_occupancy
Cu1    Cu    0.50000   0.50000   0.62726   0.00000  Uiso   1.00
Cu2    Cu    0.50001   0.50000   0.37274   0.00000  Uiso   1.00
O1     O     0.66093   0.49995   0.61869   0.00000  Uiso   1.00
O2     O     0.33875   0.49983   0.61867   0.00000  Uiso   1.00
O3     O     0.49965   0.39974   0.61868   0.00000  Uiso   1.00
O4     O     0.50002   0.60004   0.61868   0.00000  Uiso   1.00
O5     O     0.50032   0.60026   0.38132   0.00000  Uiso   1.00
O6     O     0.50003   0.39997   0.38132   0.00000  Uiso   1.00
O7     O     0.33895   0.49995   0.38131   0.00000  Uiso   1.00
O8     O     0.66127   0.50020   0.38133   0.00000  Uiso   1.00
C1     C     0.73213   0.50006   0.50001   0.00000  Uiso   1.00
C2     C     0.26788   0.49995   0.49999   0.00000  Uiso   1.00
C3     C     0.49985   0.35570   0.50000   0.00000  Uiso   1.00
C4     C     0.50017   0.64431   0.50000   0.00000  Uiso   1.00
Cu3    Cu    0.50048   0.00000   0.26411   0.00000  Uiso   1.00
Cu4    Cu    0.49986   0.00000   0.51863   0.00000  Uiso   1.00
O9     O     0.66139   0.00038   0.27315   0.00000  Uiso   1.00
O10    O     0.33921   0.99985   0.27224   0.00000  Uiso   1.00
O11    O     0.50013   0.10026   0.27269   0.00000  Uiso   1.00
O12    O     0.50047   0.89997   0.27269   0.00000  Uiso   1.00
O13    O     0.50018   0.89974   0.51005   0.00000  Uiso   1.00
O14    O     0.49992   0.10004   0.51005   0.00000  Uiso   1.00
O15    O     0.33882   0.99973   0.50959   0.00000  Uiso   1.00
O16    O     0.66114   0.00013   0.51051   0.00000  Uiso   1.00
C5     C     0.73230   0.00041   0.39204   0.00000  Uiso   1.00
C6     C     0.26805   0.99960   0.39071   0.00000  Uiso   1.00
C7     C     0.50003   0.14431   0.39138   0.00000  Uiso   1.00
C8     C     0.50032   0.85570   0.39138   0.00000  Uiso   1.00
C9     C     0.50032   0.77098   0.38954   0.00000  Uiso   1.00
C10    C     0.50018   0.72903   0.50183   0.00000  Uiso   1.00
C11    C     0.50003   0.22903   0.38954   0.00000  Uiso   1.00
C12    C     0.49985   0.27098   0.50183   0.00000  Uiso   1.00
C13    C     0.13514   0.49998   0.49999   0.00000  Uiso   1.00
C14    C     0.86488   0.50003   0.50000   0.00000  Uiso   1.00
C15    C     0.06745   0.50010   0.39438   0.00000  Uiso   1.00
C16    C     0.93257   0.49990   0.60562   0.00000  Uiso   1.00
C17    C     0.93256   0.50013   0.39438   0.00000  Uiso   1.00
C18    C     0.06746   0.49988   0.60561   0.00000  Uiso   1.00
C19    C     0.06458   0.50026   0.24417   0.00000  Uiso   1.00
C20    C     0.93542   0.50029   0.24418   0.00000  Uiso   1.00
H1     H     0.89029   0.49982   0.70424   0.00000  Uiso   1.00
H2     H     0.10974   0.49973   0.70424   0.00000  Uiso   1.00
H3     H     0.11004   0.44982   0.19983   0.00000  Uiso   1.00
H4     H     0.11098   0.55075   0.20097   0.00000  Uiso   1.00
H5     H     0.88996   0.55083   0.20016   0.00000  Uiso   1.00
H6     H     0.88902   0.44990   0.20066   0.00000  Uiso   1.00
C21    C     0.13531   0.00130   0.39322   0.00000  Uiso   1.00
C22    C     0.86504   0.00070   0.39243   0.00000  Uiso   1.00
C23    C     0.06735   0.00104   0.49864   0.00000  Uiso   1.00
C24    C     0.93299   0.00097   0.28701   0.00000  Uiso   1.00
C25    C     0.93246   0.00074   0.49825   0.00000  Uiso   1.00
C26    C     0.06788   0.00126   0.28741   0.00000  Uiso   1.00
C27    C     0.06411   0.00087   0.64884   0.00000  Uiso   1.00
C28    C     0.93495   0.00058   0.64846   0.00000  Uiso   1.00
H7     H     0.89096   0.00097   0.18826   0.00000  Uiso   1.00
H8     H     0.11041   0.00149   0.18890   0.00000  Uiso   1.00
H9     H     0.10946   0.05140   0.69331   0.00000  Uiso   1.00
H10    H     0.11040   0.95048   0.69218   0.00000  Uiso   1.00
H11    H     0.88937   0.94996   0.69234   0.00000  Uiso   1.00
H12    H     0.88845   0.05089   0.69184   0.00000  Uiso   1.00
O17    O     0.50046   0.73702   0.27393   0.00000  Uiso   1.00
Li1    Li    0.50066   0.77063   0.11311   0.00000  Uiso   1.00
O18    O     0.50004   0.76298   0.61744   0.00000  Uiso   1.00
Li2    Li    0.49983   0.72938   0.77827   0.00000  Uiso   1.00
O19    O     0.50021   0.26298   0.27393   0.00000  Uiso   1.00
Li3    Li    0.50047   0.22938   0.11311   0.00000  Uiso   1.00
O20    O     0.49966   0.23702   0.61744   0.00000  Uiso   1.00
Li4    Li    0.49940   0.27063   0.77827   0.00000  Uiso   1.00
