# generated using pymatgen
data_ZnH6C15NClO8
_symmetry_space_group_name_H-M   'P 1'
_cell_length_a   10.74350000
_cell_length_b   36.48270000
_cell_length_c   10.00000000
_cell_angle_alpha   90.00000000
_cell_angle_beta   90.00000000
_cell_angle_gamma   106.94700000
_symmetry_Int_Tables_number   1
_chemical_formula_structural   ZnH6C15NClO8
_chemical_formula_sum   'Zn4 H24 C60 N4 Cl4 O32'
_cell_volume   3749.31297475
_cell_formula_units_Z   4
loop_
 _symmetry_equiv_pos_site_id
 _symmetry_equiv_pos_as_xyz
  1  'x, y, z'
loop_
 _atom_site_type_symbol
 _atom_site_label
 _atom_site_symmetry_multiplicity
 _atom_site_fract_x
 _atom_site_fract_y
 _atom_site_fract_z
 _atom_site_occupancy
  Zn  Zn1  1  0.50003000  0.50011000  0.66577000  1
  Zn  Zn2  1  0.50000000  0.49989000  0.33423000  1
  Zn  Zn3  1  0.99623000  0.99991000  0.23657000  1
  Zn  Zn4  1  0.99667000  0.00013000  0.56810000  1
  H  H1  1  0.87454000  0.87693000  0.61823000  1
  H  H2  1  0.80442000  0.80631000  0.61715000  1
  H  H3  1  0.80446000  0.80636000  0.18743000  1
  H  H4  1  0.69258000  0.69366000  0.71491000  1
  H  H5  1  0.69262000  0.69371000  0.28519000  1
  H  H6  1  0.62250000  0.62309000  0.28411000  1
  H  H7  1  0.11854000  0.12305000  0.61785000  1
  H  H8  1  0.19013000  0.19367000  0.61698000  1
  H  H9  1  0.19090000  0.19372000  0.18726000  1
  H  H10  1  0.30414000  0.30630000  0.71507000  1
  H  H11  1  0.30490000  0.30635000  0.28535000  1
  H  H12  1  0.37650000  0.37697000  0.28448000  1
  H  H13  1  0.25901000  0.54831000  0.33060000  1
  H  H14  1  0.83596000  0.54814000  0.33073000  1
  H  H15  1  0.65913000  0.95130000  0.57165000  1
  H  H16  1  0.23667000  0.95172000  0.57157000  1
  H  H17  1  0.92505000  0.41499000  0.68553000  1
  H  H18  1  0.21967000  0.45090000  0.55978000  1
  H  H19  1  0.37240000  0.59807000  0.26885000  1
  H  H20  1  0.78865000  0.56550000  0.15683000  1
  H  H21  1  0.58998000  0.08474000  0.21674000  1
  H  H22  1  0.81317000  0.04868000  0.34246000  1
  H  H23  1  0.67368000  0.90151000  0.63338000  1
  H  H24  1  0.15494000  0.93439000  0.74548000  1
  C  C1  1  0.25734000  0.50009000  0.49992000  1
  C  C2  1  0.57451000  0.57474000  0.49974000  1
  C  C3  1  0.74266000  0.49988000  0.50008000  1
  C  C4  1  0.42510000  0.42526000  0.50026000  1
  C  C5  1  0.75373000  0.00007000  0.40244000  1
  C  C6  1  0.92253000  0.92528000  0.40259000  1
  C  C7  1  0.23920000  0.00000000  0.40222000  1
  C  C8  1  0.06994000  0.07476000  0.40207000  1
  C  C9  1  0.88007000  0.88251000  0.40252000  1
  C  C10  1  0.85954000  0.86183000  0.52364000  1
  C  C11  1  0.81967000  0.82166000  0.52325000  1
  C  C12  1  0.79950000  0.80136000  0.40193000  1
  C  C13  1  0.81974000  0.82175000  0.28137000  1
  C  C14  1  0.85960000  0.86190000  0.28129000  1
  C  C15  1  0.67731000  0.67827000  0.62097000  1
  C  C16  1  0.69754000  0.69866000  0.50041000  1
  C  C17  1  0.67738000  0.67836000  0.37908000  1
  C  C18  1  0.63750000  0.63819000  0.37870000  1
  C  C19  1  0.61697000  0.61751000  0.49981000  1
  C  C20  1  0.63744000  0.63812000  0.62104000  1
  C  C21  1  0.11329000  0.11752000  0.40213000  1
  C  C22  1  0.13403000  0.13818000  0.52330000  1
  C  C23  1  0.17474000  0.17834000  0.52304000  1
  C  C24  1  0.19556000  0.19867000  0.40178000  1
  C  C25  1  0.17512000  0.17831000  0.28115000  1
  C  C26  1  0.13442000  0.13817000  0.28096000  1
  C  C27  1  0.31991000  0.32171000  0.62118000  1
  C  C28  1  0.29948000  0.30135000  0.50056000  1
  C  C29  1  0.32029000  0.32168000  0.37930000  1
  C  C30  1  0.36101000  0.36184000  0.37903000  1
  C  C31  1  0.38174000  0.38250000  0.50021000  1
  C  C32  1  0.36061000  0.36185000  0.62138000  1
  C  C33  1  0.12146000  0.50004000  0.49996000  1
  C  C34  1  0.08207000  0.52474000  0.41316000  1
  C  C35  1  0.03338000  0.47528000  0.58681000  1
  C  C36  1  0.17319000  0.54893000  0.32833000  1
  C  C37  1  0.13794000  0.57392000  0.24052000  1
  C  C38  1  0.87854000  0.49993000  0.50004000  1
  C  C39  1  0.91793000  0.47523000  0.58684000  1
  C  C40  1  0.96663000  0.52469000  0.41320000  1
  C  C41  1  0.92307000  0.54882000  0.32841000  1
  C  C42  1  0.00758000  0.57387000  0.24056000  1
  C  C43  1  0.61746000  0.99963000  0.40229000  1
  C  C44  1  0.52907000  0.97496000  0.48910000  1
  C  C45  1  0.57857000  0.02442000  0.31546000  1
  C  C46  1  0.57214000  0.95073000  0.57392000  1
  C  C47  1  0.48729000  0.92577000  0.66174000  1
  C  C48  1  0.37490000  0.99987000  0.40225000  1
  C  C49  1  0.46329000  0.02454000  0.31544000  1
  C  C50  1  0.41379000  0.97507000  0.48908000  1
  C  C51  1  0.32236000  0.95098000  0.57388000  1
  C  C52  1  0.35712000  0.92590000  0.66172000  1
  C  C53  1  0.81962000  0.44885000  0.67936000  1
  C  C54  1  0.07981000  0.44896000  0.67927000  1
  C  C55  1  0.23719000  0.60016000  0.14850000  1
  C  C56  1  0.95992000  0.60004000  0.14859000  1
  C  C57  1  0.41739000  0.05096000  0.22293000  1
  C  C58  1  0.67721000  0.05070000  0.22298000  1
  C  C59  1  0.53442000  0.89950000  0.75375000  1
  C  C60  1  0.25754000  0.89977000  0.75370000  1
  N  N1  1  0.75865000  0.76022000  0.39829000  1
  N  N2  1  0.73839000  0.73980000  0.50405000  1
  N  N3  1  0.23727000  0.23982000  0.39826000  1
  N  N4  1  0.25776000  0.26020000  0.50408000  1
  Cl  Cl1  1  0.88403000  0.88652000  0.12769000  1
  Cl  Cl2  1  0.61301000  0.61350000  0.77465000  1
  Cl  Cl3  1  0.10976000  0.11358000  0.12728000  1
  Cl  Cl4  1  0.38528000  0.38644000  0.77505000  1
  O  O1  1  0.32075000  0.50034000  0.63580000  1
  O  O2  1  0.32055000  0.49996000  0.36399000  1
  O  O3  1  0.55506000  0.55516000  0.36380000  1
  O  O4  1  0.55528000  0.55537000  0.63562000  1
  O  O5  1  0.67936000  0.49974000  0.36420000  1
  O  O6  1  0.67941000  0.49997000  0.63601000  1
  O  O7  1  0.44472000  0.44484000  0.63620000  1
  O  O8  1  0.44497000  0.44464000  0.36438000  1
  O  O9  1  0.81659000  0.99978000  0.26656000  1
  O  O10  1  0.81718000  0.00016000  0.53836000  1
  O  O11  1  0.94198000  0.94486000  0.53853000  1
  O  O12  1  0.94176000  0.94466000  0.26672000  1
  O  O13  1  0.17623000  0.00018000  0.53811000  1
  O  O14  1  0.17579000  0.99995000  0.26631000  1
  O  O15  1  0.05066000  0.05518000  0.26614000  1
  O  O16  1  0.05135000  0.05538000  0.53795000  1
  O  O17  1  0.83484000  0.41532000  0.71427000  1
  O  O18  1  0.72460000  0.45820000  0.71876000  1
  O  O19  1  0.17788000  0.43603000  0.64194000  1
  O  O20  1  0.02430000  0.43895000  0.78673000  1
  O  O21  1  0.36069000  0.61297000  0.18653000  1
  O  O22  1  0.20225000  0.61022000  0.04077000  1
  O  O23  1  0.83818000  0.58902000  0.10431000  1
  O  O24  1  0.03513000  0.63087000  0.11275000  1
  O  O25  1  0.49917000  0.08446000  0.18801000  1
  O  O26  1  0.30386000  0.04167000  0.18354000  1
  O  O27  1  0.80090000  0.06357000  0.26030000  1
  O  O28  1  0.64160000  0.06074000  0.11553000  1
  O  O29  1  0.63241000  0.88662000  0.71571000  1
  O  O30  1  0.47953000  0.88946000  0.86149000  1
  O  O31  1  0.15776000  0.91086000  0.79799000  1
  O  O32  1  0.27150000  0.86891000  0.78953000  1
