# generated using pymatgen
data_CuH4C8O5
_symmetry_space_group_name_H-M   'P 1'
_cell_length_a   12.99020000
_cell_length_b   17.37990000
_cell_length_c   10.00000000
_cell_angle_alpha   90.00000000
_cell_angle_beta   90.00000000
_cell_angle_gamma   90.09730000
_symmetry_Int_Tables_number   1
_chemical_formula_structural   CuH4C8O5
_chemical_formula_sum   'Cu4 H16 C32 O20'
_cell_volume   2257.68051433
_cell_formula_units_Z   4
loop_
 _symmetry_equiv_pos_site_id
 _symmetry_equiv_pos_as_xyz
  1  'x, y, z'
loop_
 _atom_site_type_symbol
 _atom_site_label
 _atom_site_symmetry_multiplicity
 _atom_site_fract_x
 _atom_site_fract_y
 _atom_site_fract_z
 _atom_site_occupancy
  Cu  Cu1  1  0.50000000  0.50000000  0.62726000  1
  Cu  Cu2  1  0.50001000  0.50000000  0.37274000  1
  Cu  Cu3  1  0.50041000  0.00000000  0.26411000  1
  Cu  Cu4  1  0.49989000  0.00000000  0.51863000  1
  H  H1  1  0.14756000  0.49974000  0.70252000  1
  H  H2  1  0.22022000  0.50018000  0.28666000  1
  H  H3  1  0.03277000  0.50029000  0.22353000  1
  H  H4  1  0.85245000  0.50027000  0.29748000  1
  H  H5  1  0.77979000  0.49983000  0.71332000  1
  H  H6  1  0.96725000  0.49971000  0.77646000  1
  H  H7  1  0.14811000  0.00187000  0.19112000  1
  H  H8  1  0.21991000  0.00161000  0.60724000  1
  H  H9  1  0.03234000  0.00104000  0.66971000  1
  H  H10  1  0.85217000  0.00061000  0.59513000  1
  H  H11  1  0.78037000  0.00088000  0.17903000  1
  H  H12  1  0.96796000  0.00145000  0.11654000  1
  H  H13  1  0.50039000  0.66817000  0.26968000  1
  H  H14  1  0.50003000  0.83183000  0.62169000  1
  H  H15  1  0.50018000  0.33184000  0.26968000  1
  H  H16  1  0.49972000  0.16817000  0.62169000  1
  C  C1  1  0.69308000  0.50007000  0.50001000  1
  C  C2  1  0.30694000  0.49994000  0.49999000  1
  C  C3  1  0.49987000  0.35570000  0.50000000  1
  C  C4  1  0.50015000  0.64431000  0.50000000  1
  C  C5  1  0.69321000  0.00042000  0.39204000  1
  C  C6  1  0.30708000  0.99959000  0.39071000  1
  C  C7  1  0.50003000  0.14431000  0.39138000  1
  C  C8  1  0.50027000  0.85570000  0.39138000  1
  C  C9  1  0.50027000  0.77098000  0.38954000  1
  C  C10  1  0.50015000  0.72903000  0.50183000  1
  C  C11  1  0.50003000  0.22903000  0.38954000  1
  C  C12  1  0.49987000  0.27098000  0.50183000  1
  C  C13  1  0.12348000  0.49987000  0.59787000  1
  C  C14  1  0.16193000  0.50012000  0.36381000  1
  C  C15  1  0.05745000  0.50018000  0.32764000  1
  C  C16  1  0.98379000  0.50008000  0.43233000  1
  C  C17  1  0.87654000  0.50013000  0.40212000  1
  C  C18  1  0.83809000  0.49989000  0.63618000  1
  C  C19  1  0.94256000  0.49983000  0.67235000  1
  C  C20  1  0.01622000  0.49993000  0.56766000  1
  C  C21  1  0.19297000  0.49996000  0.49999000  1
  C  C22  1  0.80705000  0.50004000  0.50001000  1
  C  C23  1  0.12382000  0.00168000  0.29569000  1
  C  C24  1  0.16178000  0.00153000  0.52988000  1
  C  C25  1  0.05723000  0.00122000  0.56568000  1
  C  C26  1  0.98379000  0.00113000  0.46073000  1
  C  C27  1  0.87647000  0.00081000  0.49057000  1
  C  C28  1  0.83851000  0.00096000  0.25638000  1
  C  C29  1  0.94306000  0.00128000  0.22057000  1
  C  C30  1  0.01650000  0.00136000  0.32552000  1
  C  C31  1  0.19310000  0.00176000  0.39381000  1
  C  C32  1  0.80718000  0.00073000  0.39244000  1
  O  O1  1  0.63385000  0.49995000  0.61869000  1
  O  O2  1  0.36588000  0.49983000  0.61867000  1
  O  O3  1  0.49971000  0.39974000  0.61868000  1
  O  O4  1  0.50002000  0.60004000  0.61868000  1
  O  O5  1  0.50027000  0.60026000  0.38132000  1
  O  O6  1  0.50003000  0.39997000  0.38132000  1
  O  O7  1  0.36605000  0.49995000  0.38131000  1
  O  O8  1  0.63414000  0.50021000  0.38133000  1
  O  O9  1  0.63424000  0.00039000  0.27315000  1
  O  O10  1  0.36627000  0.99985000  0.27223000  1
  O  O11  1  0.50011000  0.10026000  0.27269000  1
  O  O12  1  0.50040000  0.89997000  0.27269000  1
  O  O13  1  0.50015000  0.89974000  0.51005000  1
  O  O14  1  0.49993000  0.10004000  0.51005000  1
  O  O15  1  0.36594000  0.99973000  0.50959000  1
  O  O16  1  0.63403000  0.00013000  0.51051000  1
  O  O17  1  0.50040000  0.73148000  0.25505000  1
  O  O18  1  0.50001000  0.76853000  0.63632000  1
  O  O19  1  0.50020000  0.26853000  0.25505000  1
  O  O20  1  0.49970000  0.23148000  0.63632000  1
