data_DB1-Cu2O8N2-DPAC_A-irmof7_A_No673_repeat
_audit_creation_date              2024-02-20
_audit_creation_method            'Materials Studio'
_symmetry_space_group_name_H-M    'P1'
_symmetry_Int_Tables_number       1
_symmetry_cell_setting            triclinic
loop_
_symmetry_equiv_pos_as_xyz
  x,y,z
_cell_length_a                    27.9154
_cell_length_b                    17.3722
_cell_length_c                    15.8500
_cell_angle_alpha                 89.9944
_cell_angle_beta                  89.9931
_cell_angle_gamma                 89.8660
loop_
_atom_site_label
_atom_site_type_symbol
_atom_site_fract_x
_atom_site_fract_y
_atom_site_fract_z
_atom_site_U_iso_or_equiv
_atom_site_adp_type
_atom_site_occupancy
Cu1    Cu    0.50001   0.50000   0.41971   0.00000  Uiso   1.00
Cu2    Cu    0.50000   0.49999   0.58029   0.00000  Uiso   1.00
O1     O     0.56229   0.49997   0.42512   0.00000  Uiso   1.00
O2     O     0.43759   0.50025   0.42513   0.00000  Uiso   1.00
O3     O     0.49988   0.60030   0.42512   0.00000  Uiso   1.00
O4     O     0.50001   0.39992   0.42513   0.00000  Uiso   1.00
O5     O     0.50011   0.39969   0.57488   0.00000  Uiso   1.00
O6     O     0.50001   0.60007   0.57487   0.00000  Uiso   1.00
O7     O     0.43766   0.50012   0.57488   0.00000  Uiso   1.00
O8     O     0.56241   0.49972   0.57487   0.00000  Uiso   1.00
C1     C     0.58984   0.49982   0.50000   0.00000  Uiso   1.00
C2     C     0.41016   0.50017   0.50001   0.00000  Uiso   1.00
C3     C     0.49995   0.64436   0.49999   0.00000  Uiso   1.00
C4     C     0.50006   0.35563   0.50001   0.00000  Uiso   1.00
Cu3    Cu    0.87768   0.49944   0.58030   0.00000  Uiso   1.00
Cu4    Cu    0.87769   0.49999   0.41972   0.00000  Uiso   1.00
O9     O     0.81540   0.49953   0.57489   0.00000  Uiso   1.00
O10    O     0.94010   0.49962   0.57488   0.00000  Uiso   1.00
O11    O     0.87758   0.59976   0.57529   0.00000  Uiso   1.00
O12    O     0.87792   0.39938   0.57449   0.00000  Uiso   1.00
O13    O     0.87781   0.39967   0.42473   0.00000  Uiso   1.00
O14    O     0.87744   0.60005   0.42553   0.00000  Uiso   1.00
O15    O     0.94003   0.50001   0.42513   0.00000  Uiso   1.00
O16    O     0.81528   0.49979   0.42514   0.00000  Uiso   1.00
C5     C     0.78784   0.49968   0.50001   0.00000  Uiso   1.00
C6     C     0.96753   0.49975   0.50000   0.00000  Uiso   1.00
C7     C     0.87740   0.64408   0.50059   0.00000  Uiso   1.00
C8     C     0.87797   0.35535   0.49943   0.00000  Uiso   1.00
N1     N     0.50001   0.50000   0.30038   0.00000  Uiso   1.00
C9     C     0.46926   0.54948   0.25392   0.00000  Uiso   1.00
C10    C     0.46916   0.54962   0.16508   0.00000  Uiso   1.00
C11    C     0.50000   0.49999   0.12006   0.00000  Uiso   1.00
C12    C     0.53084   0.45037   0.16507   0.00000  Uiso   1.00
C13    C     0.53076   0.45052   0.25391   0.00000  Uiso   1.00
C14    C     0.49999   0.50000   0.03772   0.00000  Uiso   1.00
C15    C     0.49999   0.50000   0.96228   0.00000  Uiso   1.00
C16    C     0.49999   0.49999   0.87995   0.00000  Uiso   1.00
C17    C     0.46914   0.54960   0.83493   0.00000  Uiso   1.00
C18    C     0.46923   0.54945   0.74608   0.00000  Uiso   1.00
N2     N     0.49999   0.49999   0.69962   0.00000  Uiso   1.00
C19    C     0.53075   0.45053   0.74608   0.00000  Uiso   1.00
C20    C     0.53084   0.45038   0.83493   0.00000  Uiso   1.00
H1     H     0.44646   0.58616   0.28476   0.00000  Uiso   1.00
H2     H     0.44640   0.58623   0.13391   0.00000  Uiso   1.00
H3     H     0.55356   0.41384   0.28474   0.00000  Uiso   1.00
H4     H     0.44642   0.58612   0.71525   0.00000  Uiso   1.00
H5     H     0.55356   0.41386   0.71525   0.00000  Uiso   1.00
H6     H     0.55361   0.41378   0.86610   0.00000  Uiso   1.00
C21    C     0.50004   0.27406   0.50001   0.00000  Uiso   1.00
C22    C     0.49998   0.23168   0.42345   0.00000  Uiso   1.00
C23    C     0.49996   0.15062   0.42322   0.00000  Uiso   1.00
C24    C     0.50001   0.10953   0.49999   0.00000  Uiso   1.00
C25    C     0.50007   0.15059   0.57678   0.00000  Uiso   1.00
C26    C     0.50009   0.23165   0.57656   0.00000  Uiso   1.00
C27    C     0.50000   0.03441   0.49999   0.00000  Uiso   1.00
C28    C     0.49999   0.96558   0.49998   0.00000  Uiso   1.00
C29    C     0.49997   0.89046   0.49998   0.00000  Uiso   1.00
C30    C     0.49990   0.84939   0.42320   0.00000  Uiso   1.00
C31    C     0.49989   0.76833   0.42343   0.00000  Uiso   1.00
C32    C     0.49995   0.72593   0.49999   0.00000  Uiso   1.00
C33    C     0.50003   0.76832   0.57654   0.00000  Uiso   1.00
C34    C     0.50004   0.84938   0.57677   0.00000  Uiso   1.00
H7     H     0.49994   0.25981   0.36670   0.00000  Uiso   1.00
H8     H     0.49991   0.12219   0.36656   0.00000  Uiso   1.00
H9     H     0.50013   0.25977   0.63331   0.00000  Uiso   1.00
H10    H     0.49983   0.74021   0.36668   0.00000  Uiso   1.00
H11    H     0.50008   0.74019   0.63329   0.00000  Uiso   1.00
H12    H     0.50009   0.87782   0.63342   0.00000  Uiso   1.00
C35    C     0.73557   0.49972   0.50001   0.00000  Uiso   1.00
C36    C     0.71100   0.54966   0.44549   0.00000  Uiso   1.00
C37    C     0.71110   0.44981   0.55453   0.00000  Uiso   1.00
C38    C     0.73685   0.59841   0.39224   0.00000  Uiso   1.00
C39    C     0.71376   0.64893   0.33708   0.00000  Uiso   1.00
H13    H     0.77011   0.59706   0.39368   0.00000  Uiso   1.00
C40    C     0.64212   0.49979   0.50000   0.00000  Uiso   1.00
C41    C     0.66669   0.44984   0.55452   0.00000  Uiso   1.00
C42    C     0.66659   0.54969   0.44548   0.00000  Uiso   1.00
C43    C     0.64063   0.59848   0.39223   0.00000  Uiso   1.00
C44    C     0.66361   0.64897   0.33708   0.00000  Uiso   1.00
H14    H     0.60737   0.59719   0.39366   0.00000  Uiso   1.00
C45    C     0.01829   0.49981   0.50001   0.00000  Uiso   1.00
C46    C     0.04467   0.49975   0.57656   0.00000  Uiso   1.00
C47    C     0.09511   0.49980   0.57679   0.00000  Uiso   1.00
C48    C     0.12068   0.49991   0.50002   0.00000  Uiso   1.00
C49    C     0.09512   0.49997   0.42323   0.00000  Uiso   1.00
C50    C     0.04468   0.49992   0.42346   0.00000  Uiso   1.00
C51    C     0.16743   0.49996   0.50002   0.00000  Uiso   1.00
C52    C     0.21026   0.50000   0.50003   0.00000  Uiso   1.00
C53    C     0.25701   0.50004   0.50002   0.00000  Uiso   1.00
C54    C     0.28257   0.50001   0.57680   0.00000  Uiso   1.00
C55    C     0.33301   0.50005   0.57657   0.00000  Uiso   1.00
C56    C     0.35940   0.50013   0.50001   0.00000  Uiso   1.00
C57    C     0.33302   0.50017   0.42346   0.00000  Uiso   1.00
C58    C     0.28257   0.50012   0.42324   0.00000  Uiso   1.00
H15    H     0.02716   0.49967   0.63332   0.00000  Uiso   1.00
H16    H     0.11280   0.49976   0.63345   0.00000  Uiso   1.00
H17    H     0.02718   0.49997   0.36670   0.00000  Uiso   1.00
H18    H     0.35052   0.50002   0.63332   0.00000  Uiso   1.00
H19    H     0.35053   0.50023   0.36671   0.00000  Uiso   1.00
H20    H     0.26488   0.50015   0.36658   0.00000  Uiso   1.00
N3     N     0.87767   0.50247   0.69964   0.00000  Uiso   1.00
C59    C     0.90831   0.55174   0.74629   0.00000  Uiso   1.00
C60    C     0.90841   0.55158   0.83513   0.00000  Uiso   1.00
C61    C     0.87769   0.50185   0.87996   0.00000  Uiso   1.00
C62    C     0.84696   0.45242   0.83475   0.00000  Uiso   1.00
C63    C     0.84704   0.45288   0.74591   0.00000  Uiso   1.00
C64    C     0.87769   0.50156   0.96230   0.00000  Uiso   1.00
C65    C     0.87770   0.50131   0.03773   0.00000  Uiso   1.00
C66    C     0.87770   0.50102   0.12007   0.00000  Uiso   1.00
C67    C     0.90843   0.55042   0.16528   0.00000  Uiso   1.00
C68    C     0.90834   0.54997   0.25412   0.00000  Uiso   1.00
N4     N     0.87770   0.50040   0.30039   0.00000  Uiso   1.00
C69    C     0.84705   0.45114   0.25374   0.00000  Uiso   1.00
C70    C     0.84696   0.45130   0.16489   0.00000  Uiso   1.00
H21    H     0.93102   0.58849   0.71559   0.00000  Uiso   1.00
H22    H     0.93109   0.58805   0.86644   0.00000  Uiso   1.00
H23    H     0.82433   0.41634   0.71494   0.00000  Uiso   1.00
H24    H     0.93106   0.58650   0.28510   0.00000  Uiso   1.00
H25    H     0.82433   0.41440   0.28442   0.00000  Uiso   1.00
H26    H     0.82428   0.41484   0.13358   0.00000  Uiso   1.00
C71    C     0.87584   0.27377   0.50304   0.00000  Uiso   1.00
C72    C     0.87600   0.23113   0.57943   0.00000  Uiso   1.00
C73    C     0.87621   0.15007   0.57934   0.00000  Uiso   1.00
C74    C     0.87625   0.10925   0.50240   0.00000  Uiso   1.00
C75    C     0.87609   0.15057   0.42578   0.00000  Uiso   1.00
C76    C     0.87589   0.23163   0.42632   0.00000  Uiso   1.00
C77    C     0.87644   0.03413   0.50212   0.00000  Uiso   1.00
C78    C     0.87661   0.96530   0.50186   0.00000  Uiso   1.00
C79    C     0.87680   0.89018   0.50156   0.00000  Uiso   1.00
C80    C     0.87697   0.84885   0.57817   0.00000  Uiso   1.00
C81    C     0.87717   0.76779   0.57763   0.00000  Uiso   1.00
C82    C     0.87721   0.72565   0.50091   0.00000  Uiso   1.00
C83    C     0.87703   0.76830   0.42452   0.00000  Uiso   1.00
C84    C     0.87683   0.84936   0.42461   0.00000  Uiso   1.00
H27    H     0.87597   0.25907   0.63629   0.00000  Uiso   1.00
H28    H     0.87632   0.12144   0.63589   0.00000  Uiso   1.00
H29    H     0.87578   0.25995   0.36967   0.00000  Uiso   1.00
H30    H     0.87730   0.73947   0.63427   0.00000  Uiso   1.00
H31    H     0.87705   0.74036   0.36766   0.00000  Uiso   1.00
H32    H     0.87671   0.87799   0.36807   0.00000  Uiso   1.00
O17    O     0.55966   0.40400   0.12558   0.00000  Uiso   1.00
Li1    Li    0.57028   0.38691   0.02092   0.00000  Uiso   1.00
O18    O     0.44030   0.59595   0.87440   0.00000  Uiso   1.00
Li2    Li    0.42968   0.61304   0.97906   0.00000  Uiso   1.00
O19    O     0.50012   0.11456   0.64852   0.00000  Uiso   1.00
Li3    Li    0.50012   0.01907   0.67496   0.00000  Uiso   1.00
O20    O     0.49983   0.88542   0.35146   0.00000  Uiso   1.00
Li4    Li    0.49982   0.98091   0.32501   0.00000  Uiso   1.00
O21    O     0.11755   0.50007   0.35149   0.00000  Uiso   1.00
Li5    Li    0.17697   0.50016   0.32505   0.00000  Uiso   1.00
O22    O     0.26015   0.49993   0.64855   0.00000  Uiso   1.00
Li6    Li    0.20072   0.49986   0.67500   0.00000  Uiso   1.00
O23    O     0.81825   0.40596   0.87406   0.00000  Uiso   1.00
Li7    Li    0.80767   0.38852   0.97865   0.00000  Uiso   1.00
O24    O     0.93716   0.59687   0.12598   0.00000  Uiso   1.00
Li8    Li    0.94774   0.61430   0.02139   0.00000  Uiso   1.00
O25    O     0.87613   0.11479   0.35390   0.00000  Uiso   1.00
Li9    Li    0.87635   0.01939   0.32709   0.00000  Uiso   1.00
O26    O     0.87695   0.88462   0.65006   0.00000  Uiso   1.00
Li10   Li    0.87674   0.98002   0.67688   0.00000  Uiso   1.00
C85    C     0.63891   0.39668   0.61260   0.00000  Uiso   1.00
O27    O     0.65755   0.32916   0.63429   0.00000  Uiso   1.00
O28    O     0.59876   0.41547   0.63753   0.00000  Uiso   1.00
H33    H     0.69240   0.32848   0.61617   0.00000  Uiso   1.00
C86    C     0.73900   0.39660   0.61261   0.00000  Uiso   1.00
O29    O     0.78168   0.37060   0.58894   0.00000  Uiso   1.00
O30    O     0.72144   0.37624   0.68029   0.00000  Uiso   1.00
H34    H     0.79211   0.40067   0.53727   0.00000  Uiso   1.00
C87    C     0.74196   0.70181   0.27932   0.00000  Uiso   1.00
O31    O     0.78460   0.72731   0.30347   0.00000  Uiso   1.00
O32    O     0.72469   0.72237   0.21145   0.00000  Uiso   1.00
H35    H     0.79478   0.69712   0.35526   0.00000  Uiso   1.00
C88    C     0.63530   0.70188   0.27931   0.00000  Uiso   1.00
O33    O     0.59266   0.67998   0.25123   0.00000  Uiso   1.00
O34    O     0.65248   0.76387   0.25703   0.00000  Uiso   1.00
H36    H     0.58256   0.63263   0.28412   0.00000  Uiso   1.00
