# generated using pymatgen
data_CuHC15N5(ClO3)4
_symmetry_space_group_name_H-M   'P 1'
_cell_length_a   34.99640000
_cell_length_b   24.55320000
_cell_length_c   10.00000000
_cell_angle_alpha   90.00000000
_cell_angle_beta   90.00000000
_cell_angle_gamma   135.37700000
_symmetry_Int_Tables_number   1
_chemical_formula_structural   CuHC15N5(ClO3)4
_chemical_formula_sum   'Cu4 H4 C60 N20 Cl16 O48'
_cell_volume   6035.87141306
_cell_formula_units_Z   4
loop_
 _symmetry_equiv_pos_site_id
 _symmetry_equiv_pos_as_xyz
  1  'x, y, z'
loop_
 _atom_site_type_symbol
 _atom_site_label
 _atom_site_symmetry_multiplicity
 _atom_site_fract_x
 _atom_site_fract_y
 _atom_site_fract_z
 _atom_site_occupancy
  Cu  Cu1  1  0.50013000  0.50026000  0.62726000  1
  Cu  Cu2  1  0.49987000  0.49973000  0.37274000  1
  Cu  Cu3  1  0.99962000  0.49924000  0.28188000  1
  Cu  Cu4  1  0.00008000  0.50016000  0.53639000  1
  H  H1  1  0.74956000  0.49931000  0.30205000  1
  H  H2  1  0.75019000  0.50019000  0.60716000  1
  H  H3  1  0.24984000  0.49947000  0.30202000  1
  H  H4  1  0.25011000  0.50041000  0.60714000  1
  C  C1  1  0.42730000  0.35458000  0.50091000  1
  C  C2  1  0.57270000  0.64541000  0.49909000  1
  C  C3  1  0.42839000  0.50010000  0.49999000  1
  C  C4  1  0.57161000  0.49989000  0.50000000  1
  C  C5  1  0.92732000  0.35429000  0.41070000  1
  C  C6  1  0.07238000  0.64511000  0.40758000  1
  C  C7  1  0.07156000  0.49979000  0.40912000  1
  C  C8  1  0.92814000  0.49961000  0.40916000  1
  C  C9  1  0.88547000  0.49961000  0.40916000  1
  C  C10  1  0.86503000  0.49996000  0.53008000  1
  C  C11  1  0.82501000  0.49996000  0.53024000  1
  C  C12  1  0.80424000  0.49962000  0.40893000  1
  C  C13  1  0.82473000  0.49927000  0.28832000  1
  C  C14  1  0.86472000  0.49927000  0.28824000  1
  C  C15  1  0.76162000  0.49960000  0.40144000  1
  C  C16  1  0.73814000  0.49990000  0.50777000  1
  C  C17  1  0.67502000  0.50023000  0.62087000  1
  C  C18  1  0.69552000  0.49988000  0.50026000  1
  C  C19  1  0.67475000  0.49954000  0.37894000  1
  C  C20  1  0.63472000  0.49954000  0.37910000  1
  C  C21  1  0.61428000  0.49989000  0.50001000  1
  C  C22  1  0.63503000  0.50023000  0.62094000  1
  C  C23  1  0.11424000  0.49979000  0.40913000  1
  C  C24  1  0.13503000  0.50017000  0.53004000  1
  C  C25  1  0.17506000  0.50017000  0.53021000  1
  C  C26  1  0.19547000  0.49980000  0.40890000  1
  C  C27  1  0.17462000  0.49943000  0.28829000  1
  C  C28  1  0.13463000  0.49942000  0.28821000  1
  C  C29  1  0.23807000  0.49978000  0.40142000  1
  C  C30  1  0.26187000  0.50011000  0.50774000  1
  C  C31  1  0.32533000  0.50046000  0.62085000  1
  C  C32  1  0.30447000  0.50009000  0.50024000  1
  C  C33  1  0.32488000  0.49972000  0.37892000  1
  C  C34  1  0.36491000  0.49972000  0.37909000  1
  C  C35  1  0.38571000  0.50009000  0.50000000  1
  C  C36  1  0.36532000  0.50047000  0.62092000  1
  C  C37  1  0.11568000  0.73165000  0.40704000  1
  C  C38  1  0.13666000  0.77372000  0.52793000  1
  C  C39  1  0.17732000  0.85499000  0.52710000  1
  C  C40  1  0.19783000  0.89585000  0.40556000  1
  C  C41  1  0.17715000  0.85438000  0.28522000  1
  C  C42  1  0.13650000  0.77314000  0.28558000  1
  C  C43  1  0.32253000  0.14531000  0.62326000  1
  C  C44  1  0.30184000  0.10384000  0.50292000  1
  C  C45  1  0.32235000  0.14470000  0.38138000  1
  C  C46  1  0.36302000  0.22598000  0.38056000  1
  C  C47  1  0.38400000  0.26804000  0.50145000  1
  C  C48  1  0.36317000  0.22655000  0.62290000  1
  C  C49  1  0.88448000  0.26793000  0.39746000  1
  C  C50  1  0.86363000  0.22637000  0.51887000  1
  C  C51  1  0.82293000  0.14510000  0.51906000  1
  C  C52  1  0.80225000  0.10372000  0.39803000  1
  C  C53  1  0.82279000  0.14469000  0.27717000  1
  C  C54  1  0.86348000  0.22593000  0.27652000  1
  C  C55  1  0.67772000  0.85519000  0.61883000  1
  C  C56  1  0.69827000  0.89615000  0.49797000  1
  C  C57  1  0.67758000  0.85478000  0.37694000  1
  C  C58  1  0.63688000  0.77351000  0.37714000  1
  C  C59  1  0.61604000  0.73195000  0.49854000  1
  C  C60  1  0.63704000  0.77395000  0.61948000  1
  N  N1  1  0.23949000  0.97910000  0.40148000  1
  N  N2  1  0.26019000  0.02059000  0.50701000  1
  N  N3  1  0.76055000  0.02046000  0.39498000  1
  N  N4  1  0.73996000  0.97941000  0.50103000  1
  N  N5  1  0.88556000  0.49889000  0.15619000  1
  N  N6  1  0.80379000  0.49889000  0.15573000  1
  N  N7  1  0.88629000  0.50033000  0.66205000  1
  N  N8  1  0.80531000  0.50035000  0.66445000  1
  N  N9  1  0.69444000  0.49915000  0.24474000  1
  N  N10  1  0.61347000  0.49917000  0.24712000  1
  N  N11  1  0.69595000  0.50061000  0.75346000  1
  N  N12  1  0.61419000  0.50061000  0.75298000  1
  N  N13  1  0.11339000  0.49901000  0.15616000  1
  N  N14  1  0.19517000  0.49902000  0.15571000  1
  N  N15  1  0.11416000  0.50057000  0.66201000  1
  N  N16  1  0.19515000  0.50059000  0.66442000  1
  N  N17  1  0.30479000  0.49930000  0.24472000  1
  N  N18  1  0.38578000  0.49931000  0.24711000  1
  N  N19  1  0.30479000  0.50087000  0.75344000  1
  N  N20  1  0.38656000  0.50087000  0.75297000  1
  Cl  Cl1  1  0.11152000  0.72305000  0.13225000  1
  Cl  Cl2  1  0.20243000  0.90474000  0.13215000  1
  Cl  Cl3  1  0.11187000  0.72433000  0.68194000  1
  Cl  Cl4  1  0.20269000  0.90585000  0.67968000  1
  Cl  Cl5  1  0.29725000  0.09495000  0.77634000  1
  Cl  Cl6  1  0.38816000  0.27665000  0.77624000  1
  Cl  Cl7  1  0.29699000  0.09384000  0.22880000  1
  Cl  Cl8  1  0.38781000  0.27537000  0.22655000  1
  Cl  Cl9  1  0.88828000  0.27538000  0.12257000  1
  Cl  Cl10  1  0.79729000  0.09369000  0.12473000  1
  Cl  Cl11  1  0.88865000  0.27640000  0.67226000  1
  Cl  Cl12  1  0.79774000  0.09487000  0.67227000  1
  Cl  Cl13  1  0.70323000  0.90619000  0.77127000  1
  Cl  Cl14  1  0.61224000  0.72450000  0.77343000  1
  Cl  Cl15  1  0.70277000  0.90500000  0.22374000  1
  Cl  Cl16  1  0.61187000  0.72347000  0.22374000  1
  O  O1  1  0.44967000  0.39943000  0.61931000  1
  O  O2  1  0.55057000  0.60126000  0.61804000  1
  O  O3  1  0.45044000  0.50046000  0.61867000  1
  O  O4  1  0.54980000  0.50023000  0.61868000  1
  O  O5  1  0.54957000  0.49955000  0.38133000  1
  O  O6  1  0.45019000  0.49973000  0.38132000  1
  O  O7  1  0.55031000  0.60064000  0.38069000  1
  O  O8  1  0.44945000  0.39873000  0.38196000  1
  O  O9  1  0.94940000  0.39846000  0.29154000  1
  O  O10  1  0.05009000  0.60029000  0.28938000  1
  O  O11  1  0.04953000  0.49948000  0.29044000  1
  O  O12  1  0.94996000  0.49927000  0.29047000  1
  O  O13  1  0.95019000  0.49995000  0.52783000  1
  O  O14  1  0.04974000  0.50011000  0.52780000  1
  O  O15  1  0.05040000  0.60103000  0.52673000  1
  O  O16  1  0.94961000  0.39911000  0.52890000  1
  O  O17  1  0.89387000  0.44814000  0.13777000  1
  O  O18  1  0.89761000  0.54927000  0.04570000  1
  O  O19  1  0.79548000  0.54953000  0.13558000  1
  O  O20  1  0.79167000  0.44788000  0.04644000  1
  O  O21  1  0.94529000  0.55108000  0.68034000  1
  O  O22  1  0.84805000  0.44996000  0.77259000  1
  O  O23  1  0.74656000  0.44972000  0.68726000  1
  O  O24  1  0.84484000  0.55135000  0.77265000  1
  O  O25  1  0.70256000  0.44839000  0.22278000  1
  O  O26  1  0.70554000  0.54954000  0.13567000  1
  O  O27  1  0.60510000  0.54981000  0.22796000  1
  O  O28  1  0.60108000  0.44816000  0.13745000  1
  O  O29  1  0.75490000  0.55136000  0.77276000  1
  O  O30  1  0.65745000  0.45023000  0.86361000  1
  O  O31  1  0.55525000  0.44997000  0.77226000  1
  O  O32  1  0.65277000  0.55162000  0.86262000  1
  O  O33  1  0.10503000  0.54965000  0.13684000  1
  O  O34  1  0.10103000  0.44798000  0.04656000  1
  O  O35  1  0.20343000  0.44827000  0.13646000  1
  O  O36  1  0.20696000  0.54937000  0.04552000  1
  O  O37  1  0.05522000  0.44994000  0.68120000  1
  O  O38  1  0.15273000  0.55161000  0.77166000  1
  O  O39  1  0.25397000  0.55135000  0.68634000  1
  O  O40  1  0.15595000  0.45023000  0.77351000  1
  O  O41  1  0.29660000  0.54992000  0.22186000  1
  O  O42  1  0.29337000  0.44827000  0.13655000  1
  O  O43  1  0.39409000  0.44856000  0.22885000  1
  O  O44  1  0.39784000  0.54967000  0.13654000  1
  O  O45  1  0.24590000  0.45023000  0.77363000  1
  O  O46  1  0.34362000  0.55190000  0.86270000  1
  O  O47  1  0.44555000  0.55163000  0.77135000  1
  O  O48  1  0.34830000  0.45052000  0.86350000  1
