# Generated by REPEAT Assigner based on pymatgen
data_DB1-Cu2O8N2-fum_A-irmof10_A_No4
_audit_creation_date              2022-05-24
_audit_creation_method            REPEAT_Assigner
_cell_length_a                    14.266500
_cell_length_b                    15.822600
_cell_length_c                    15.822100
_cell_angle_alpha                 96.106900
_cell_angle_beta                  69.826000
_cell_angle_gamma                 110.178000
_cell_volume                      3146.379062
_symmetry_space_group_name_H-M    P1
_symmetry_Int_Tables_number       1
loop_
    _symmetry_equiv_pos_site_id
    _symmetry_equiv_pos_as_xyz
    1  x,y,z
loop_
    _atom_site_type_symbol
    _atom_site_label
    _atom_site_fract_x
    _atom_site_fract_y
    _atom_site_fract_z
    _atom_type_partial_charge
    Cu  Cu1  0.419340  0.509690  0.490310  1.232400
    Cu  Cu2  0.580670  0.490320  0.509680  1.230218
    O   O1   0.482920  0.508980  0.374620  -0.675519
    O   O2   0.366400  0.508830  0.607540  -0.586470
    O   O3   0.366370  0.392450  0.491190  -0.586099
    O   O4   0.482940  0.625360  0.490970  -0.675563
    O   O5   0.633620  0.607560  0.508830  -0.586410
    O   O6   0.517090  0.374650  0.508980  -0.674999
    O   O7   0.516980  0.490900  0.625460  -0.674856
    O   O8   0.633630  0.491220  0.392450  -0.586042
    C   C1   0.583940  0.500090  0.332190  0.577425
    C   C2   0.416070  0.499920  0.667800  0.577513
    C   C3   0.416060  0.332200  0.500070  0.576753
    C   C4   0.583960  0.667810  0.499910  0.576713
    Cu  Cu3  0.080670  0.490320  0.509680  1.233542
    Cu  Cu4  0.919340  0.509690  0.490310  1.230548
    O   O9   0.017080  0.374640  0.508980  -0.675438
    O   O10  0.133620  0.607550  0.508810  -0.586809
    O   O11  0.133630  0.491200  0.392440  -0.586350
    O   O12  0.017080  0.490990  0.625350  -0.675794
    O   O13  0.866400  0.508850  0.607550  -0.586749
    O   O14  0.982920  0.508990  0.374640  -0.674440
    O   O15  0.983040  0.625470  0.490890  -0.674646
    O   O16  0.866370  0.392460  0.491210  -0.586149
    C   C5   0.916050  0.332200  0.500080  0.576848
    C   C6   0.083950  0.667810  0.499910  0.577695
    C   C7   0.083930  0.500080  0.332190  0.574992
    C   C8   0.916070  0.499930  0.667800  0.576822
    N   N1   0.799460  0.524080  0.475920  -0.008514
    N   N2   0.700550  0.475930  0.524070  -0.007605
    N   N3   0.200550  0.475930  0.524070  -0.008764
    N   N4   0.299460  0.524080  0.475920  -0.008563
    C   C9   0.367850  0.235750  0.500050  -0.064921
    C   C10  0.132170  0.764260  0.499930  -0.065287
    C   C11  0.268170  0.197690  0.491040  -0.011248
    C   C12  0.220560  0.103940  0.490940  -0.258895
    C   C13  0.231840  0.802320  0.508930  -0.011267
    C   C14  0.279450  0.896070  0.509040  -0.258928
    C   C15  0.079660  0.820570  0.490950  -0.057206
    C   C16  0.125860  0.914490  0.490890  -0.226811
    C   C17  0.420360  0.179440  0.509030  -0.056945
    C   C18  0.374160  0.085520  0.509090  -0.227117
    C   C19  0.273640  0.047280  0.500000  0.138704
    C   C20  0.226380  0.952730  0.499980  0.138737
    H   H1   0.231480  0.236130  0.484820  0.095504
    H   H2   0.151740  0.078570  0.484670  0.164850
    H   H3   0.268540  0.763880  0.515160  0.095494
    H   H4   0.348270  0.921440  0.515310  0.164856
    H   H5   0.010860  0.794780  0.484710  0.125671
    H   H6   0.088750  0.952560  0.484640  0.137529
    H   H7   0.489160  0.205230  0.515270  0.125603
    H   H8   0.411270  0.047450  0.515340  0.137667
    C   C21  0.632180  0.764260  0.499930  -0.064057
    C   C22  0.867900  0.235740  0.500020  -0.064488
    C   C23  0.579690  0.820570  0.490920  -0.058117
    C   C24  0.625900  0.914490  0.490850  -0.225831
    C   C25  0.920390  0.179430  0.509040  -0.057394
    C   C26  0.874180  0.085520  0.509100  -0.227025
    C   C27  0.768240  0.197690  0.490990  -0.011476
    C   C28  0.720620  0.103950  0.490890  -0.259146
    C   C29  0.731840  0.802310  0.508960  -0.011995
    C   C30  0.779460  0.896060  0.509070  -0.258246
    C   C31  0.726410  0.952730  0.499970  0.137819
    C   C32  0.773670  0.047270  0.499990  0.139048
    H   H9   0.510900  0.794790  0.484660  0.125878
    H   H10  0.588810  0.952570  0.484580  0.137202
    H   H11  0.989180  0.205220  0.515300  0.125766
    H   H12  0.911270  0.047440  0.515380  0.137634
    H   H13  0.731560  0.236130  0.484740  0.095471
    H   H14  0.651810  0.078580  0.484600  0.165013
    H   H15  0.768520  0.763870  0.515210  0.095703
    H   H16  0.848270  0.921430  0.515350  0.164676
    C   C33  0.632160  0.500070  0.235740  -0.065624
    C   C34  0.867860  0.499950  0.764250  -0.064436
    C   C35  0.579650  0.509030  0.179420  -0.056645
    C   C36  0.625850  0.509090  0.085500  -0.227448
    C   C37  0.920370  0.490990  0.820570  -0.057365
    C   C38  0.874170  0.490920  0.914490  -0.226999
    C   C39  0.768180  0.508940  0.802300  -0.011748
    C   C40  0.720560  0.509050  0.896050  -0.258691
    C   C41  0.731840  0.491080  0.197690  -0.010985
    C   C42  0.779460  0.490970  0.103940  -0.258873
    C   C43  0.726380  0.500020  0.047270  0.138877
    C   C44  0.773640  0.500000  0.952720  0.138626
    H   H17  0.510850  0.515260  0.205200  0.125562
    H   H18  0.588750  0.515340  0.047430  0.137844
    H   H19  0.989170  0.484750  0.794790  0.125840
    H   H20  0.911270  0.484680  0.952560  0.137687
    H   H21  0.731480  0.515160  0.763860  0.095746
    H   H22  0.651740  0.515300  0.921410  0.164712
    H   H23  0.768540  0.484860  0.236130  0.095455
    H   H24  0.848280  0.484710  0.078580  0.164678
    C   C45  0.367910  0.500030  0.764250  -0.065545
    C   C46  0.132480  0.500580  0.235740  -0.062025
    C   C47  0.268290  0.509140  0.802310  -0.010945
    C   C48  0.220730  0.509340  0.896060  -0.261412
    C   C49  0.232100  0.491460  0.197690  -0.013064
    C   C50  0.279660  0.491270  0.103940  -0.256992
    C   C51  0.079980  0.509580  0.179440  -0.058503
    C   C52  0.126130  0.509560  0.085520  -0.225230
    C   C53  0.420410  0.491030  0.820560  -0.056133
    C   C54  0.374260  0.491050  0.914480  -0.228919
    C   C55  0.273800  0.500250  0.952730  0.142855
    C   C56  0.226590  0.500360  0.047270  0.134921
    H   H25  0.231600  0.515390  0.763870  0.095709
    H   H26  0.151950  0.515680  0.921430  0.165482
    H   H27  0.268790  0.485220  0.236120  0.095957
    H   H28  0.348440  0.484930  0.078570  0.164280
    H   H29  0.011220  0.515900  0.205220  0.125723
    H   H30  0.089030  0.515820  0.047440  0.137393
    H   H31  0.489170  0.484710  0.794770  0.125438
    H   H32  0.411360  0.484780  0.952550  0.138124
    Cl  Cl1  0.821250  0.604060  0.395930  0.059636
    Cl  Cl2  0.678760  0.395950  0.604060  0.059652
    Cl  Cl3  0.178760  0.395950  0.604060  0.059468
    Cl  Cl4  0.321250  0.604060  0.395930  0.059806
