# Generated by REPEAT Assigner based on pymatgen
data_DB1-Cu2N8-BDC_B-irmof20_B_No487
_audit_creation_date              2022-05-24
_audit_creation_method            REPEAT_Assigner
_cell_length_a                    16.346700
_cell_length_b                    13.442900
_cell_length_c                    7.052800
_cell_angle_alpha                 74.792000
_cell_angle_beta                  115.560000
_cell_angle_gamma                 119.625000
_cell_volume                      1213.008840
_symmetry_space_group_name_H-M    P1
_symmetry_Int_Tables_number       1
loop_
    _symmetry_equiv_pos_site_id
    _symmetry_equiv_pos_as_xyz
    1  x,y,z
loop_
    _atom_site_type_symbol
    _atom_site_label
    _atom_site_fract_x
    _atom_site_fract_y
    _atom_site_fract_z
    _atom_type_partial_charge
    Cu  Cu1  0.500000  0.500000  0.000000  0.329632
    Cu  Cu2  0.500000  0.500000  0.500000  0.280650
    N   N1   0.613310  0.612320  0.213340  -0.033251
    N   N2   0.696540  0.696910  0.190990  -0.408372
    N   N3   0.500880  0.371840  0.408760  0.017481
    N   N4   0.499710  0.275870  0.518870  -0.319275
    N   N5   0.386700  0.387680  0.599060  0.162731
    N   N6   0.303460  0.303090  0.494810  -0.578943
    N   N7   0.499120  0.628160  0.778840  0.023475
    N   N8   0.500290  0.724130  0.795330  -0.294983
    N   N9   0.386700  0.387680  0.786660  0.001915
    N   N10  0.303460  0.303090  0.809010  -0.473826
    N   N11  0.499120  0.628160  0.591240  -0.012844
    N   N12  0.500290  0.724130  0.481130  -0.267451
    N   N13  0.613310  0.612320  0.400940  0.098993
    N   N14  0.696540  0.696910  0.505190  -0.480303
    N   N15  0.500880  0.371840  0.221160  0.045795
    N   N16  0.499710  0.275870  0.204670  -0.344203
    C   C1   0.746540  0.746850  0.373120  0.828330
    C   C2   0.499770  0.218980  0.390280  0.670706
    C   C3   0.253460  0.253150  0.626880  0.860758
    C   C4   0.500230  0.781020  0.609720  0.612941
    C   C5   0.500110  0.892080  0.554070  -0.461646
    C   C6   0.499890  0.107920  0.445930  -0.498614
    C   C7   0.500060  0.946410  0.356790  0.253335
    C   C8   0.499940  0.053590  0.643210  0.274751
    C   C9   0.499940  0.053590  0.303090  0.283493
    C   C10  0.500060  0.946410  0.696910  0.261571
    C   C11  0.906320  0.906430  0.603500  0.167051
    S   S1   0.902130  0.902240  0.233960  0.138506
    C   C12  0.093680  0.093570  0.396500  -0.137916
    H   H1   0.112660  0.112520  0.280190  0.178025
    S   S2   0.097870  0.097750  0.766040  0.056766
    C   C13  0.847600  0.847780  0.423710  -0.473785
    C   C14  0.152400  0.152220  0.576290  -0.356579
    C   C15  0.000000  -0.000000  0.403090  0.033930
    C   C16  -0.000000  -0.000000  0.596910  0.048319
    O   O1   0.500120  0.888250  0.200510  -0.348736
    H   H2   0.500210  0.804170  0.271400  0.255084
    O   O2   0.499880  0.111750  0.799490  -0.356090
    H   H3   0.499790  0.195830  0.728610  0.266280
    O   O3   0.499880  0.111750  0.088520  -0.371697
    H   H4   0.499790  0.195820  0.075150  0.282582
    O   O4   0.500120  0.888250  0.911480  -0.365825
    H   H5   0.500210  0.804170  0.924850  0.270245
    Cl  Cl1  0.870430  0.870590  0.823500  -0.119004
