# Generated by REPEAT Assigner based on pymatgen
data_DB1-Zn2O8N2-irmof14_A-irmof8_A_No306
_audit_creation_date              2022-05-24
_audit_creation_method            REPEAT_Assigner
_cell_length_a                    13.190800
_cell_length_b                    28.287900
_cell_length_c                    14.421900
_cell_angle_alpha                 90.041700
_cell_angle_beta                  89.874200
_cell_angle_gamma                 89.789600
_cell_volume                      5381.337506
_symmetry_space_group_name_H-M    P1
_symmetry_Int_Tables_number       1
loop_
    _symmetry_equiv_pos_site_id
    _symmetry_equiv_pos_as_xyz
    1  x,y,z
loop_
    _atom_site_type_symbol
    _atom_site_label
    _atom_site_fract_x
    _atom_site_fract_y
    _atom_site_fract_z
    _atom_type_partial_charge
    O   O1   0.500940  0.431820  0.594150  -0.565198
    O   O2   0.500430  0.431830  0.405680  -0.553842
    C   C1   0.500630  0.407810  0.499930  0.462915
    Zn  Zn1  0.500000  0.500010  0.614940  1.002618
    O   O3   0.646170  0.500030  0.405580  -0.561411
    O   O4   0.646240  0.500090  0.594060  -0.545415
    C   C2   0.697740  0.500040  0.499840  0.484350
    O   O5   0.499260  0.568190  0.405850  -0.575469
    O   O6   0.499390  0.568180  0.594320  -0.577963
    C   C3   0.499290  0.592210  0.500080  0.526574
    Zn  Zn2  0.500010  0.500000  0.385060  1.000826
    O   O7   0.353830  0.499890  0.594420  -0.547069
    O   O8   0.353770  0.500000  0.405950  -0.564998
    C   C4   0.302270  0.499810  0.500160  0.499342
    O   O9   0.500080  0.034480  0.405900  -0.570041
    O   O10  0.499830  0.034480  0.594370  -0.557221
    C   C5   0.499840  0.058500  0.500120  0.477103
    Zn  Zn3  0.499280  0.966300  0.385110  1.004049
    O   O11  0.645740  0.965860  0.593710  -0.565804
    O   O12  0.645550  0.965790  0.405240  -0.546941
    C   C6   0.697180  0.965690  0.499180  0.478215
    O   O13  0.498990  0.898120  0.594200  -0.572190
    O   O14  0.498860  0.898130  0.405730  -0.576729
    C   C7   0.498960  0.874100  0.499970  0.530716
    Zn  Zn4  0.499600  0.966300  0.614990  1.007670
    O   O15  0.353140  0.966840  0.406380  -0.541406
    O   O16  0.353340  0.966730  0.594860  -0.568027
    C   C8   0.301710  0.967070  0.500910  0.471548
    C   C9   0.564210  0.470280  0.800770  -0.056727
    C   C10  0.561070  0.471740  0.897800  0.035947
    C   C11  0.623700  0.442740  0.951270  0.013174
    H   H1   0.608500  0.449780  0.770370  0.228181
    C   C12  0.435800  0.529730  0.801120  -0.072501
    C   C13  0.438950  0.528280  0.898130  -0.023007
    C   C14  0.376320  0.557270  0.951940  0.150584
    H   H2   0.391510  0.550240  0.770960  0.223326
    C   C15  0.435820  0.529730  0.199230  -0.084858
    C   C16  0.438960  0.528270  0.102200  0.021514
    C   C17  0.376320  0.557270  0.048730  0.023952
    H   H3   0.391530  0.550230  0.229630  0.264302
    C   C18  0.564220  0.470280  0.198880  -0.082218
    C   C19  0.561080  0.471740  0.101870  0.063141
    C   C20  0.623700  0.442740  0.048060  0.072740
    H   H4   0.608510  0.449770  0.229040  0.224232
    N   N1   0.500000  0.500010  0.750160  -0.013915
    C   C21  0.500010  0.500000  0.954230  0.096411
    N   N2   0.500020  0.500000  0.249840  0.000988
    C   C22  0.500010  0.500010  0.045770  0.048216
    C   C23  0.499010  0.789820  0.432140  -0.157016
    C   C24  0.499100  0.807560  0.594420  0.002670
    C   C25  0.499170  0.759590  0.619520  -0.212674
    C   C26  0.499170  0.725730  0.546950  0.211261
    C   C27  0.499240  0.676490  0.567910  -0.163571
    C   C28  0.499150  0.658750  0.405630  0.000105
    C   C29  0.499080  0.706720  0.380530  -0.212827
    C   C30  0.499080  0.740580  0.453110  0.208119
    C   C31  0.499020  0.821770  0.499990  -0.008453
    C   C32  0.499230  0.644540  0.500060  0.000355
    H   H5   0.498970  0.800850  0.359570  0.135039
    H   H6   0.499110  0.834350  0.647910  0.092865
    H   H7   0.499280  0.665460  0.640480  0.136676
    H   H8   0.499140  0.631960  0.352150  0.094766
    C   C33  0.500240  0.334600  0.417370  -0.196072
    C   C34  0.500140  0.285130  0.421440  0.099703
    C   C35  0.499860  0.257750  0.340880  0.046641
    H   H9   0.500120  0.350000  0.360380  0.210064
    C   C36  0.500690  0.334680  0.582570  -0.131826
    C   C37  0.500570  0.285210  0.578550  0.064442
    C   C38  0.500720  0.257910  0.659140  0.041869
    H   H10  0.500880  0.350150  0.639530  0.175914
    C   C39  0.500230  0.131710  0.582680  -0.191323
    C   C40  0.500330  0.181170  0.578600  0.094713
    C   C41  0.500610  0.208560  0.659170  0.048496
    H   H11  0.500350  0.116300  0.639660  0.208935
    C   C42  0.499790  0.131630  0.417480  -0.123138
    C   C43  0.499910  0.181100  0.421500  0.053686
    C   C44  0.499750  0.208400  0.340910  0.047545
    H   H12  0.499600  0.116160  0.360510  0.173621
    C   C45  0.500520  0.360530  0.499950  0.106745
    C   C46  0.500290  0.256490  0.500010  0.020026
    C   C47  0.499950  0.105780  0.500090  0.094637
    C   C48  0.500180  0.209820  0.500040  0.033257
    C   C49  0.121390  0.499900  0.567930  -0.146929
    C   C50  0.159750  0.499830  0.405660  0.026921
    C   C51  0.056940  0.499860  0.380520  -0.218881
    C   C52  0.984180  0.499920  0.453080  0.167131
    C   C53  0.878620  0.499950  0.432070  -0.137429
    C   C54  0.840260  0.500020  0.594340  -0.019397
    C   C55  0.943070  0.499990  0.619480  -0.215284
    C   C56  0.015830  0.499940  0.546930  0.235436
    C   C57  0.190030  0.499850  0.500100  -0.021119
    C   C58  0.809980  0.500000  0.499900  0.018938
    H   H13  0.144880  0.499930  0.640510  0.099313
    H   H14  0.217320  0.499800  0.352190  0.119716
    H   H15  0.855120  0.499920  0.359490  0.112785
    H   H16  0.782680  0.500060  0.647800  0.102012
    C   C59  0.563170  0.995840  0.198950  -0.057320
    C   C60  0.559900  0.994400  0.101930  0.033263
    C   C61  0.622390  0.023210  0.048140  0.016842
    H   H17  0.607450  0.016220  0.229120  0.229327
    C   C62  0.434900  0.936760  0.199260  -0.081899
    C   C63  0.437910  0.938210  0.102230  -0.018215
    C   C64  0.375280  0.909400  0.048750  0.147825
    H   H18  0.390700  0.916390  0.229650  0.227139
    C   C65  0.434370  0.936770  0.801150  -0.103658
    C   C66  0.437640  0.938210  0.898170  0.033403
    C   C67  0.375150  0.909400  0.951960  0.022716
    H   H19  0.390100  0.916390  0.770980  0.268311
    C   C68  0.562640  0.995850  0.800830  -0.087283
    C   C69  0.559630  0.994400  0.897870  0.066942
    C   C70  0.622260  0.023210  0.951350  0.069497
    H   H20  0.606840  0.016220  0.770450  0.226151
    N   N3   0.499100  0.966300  0.249880  -0.010860
    C   C71  0.498830  0.966300  0.045820  0.097940
    N   N4   0.498440  0.966310  0.750210  0.010187
    C   C72  0.498710  0.966300  0.954280  0.042352
    C   C73  0.120740  0.964600  0.428910  -0.183214
    C   C74  0.159320  0.964560  0.590980  -0.012564
    C   C75  0.056540  0.964830  0.616650  -0.204343
    C   C76  0.983680  0.964990  0.544470  0.154102
    C   C77  0.878150  0.965260  0.566030  -0.139497
    C   C78  0.839570  0.965300  0.403950  -0.027521
    C   C79  0.942340  0.965030  0.378280  -0.213966
    C   C80  0.015210  0.964880  0.450460  0.251953
    C   C81  0.189470  0.964450  0.496390  0.035020
    C   C82  0.809420  0.965410  0.498550  0.030813
    H   H21  0.144130  0.964510  0.356210  0.105857
    H   H22  0.216960  0.964430  0.644150  0.134773
    H   H23  0.854750  0.965360  0.638720  0.113780
    H   H24  0.781920  0.965430  0.350790  0.104670
    O   O17  0.753370  0.426180  0.178680  -0.286074
    O   O18  0.707810  0.360320  0.064150  -0.170641
    N   N5   0.695530  0.409480  0.097350  0.228325
    O   O19  0.660130  0.382400  0.820200  -0.258013
    O   O20  0.801040  0.404110  0.934470  -0.187398
    N   N6   0.695530  0.409490  0.901590  0.246802
    O   O21  0.246660  0.573830  0.179930  -0.289721
    O   O22  0.292220  0.639690  0.065410  -0.168425
    N   N7   0.304500  0.590520  0.098410  0.205072
    O   O23  0.339880  0.617620  0.821200  -0.263087
    O   O24  0.198980  0.595900  0.935980  -0.192351
    N   N8   0.304490  0.590530  0.902650  0.210417
    O   O25  0.565600  0.141460  0.233820  -0.189156
    O   O26  0.432990  0.200110  0.173020  -0.184287
    N   N9   0.499440  0.183120  0.248520  0.207105
    O   O27  0.433440  0.324580  0.234280  -0.266077
    O   O28  0.565710  0.265870  0.172420  -0.137810
    N   N10  0.499670  0.282930  0.248460  0.202464
    O   O29  0.434470  0.142020  0.766330  -0.265416
    O   O30  0.567330  0.200150  0.827060  -0.137470
    N   N11  0.500800  0.183380  0.751580  0.202725
    O   O31  0.567440  0.324550  0.765660  -0.190028
    O   O32  0.434910  0.266490  0.827590  -0.183508
    N   N12  0.501030  0.283180  0.751530  0.207730
    O   O33  0.751710  0.039390  0.820070  -0.286753
    O   O34  0.706150  0.105390  0.934830  -0.170495
    N   N13  0.693940  0.056260  0.901690  0.229753
    O   O35  0.658850  0.083450  0.179020  -0.259140
    O   O36  0.799660  0.061330  0.064030  -0.187234
    N   N14  0.694200  0.056260  0.097450  0.246971
    O   O37  0.245350  0.893220  0.821430  -0.291753
    O   O38  0.291220  0.827220  0.935710  -0.170382
    N   N15  0.303340  0.876350  0.902640  0.209536
    O   O39  0.339170  0.849160  0.179680  -0.263002
    O   O40  0.198060  0.871280  0.065630  -0.190122
    N   N16  0.303600  0.876350  0.098410  0.209228
    Br  Br1  0.498960  0.728260  0.242870  -0.003547
    Br  Br2  0.499310  0.738050  0.757180  -0.003802
    Br  Br3  0.989000  0.500020  0.757150  -0.003423
    Br  Br4  0.011020  0.499840  0.242850  0.048709
    Br  Br5  0.988080  0.964870  0.240370  -0.003731
    Br  Br6  0.010810  0.964990  0.754560  0.047338
