# Generated by REPEAT Assigner based on pymatgen
data_DB1-Zn2O8-DABCO_A-irmof8_A_No20
_audit_creation_date              2022-05-24
_audit_creation_method            REPEAT_Assigner
_cell_length_a                    22.144900
_cell_length_b                    16.724600
_cell_length_c                    10.000000
_cell_angle_alpha                 90.000000
_cell_angle_beta                  90.000000
_cell_angle_gamma                 51.984400
_cell_volume                      2917.891893
_symmetry_space_group_name_H-M    P1
_symmetry_Int_Tables_number       1
loop_
    _symmetry_equiv_pos_site_id
    _symmetry_equiv_pos_as_xyz
    1  x,y,z
loop_
    _atom_site_type_symbol
    _atom_site_label
    _atom_site_fract_x
    _atom_site_fract_y
    _atom_site_fract_z
    _atom_type_partial_charge
    O   O1   0.425910  0.645730  0.636370  -0.528473
    O   O2   0.425280  0.646150  0.364570  -0.513991
    C   C1   0.399210  0.697350  0.500700  0.400516
    Zn  Zn1  0.500220  0.499690  0.665770  1.283513
    O   O3   0.581510  0.511280  0.364080  -0.541842
    O   O4   0.581960  0.510680  0.635890  -0.528356
    C   C2   0.610500  0.514940  0.500110  -0.018545
    O   O5   0.574220  0.354250  0.363620  -0.512485
    O   O6   0.574630  0.353800  0.635430  -0.529374
    C   C3   0.600760  0.302620  0.499300  0.401609
    Zn  Zn2  0.499800  0.500280  0.334230  1.278845
    O   O7   0.418410  0.488890  0.635920  -0.530811
    O   O8   0.418140  0.489120  0.364100  -0.540175
    C   C4   0.389340  0.485380  0.499890  -0.017691
    O   O9   0.932640  0.647540  0.361030  -0.543937
    O   O10  0.933400  0.647980  0.632830  -0.498731
    C   C5   0.909820  0.699320  0.496690  0.414328
    Zn  Zn3  0.999080  0.501130  0.331650  1.290606
    O   O11  0.911130  0.504670  0.634200  -0.546342
    O   O12  0.910710  0.504050  0.362390  -0.521785
    C   C6   0.879710  0.505480  0.498480  -0.021285
    O   O13  0.065960  0.355310  0.633790  -0.497930
    O   O14  0.065420  0.354850  0.361990  -0.539754
    C   C7   0.088940  0.303520  0.498120  0.411790
    Zn  Zn4  0.999620  0.501710  0.663170  1.270193
    O   O15  0.087480  0.498380  0.360610  -0.523236
    O   O16  0.088080  0.498610  0.632430  -0.545911
    C   C8   0.118840  0.497710  0.496340  -0.020719
    C   C9   0.754360  0.411990  0.463950  -0.244819
    C   C10  0.825160  0.409370  0.464230  -0.238585
    C   C11  0.810400  0.507910  0.498900  1.074916
    C   C12  0.747120  0.581660  0.402830  -0.269971
    C   C13  0.676210  0.584470  0.403700  -0.261489
    C   C14  0.679130  0.512530  0.499700  1.082631
    C   C15  0.697460  0.538160  0.630790  -0.239616
    C   C16  0.768040  0.536110  0.630210  -0.232656
    C   C17  0.245390  0.589480  0.463630  -0.244342
    C   C18  0.174250  0.592860  0.463400  -0.239446
    C   C19  0.188480  0.494540  0.497250  1.073556
    C   C20  0.251620  0.420800  0.400970  -0.269862
    C   C21  0.322860  0.417230  0.402330  -0.259981
    C   C22  0.320380  0.488520  0.498980  1.082445
    C   C23  0.301810  0.462770  0.629700  -0.242542
    C   C24  0.230890  0.465570  0.628620  -0.227989
    C   C25  0.817270  0.879850  0.399600  -0.298668
    C   C26  0.837070  0.841510  0.633490  -0.102299
    C   C27  0.784540  0.944090  0.670100  -0.067772
    C   C28  0.747260  0.016740  0.565730  0.141184
    C   C29  0.693320  0.122080  0.596400  -0.288691
    C   C30  0.673510  0.160430  0.362510  -0.121246
    C   C31  0.726040  0.057840  0.325890  -0.062075
    C   C32  0.763330  0.985190  0.430270  0.142288
    C   C33  0.852440  0.811320  0.497180  0.213006
    C   C34  0.658140  0.190610  0.498820  0.220390
    H   H1   0.829200  0.856440  0.294840  0.170868
    H   H2   0.866580  0.784030  0.710390  0.103156
    H   H3   0.681380  0.145490  0.701150  0.163430
    H   H4   0.644010  0.217910  0.285620  0.115277
    C   C35  0.181870  0.120510  0.404700  -0.298149
    C   C36  0.163110  0.157750  0.638930  -0.097606
    C   C37  0.215900  0.055010  0.674640  -0.068522
    C   C38  0.252770  0.982860  0.569630  0.136456
    C   C39  0.306940  0.877400  0.599380  -0.283766
    C   C40  0.325700  0.840160  0.365160  -0.119601
    C   C41  0.272910  0.942910  0.329440  -0.067373
    C   C42  0.236050  0.015050  0.434450  0.148580
    C   C43  0.147090  0.188570  0.502880  0.205047
    C   C44  0.341730  0.809340  0.501200  0.218879
    H   H5   0.169430  0.144420  0.300160  0.171902
    H   H6   0.133920  0.214860  0.716330  0.100778
    H   H7   0.319390  0.853490  0.703920  0.158259
    H   H8   0.354900  0.783050  0.287770  0.115120
    S   S1   0.745630  0.019380  0.158950  0.710879
    O   O17  0.701110  0.970980  0.110390  -0.427645
    O   O18  0.719670  0.109300  0.058670  -0.354949
    H   H9   0.740610  0.912920  0.055900  0.357886
    O   O19  0.834360  0.930550  0.134790  -0.344548
    S   S2   0.764970  0.982540  0.837050  0.705559
    O   O20  0.680330  0.012610  0.886080  -0.427645
    O   O21  0.828550  0.897960  0.937180  -0.350632
    H   H10  0.659090  0.073260  0.940520  0.356995
    O   O22  0.756860  0.082820  0.860920  -0.342876
    S   S3   0.252520  0.982140  0.162840  0.715911
    O   O23  0.296680  0.030960  0.113880  -0.429572
    O   O24  0.278110  0.892660  0.062020  -0.353324
    H   H11  0.256890  0.089240  0.060010  0.356657
    O   O25  0.163650  0.070960  0.139970  -0.350446
    S   S4   0.236280  0.015780  0.841240  0.710957
    O   O26  0.321090  0.985670  0.889190  -0.427999
    O   O27  0.173120  0.099820  0.942360  -0.347833
    H   H12  0.342650  0.924750  0.943210  0.360220
    O   O28  0.244650  0.915280  0.864750  -0.338725
