# Generated by REPEAT Assigner based on pymatgen
data_DB1-Zn2O8N2-DPAC_A-irmof8_A_No320
_audit_creation_date              2022-05-24
_audit_creation_method            REPEAT_Assigner
_cell_length_a                    30.763400
_cell_length_b                    17.572400
_cell_length_c                    16.737700
_cell_angle_alpha                 90.040700
_cell_angle_beta                  89.870000
_cell_angle_gamma                 89.760900
_cell_volume                      9048.074764
_symmetry_space_group_name_H-M    P1
_symmetry_Int_Tables_number       1
loop_
    _symmetry_equiv_pos_site_id
    _symmetry_equiv_pos_as_xyz
    1  x,y,z
loop_
    _atom_site_type_symbol
    _atom_site_label
    _atom_site_fract_x
    _atom_site_fract_y
    _atom_site_fract_z
    _atom_type_partial_charge
    O   O1    0.500320  0.390250  0.581110  -0.355010
    O   O2    0.500100  0.390270  0.418720  -0.345398
    C   C1    0.500160  0.351590  0.499930  0.179413
    Zn  Zn1   0.500000  0.500010  0.599040  0.805744
    O   O3    0.562680  0.499850  0.418640  -0.514264
    O   O4    0.562700  0.499950  0.581040  -0.448192
    C   C2    0.584790  0.499800  0.499860  0.387601
    O   O5    0.499770  0.609780  0.418880  -0.344031
    O   O6    0.499820  0.609750  0.581280  -0.296891
    C   C3    0.499810  0.648440  0.500080  0.170051
    Zn  Zn2   0.500000  0.500020  0.400960  0.816909
    O   O7    0.437320  0.500020  0.581360  -0.444901
    O   O8    0.437300  0.500210  0.418970  -0.422105
    C   C4    0.415220  0.499970  0.500140  0.272553
    O   O9    0.928660  0.388180  0.418830  -0.351933
    O   O10   0.928880  0.388390  0.581220  -0.344516
    C   C5    0.928890  0.349610  0.500010  0.157506
    Zn  Zn3   0.928790  0.497920  0.400930  0.812213
    O   O11   0.866110  0.498550  0.581330  -0.513762
    O   O12   0.866090  0.498450  0.418930  -0.449612
    C   C6    0.844000  0.498600  0.500110  0.390125
    O   O13   0.928830  0.607890  0.581110  -0.345308
    O   O14   0.928780  0.607680  0.418710  -0.298739
    C   C7    0.928720  0.646460  0.499930  0.166342
    Zn  Zn4   0.928780  0.498160  0.599010  0.821001
    O   O15   0.991460  0.497370  0.418610  -0.450613
    O   O16   0.991490  0.497750  0.581000  -0.424888
    C   C8    0.013570  0.497210  0.499830  0.281571
    N   N1    0.500010  0.500020  0.284450  -0.215304
    C   C9    0.528030  0.451210  0.240300  0.257683
    C   C10   0.528110  0.451050  0.156170  -0.390102
    C   C11   0.500010  0.500000  0.113690  0.408856
    C   C12   0.471910  0.548970  0.156470  -0.396775
    C   C13   0.472000  0.548830  0.240600  0.418525
    C   C14   0.500010  0.500000  0.035720  -0.104983
    C   C15   0.500010  0.499990  0.964280  -0.070030
    C   C16   0.500000  0.499990  0.886310  0.371978
    C   C17   0.528090  0.451020  0.843520  -0.370862
    C   C18   0.528000  0.451170  0.759390  0.267800
    N   N2    0.500000  0.500000  0.715550  -0.153718
    C   C19   0.471990  0.548820  0.759710  0.387065
    C   C20   0.471910  0.548970  0.843840  -0.380149
    H   H1    0.548840  0.414930  0.126540  0.171383
    H   H2    0.451180  0.585080  0.127060  0.132016
    H   H3    0.548810  0.414880  0.872930  0.163752
    H   H4    0.451190  0.585100  0.873480  0.132207
    C   C21   0.500110  0.270950  0.499950  0.121003
    C   C22   0.500130  0.229100  0.572450  0.143554
    C   C23   0.500080  0.148970  0.572690  -0.315217
    C   C24   0.500030  0.108300  0.499990  0.303669
    C   C25   0.500010  0.148840  0.427270  -0.295586
    C   C26   0.500050  0.228970  0.427460  0.116941
    C   C27   0.499990  0.034030  0.500010  -0.102333
    C   C28   0.499960  0.965990  0.500030  -0.087875
    C   C29   0.499920  0.891730  0.500040  0.320263
    C   C30   0.499920  0.851180  0.572750  -0.331161
    C   C31   0.499880  0.771040  0.572550  0.166232
    C   C32   0.499840  0.729080  0.500060  0.064105
    C   C33   0.499840  0.770930  0.427560  0.218895
    C   C34   0.499880  0.851060  0.427340  -0.365922
    H   H5    0.500090  0.120900  0.626340  0.157942
    H   H6    0.499970  0.120670  0.373630  0.151000
    H   H7    0.499950  0.879340  0.626400  0.158811
    H   H8    0.499870  0.879130  0.373680  0.171140
    C   C35   0.766620  0.498930  0.441560  0.055889
    C   C36   0.782640  0.498930  0.581410  -0.000676
    C   C37   0.738500  0.499150  0.602980  0.030924
    C   C38   0.707490  0.499260  0.540400  0.013218
    C   C39   0.662170  0.499480  0.558410  0.053966
    C   C40   0.646140  0.499470  0.418560  -0.002856
    C   C41   0.690290  0.499250  0.396990  0.032600
    C   C42   0.721300  0.499150  0.459570  0.016055
    C   C43   0.795880  0.498830  0.500060  0.014085
    C   C44   0.632910  0.499580  0.499910  0.018474
    H   H9    0.807190  0.498840  0.627530  0.081682
    H   H10   0.621590  0.499560  0.372450  0.081747
    C   C45   0.059640  0.497530  0.499860  0.026645
    C   C46   0.083680  0.497760  0.427380  0.242280
    C   C47   0.129450  0.498080  0.427200  -0.392969
    C   C48   0.152540  0.498180  0.499930  0.331894
    C   C49   0.129240  0.497950  0.572620  -0.379294
    C   C50   0.083470  0.497630  0.572370  0.227212
    C   C51   0.194960  0.498470  0.499950  -0.087463
    C   C52   0.233830  0.498740  0.499980  -0.087960
    C   C53   0.276250  0.499030  0.500020  0.333829
    C   C54   0.299550  0.499280  0.427330  -0.379391
    C   C55   0.345320  0.499590  0.427590  0.223225
    C   C56   0.369150  0.499660  0.500100  0.035947
    C   C57   0.345110  0.499410  0.572570  0.233617
    C   C58   0.299330  0.499100  0.572750  -0.388975
    H   H11   0.145590  0.498240  0.373560  0.172539
    H   H12   0.145230  0.498020  0.626280  0.168623
    H   H13   0.283570  0.499230  0.373670  0.168838
    H   H14   0.283190  0.498930  0.626380  0.171422
    N   N3    0.928780  0.497140  0.715520  -0.214171
    C   C59   0.900850  0.448630  0.759660  0.250975
    C   C60   0.900770  0.448570  0.843790  -0.384384
    C   C61   0.928780  0.497320  0.886280  0.404095
    C   C62   0.956790  0.545970  0.843510  -0.390858
    C   C63   0.956710  0.545730  0.759380  0.413056
    C   C64   0.928780  0.497400  0.964250  -0.104030
    C   C65   0.928780  0.497480  0.035690  -0.071042
    C   C66   0.928790  0.497570  0.113650  0.369106
    C   C67   0.900790  0.448900  0.156430  -0.364629
    C   C68   0.900870  0.449150  0.240560  0.256313
    N   N4    0.928790  0.497770  0.284420  -0.150718
    C   C69   0.956710  0.546290  0.240270  0.382767
    C   C70   0.956790  0.546330  0.156140  -0.375006
    H   H15   0.880100  0.412670  0.873410  0.170482
    H   H16   0.977460  0.581930  0.872930  0.131002
    H   H17   0.880120  0.412920  0.127020  0.163127
    H   H18   0.977450  0.582240  0.126510  0.130690
    C   C71   0.927320  0.268980  0.500190  0.156468
    C   C72   0.927380  0.227050  0.427670  0.124999
    C   C73   0.927560  0.146910  0.427420  -0.304442
    C   C74   0.927690  0.106330  0.500110  0.287541
    C   C75   0.927630  0.146950  0.572840  -0.286970
    C   C76   0.927450  0.227090  0.572660  0.102194
    C   C77   0.927860  0.032060  0.500070  -0.090968
    C   C78   0.928010  0.964020  0.500040  -0.093905
    C   C79   0.928180  0.889750  0.500020  0.313420
    C   C80   0.928250  0.849120  0.427290  -0.320173
    C   C81   0.928430  0.768990  0.427480  0.153681
    C   C82   0.928540  0.727100  0.499950  0.079810
    C   C83   0.928470  0.769040  0.572470  0.205856
    C   C84   0.928290  0.849170  0.572710  -0.355094
    H   H19   0.927600  0.118780  0.373760  0.156136
    H   H20   0.927720  0.118850  0.626470  0.149714
    H   H21   0.928170  0.877220  0.373650  0.156774
    H   H22   0.928250  0.877310  0.626370  0.169282
    Cl  Cl1   0.563730  0.389000  0.290300  0.082635
    Cl  Cl2   0.436290  0.611050  0.290990  0.041491
    Cl  Cl3   0.563700  0.388930  0.709000  0.045245
    Cl  Cl4   0.436300  0.611060  0.709710  0.022925
    Cl  Cl5   0.500200  0.277000  0.664840  -0.144562
    Cl  Cl6   0.500030  0.276700  0.335060  -0.140473
    Cl  Cl7   0.499890  0.723310  0.664960  -0.145627
    Cl  Cl8   0.499790  0.723040  0.335170  -0.184533
    Cl  Cl9   0.056500  0.497650  0.334960  -0.176353
    Cl  Cl10  0.056030  0.497360  0.664750  -0.179564
    Cl  Cl11  0.372770  0.499880  0.335210  -0.179426
    Cl  Cl12  0.372280  0.499490  0.665000  -0.174473
    Cl  Cl13  0.865250  0.386690  0.709640  0.086077
    Cl  Cl14  0.992300  0.607570  0.709000  0.042618
    Cl  Cl15  0.865290  0.387300  0.290950  0.050082
    Cl  Cl16  0.992300  0.608250  0.290280  0.025162
    Cl  Cl17  0.927220  0.274840  0.335300  -0.141130
    Cl  Cl18  0.927390  0.274920  0.665080  -0.138257
    Cl  Cl19  0.928510  0.721140  0.335060  -0.143886
    Cl  Cl20  0.928610  0.721260  0.664840  -0.181698
    O   O17   0.741040  0.548710  0.285060  -0.201771
    O   O18   0.682980  0.449440  0.252050  -0.313498
    N   N5    0.704890  0.499130  0.310680  0.245707
    O   O19   0.816870  0.548350  0.328850  -0.260079
    O   O20   0.758640  0.449100  0.296740  -0.172422
    N   N6    0.780820  0.498790  0.355030  0.282075
    O   O21   0.687660  0.549190  0.714930  -0.200721
    O   O22   0.745910  0.449430  0.747910  -0.314419
    N   N7    0.723900  0.499260  0.689290  0.245816
    O   O23   0.611840  0.549570  0.671100  -0.262932
    O   O24   0.670220  0.449790  0.703230  -0.172991
    N   N8    0.647960  0.499610  0.644930  0.287088
