data_DB1-Cu2O8-fum_A-irmof20_A_No163_repeat
_audit_creation_date              2024-02-20
_audit_creation_method            'Materials Studio'
_symmetry_space_group_name_H-M    'P1'
_symmetry_Int_Tables_number       1
_symmetry_cell_setting            triclinic
loop_
_symmetry_equiv_pos_as_xyz
  x,y,z
_cell_length_a                    12.5011
_cell_length_b                    17.3799
_cell_length_c                    10.0000
_cell_angle_alpha                 90.0000
_cell_angle_beta                  90.0000
_cell_angle_gamma                 90.0967
loop_
_atom_site_label
_atom_site_type_symbol
_atom_site_fract_x
_atom_site_fract_y
_atom_site_fract_z
_atom_site_U_iso_or_equiv
_atom_site_adp_type
_atom_site_occupancy
Cu1    Cu    0.50000   0.50000   0.62726   0.00000  Uiso   1.00
Cu2    Cu    0.50001   0.50000   0.37274   0.00000  Uiso   1.00
O1     O     0.63909   0.49995   0.61869   0.00000  Uiso   1.00
O2     O     0.36063   0.49983   0.61867   0.00000  Uiso   1.00
O3     O     0.49970   0.39974   0.61868   0.00000  Uiso   1.00
O4     O     0.50002   0.60004   0.61868   0.00000  Uiso   1.00
O5     O     0.50028   0.60026   0.38132   0.00000  Uiso   1.00
O6     O     0.50003   0.39997   0.38132   0.00000  Uiso   1.00
O7     O     0.36081   0.49995   0.38131   0.00000  Uiso   1.00
O8     O     0.63938   0.50021   0.38133   0.00000  Uiso   1.00
C1     C     0.70063   0.50007   0.50001   0.00000  Uiso   1.00
C2     C     0.29938   0.49994   0.49999   0.00000  Uiso   1.00
C3     C     0.49987   0.35570   0.50000   0.00000  Uiso   1.00
C4     C     0.50015   0.64431   0.50000   0.00000  Uiso   1.00
Cu3    Cu    0.50042   0.00000   0.26411   0.00000  Uiso   1.00
Cu4    Cu    0.49988   0.00000   0.51863   0.00000  Uiso   1.00
O9     O     0.63949   0.00039   0.27315   0.00000  Uiso   1.00
O10    O     0.36103   0.99985   0.27224   0.00000  Uiso   1.00
O11    O     0.50011   0.10026   0.27269   0.00000  Uiso   1.00
O12    O     0.50041   0.89997   0.27269   0.00000  Uiso   1.00
O13    O     0.50015   0.89975   0.51005   0.00000  Uiso   1.00
O14    O     0.49993   0.10004   0.51005   0.00000  Uiso   1.00
O15    O     0.36070   0.99973   0.50959   0.00000  Uiso   1.00
O16    O     0.63927   0.00013   0.51051   0.00000  Uiso   1.00
C5     C     0.70077   0.00042   0.39204   0.00000  Uiso   1.00
C6     C     0.29953   0.99959   0.39071   0.00000  Uiso   1.00
C7     C     0.50003   0.14431   0.39138   0.00000  Uiso   1.00
C8     C     0.50028   0.85570   0.39138   0.00000  Uiso   1.00
C9     C     0.50028   0.77098   0.38954   0.00000  Uiso   1.00
C10    C     0.50015   0.72903   0.50183   0.00000  Uiso   1.00
C11    C     0.50002   0.22903   0.38954   0.00000  Uiso   1.00
C12    C     0.49987   0.27098   0.50183   0.00000  Uiso   1.00
C13    C     0.88935   0.49991   0.60607   0.00000  Uiso   1.00
S1     S     0.88440   0.50019   0.34692   0.00000  Uiso   1.00
C14    C     0.11066   0.50009   0.39392   0.00000  Uiso   1.00
S2     S     0.11561   0.49982   0.65307   0.00000  Uiso   1.00
C15    C     0.81999   0.50004   0.50000   0.00000  Uiso   1.00
C16    C     0.18002   0.49997   0.49999   0.00000  Uiso   1.00
C17    C     0.00000   0.50008   0.43165   0.00000  Uiso   1.00
C18    C     0.00001   0.49993   0.56834   0.00000  Uiso   1.00
C19    C     0.88972   0.00102   0.28661   0.00000  Uiso   1.00
S3     S     0.88421   0.00073   0.54574   0.00000  Uiso   1.00
C20    C     0.11057   0.00136   0.49950   0.00000  Uiso   1.00
S4     S     0.11609   0.00165   0.24037   0.00000  Uiso   1.00
C21    C     0.82013   0.00073   0.39245   0.00000  Uiso   1.00
C22    C     0.18016   0.00166   0.39367   0.00000  Uiso   1.00
C23    C     0.00000   0.00112   0.46140   0.00000  Uiso   1.00
C24    C     0.00030   0.00126   0.32471   0.00000  Uiso   1.00
H1     H     0.44795   0.68089   0.23747   0.00000  Uiso   1.00
H2     H     0.55299   0.75303   0.17376   0.00000  Uiso   1.00
N1     N     0.50042   0.73148   0.25505   0.00000  Uiso   1.00
H3     H     0.44751   0.81899   0.65373   0.00000  Uiso   1.00
H4     H     0.55241   0.74710   0.71779   0.00000  Uiso   1.00
N2     N     0.50001   0.76853   0.63633   0.00000  Uiso   1.00
H5     H     0.55272   0.31912   0.23767   0.00000  Uiso   1.00
H6     H     0.44784   0.24698   0.17356   0.00000  Uiso   1.00
N3     N     0.50021   0.26853   0.25505   0.00000  Uiso   1.00
H7     H     0.55214   0.18102   0.65393   0.00000  Uiso   1.00
H8     H     0.44708   0.25290   0.71759   0.00000  Uiso   1.00
N4     N     0.49968   0.23148   0.63633   0.00000  Uiso   1.00
O17    O     0.85809   0.49979   0.72985   0.00000  Uiso   1.00
Li1    Li    0.92545   0.49962   0.87880   0.00000  Uiso   1.00
O18    O     0.14192   0.50022   0.27014   0.00000  Uiso   1.00
Li2    Li    0.07456   0.50039   0.12120   0.00000  Uiso   1.00
O19    O     0.85873   0.00107   0.16273   0.00000  Uiso   1.00
Li3    Li    0.92641   0.00140   0.01401   0.00000  Uiso   1.00
O20    O     0.14156   0.00131   0.62339   0.00000  Uiso   1.00
Li4    Li    0.07389   0.00098   0.77211   0.00000  Uiso   1.00
