# generated using pymatgen
data_CuH11C20SNCl2O7
_symmetry_space_group_name_H-M   'P 1'
_cell_length_a   15.84940000
_cell_length_b   17.52180000
_cell_length_c   12.99020000
_cell_angle_alpha   89.91840000
_cell_angle_beta   87.67450000
_cell_angle_gamma   95.29000000
_symmetry_Int_Tables_number   1
_chemical_formula_structural   CuH11C20SNCl2O7
_chemical_formula_sum   'Cu2 H22 C40 S2 N2 Cl4 O14'
_cell_volume   3589.13684565
_cell_formula_units_Z   2
loop_
 _symmetry_equiv_pos_site_id
 _symmetry_equiv_pos_as_xyz
  1  'x, y, z'
loop_
 _atom_site_type_symbol
 _atom_site_label
 _atom_site_symmetry_multiplicity
 _atom_site_fract_x
 _atom_site_fract_y
 _atom_site_fract_z
 _atom_site_occupancy
  Cu  Cu1  1  0.41940000  0.49703000  0.50400000  1
  Cu  Cu2  1  0.58059000  0.50296000  0.49602000  1
  H  H1  1  0.29241000  0.57949000  0.39292000  1
  H  H2  1  0.13885000  0.57439000  0.39979000  1
  H  H3  1  0.12741000  0.39903000  0.63602000  1
  H  H4  1  0.87258000  0.60097000  0.36399000  1
  H  H5  1  0.86115000  0.42561000  0.60022000  1
  H  H6  1  0.70759000  0.42050000  0.60709000  1
  H  H7  1  0.99622000  0.43817000  0.58329000  1
  H  H8  1  0.00377000  0.56183000  0.41670000  1
  H  H9  1  0.62266000  0.26479000  0.49426000  1
  H  H10  1  0.61553000  0.12593000  0.49456000  1
  H  H11  1  0.34149000  0.11464000  0.50757000  1
  H  H12  1  0.65853000  0.88534000  0.49245000  1
  H  H13  1  0.38448000  0.87406000  0.50546000  1
  H  H14  1  0.37735000  0.73521000  0.50576000  1
  H  H15  1  0.40339000  0.99625000  0.50459000  1
  H  H16  1  0.59665000  0.00374000  0.49542000  1
  H  H17  1  0.37175000  0.49554000  0.15392000  1
  H  H18  1  0.63510000  0.50479000  0.21352000  1
  H  H19  1  0.62824000  0.50445000  0.84610000  1
  H  H20  1  0.36491000  0.49521000  0.78649000  1
  H  H21  1  0.21567000  0.41498000  0.09693000  1
  H  H22  1  0.77541000  0.43460000  0.90388000  1
  C  C1  1  0.49999000  0.49993000  0.69308000  1
  C  C2  1  0.50001000  0.50006000  0.30694000  1
  C  C3  1  0.50824000  0.64363000  0.49952000  1
  C  C4  1  0.49176000  0.35636000  0.50050000  1
  C  C5  1  0.25676000  0.53995000  0.44618000  1
  C  C6  1  0.16805000  0.53676000  0.45048000  1
  C  C7  1  0.11957000  0.48592000  0.51896000  1
  C  C8  1  0.16257000  0.43873000  0.58254000  1
  C  C9  1  0.25120000  0.44195000  0.57820000  1
  C  C10  1  0.02495000  0.47942000  0.52772000  1
  C  C11  1  0.97504000  0.52058000  0.47227000  1
  C  C12  1  0.83742000  0.56127000  0.41747000  1
  C  C13  1  0.88043000  0.51408000  0.48104000  1
  C  C14  1  0.83195000  0.46323000  0.54953000  1
  C  C15  1  0.74324000  0.46004000  0.55383000  1
  C  C16  1  0.74879000  0.55804000  0.42182000  1
  C  C17  1  0.48685000  0.27084000  0.50071000  1
  C  C18  1  0.56106000  0.23234000  0.49718000  1
  C  C19  1  0.55655000  0.15212000  0.49737000  1
  C  C20  1  0.47735000  0.10802000  0.50112000  1
  C  C21  1  0.40335000  0.14664000  0.50464000  1
  C  C22  1  0.40790000  0.22679000  0.50445000  1
  C  C23  1  0.46771000  0.02245000  0.50155000  1
  C  C24  1  0.53232000  0.97755000  0.49847000  1
  C  C25  1  0.59667000  0.85334000  0.49538000  1
  C  C26  1  0.52267000  0.89197000  0.49890000  1
  C  C27  1  0.44346000  0.84787000  0.50265000  1
  C  C28  1  0.43895000  0.76765000  0.50284000  1
  C  C29  1  0.51316000  0.72915000  0.49931000  1
  C  C30  1  0.59211000  0.77320000  0.49557000  1
  C  C31  1  0.43802000  0.49785000  0.12655000  1
  C  C32  1  0.58624000  0.50305000  0.15765000  1
  C  C33  1  0.60914000  0.50384000  0.05204000  1
  C  C34  1  0.54285000  0.50150000  0.98167000  1
  C  C35  1  0.56198000  0.50214000  0.87347000  1
  C  C36  1  0.41376000  0.49694000  0.84237000  1
  C  C37  1  0.39086000  0.49616000  0.94797000  1
  C  C38  1  0.45715000  0.49850000  0.01835000  1
  C  C39  1  0.50001000  0.50004000  0.19297000  1
  C  C40  1  0.49999000  0.49996000  0.80705000  1
  S  S1  1  0.28525000  0.49246000  0.99275000  1
  S  S2  1  0.71475000  0.50754000  0.00727000  1
  N  N1  1  0.29962000  0.49263000  0.50993000  1
  N  N2  1  0.70038000  0.50736000  0.49009000  1
  Cl  Cl1  1  0.30188000  0.38165000  0.65943000  1
  Cl  Cl2  1  0.69810000  0.61834000  0.34058000  1
  Cl  Cl3  1  0.31336000  0.27228000  0.50895000  1
  Cl  Cl4  1  0.68665000  0.72770000  0.49107000  1
  O  O1  1  0.42483000  0.49728000  0.63758000  1
  O  O2  1  0.42485000  0.49741000  0.36960000  1
  O  O3  1  0.43056000  0.59702000  0.50319000  1
  O  O4  1  0.41912000  0.39767000  0.50399000  1
  O  O5  1  0.56943000  0.40297000  0.49679000  1
  O  O6  1  0.58087000  0.60232000  0.49606000  1
  O  O7  1  0.57517000  0.50282000  0.36232000  1
  O  O8  1  0.57514000  0.50256000  0.63041000  1
  O  O9  1  0.24925000  0.40380000  0.03476000  1
  O  O10  1  0.22306000  0.51572000  0.90724000  1
  O  O11  1  0.27355000  0.54663000  0.08947000  1
  O  O12  1  0.74035000  0.42103000  0.96617000  1
  O  O13  1  0.77997000  0.53531000  0.09252000  1
  O  O14  1  0.73295000  0.56272000  0.90999000  1
