data_DB1-Cu2O8-irmof6_A-PEDOT_A_No12_repeat
_audit_creation_date              2024-02-20
_audit_creation_method            'Materials Studio'
_symmetry_space_group_name_H-M    'P1'
_symmetry_Int_Tables_number       1
_symmetry_cell_setting            triclinic
loop_
_symmetry_equiv_pos_as_xyz
  x,y,z
_cell_length_a                    21.6093
_cell_length_b                    15.2718
_cell_length_c                    10.0000
_cell_angle_alpha                 90.0000
_cell_angle_beta                  90.0000
_cell_angle_gamma                 134.9700
loop_
_atom_site_label
_atom_site_type_symbol
_atom_site_fract_x
_atom_site_fract_y
_atom_site_fract_z
_atom_site_U_iso_or_equiv
_atom_site_adp_type
_atom_site_occupancy
Cu1    Cu    0.49997   0.49993   0.62726   0.00000  Uiso   1.00
Cu2    Cu    0.50003   0.50006   0.37274   0.00000  Uiso   1.00
O1     O     0.41941   0.33900   0.61858   0.00000  Uiso   1.00
O2     O     0.58050   0.66119   0.61878   0.00000  Uiso   1.00
O3     O     0.41950   0.50028   0.61868   0.00000  Uiso   1.00
O4     O     0.58041   0.49991   0.61868   0.00000  Uiso   1.00
O5     O     0.58052   0.49975   0.38132   0.00000  Uiso   1.00
O6     O     0.41956   0.50003   0.38132   0.00000  Uiso   1.00
O7     O     0.58057   0.66112   0.38142   0.00000  Uiso   1.00
O8     O     0.41951   0.33880   0.38122   0.00000  Uiso   1.00
C1     C     0.38391   0.26787   0.49985   0.00000  Uiso   1.00
C2     C     0.61608   0.73212   0.50014   0.00000  Uiso   1.00
C3     C     0.38402   0.50015   0.50000   0.00000  Uiso   1.00
C4     C     0.61598   0.49983   0.50000   0.00000  Uiso   1.00
Cu3    Cu    0.99987   0.49974   0.37272   0.00000  Uiso   1.00
Cu4    Cu    0.00011   0.50021   0.62724   0.00000  Uiso   1.00
O9     O     0.91967   0.33882   0.38165   0.00000  Uiso   1.00
O10    O     0.08043   0.66101   0.38095   0.00000  Uiso   1.00
O11    O     0.08069   0.50009   0.38130   0.00000  Uiso   1.00
O12    O     0.91942   0.49974   0.38130   0.00000  Uiso   1.00
O13    O     0.91931   0.49990   0.61866   0.00000  Uiso   1.00
O14    O     0.08054   0.50017   0.61866   0.00000  Uiso   1.00
O15    O     0.08046   0.66126   0.61830   0.00000  Uiso   1.00
O16    O     0.91952   0.33894   0.61901   0.00000  Uiso   1.00
C5     C     0.88419   0.26785   0.50049   0.00000  Uiso   1.00
C6     C     0.11579   0.73210   0.49947   0.00000  Uiso   1.00
C7     C     0.11613   0.50012   0.49998   0.00000  Uiso   1.00
C8     C     0.88385   0.49982   0.49998   0.00000  Uiso   1.00
C9     C     0.81748   0.49982   0.49998   0.00000  Uiso   1.00
C10    C     0.68235   0.49983   0.49999   0.00000  Uiso   1.00
C11    C     0.78368   0.49990   0.60561   0.00000  Uiso   1.00
C12    C     0.71616   0.49976   0.39437   0.00000  Uiso   1.00
C13    C     0.71623   0.49990   0.60561   0.00000  Uiso   1.00
C14    C     0.78360   0.49976   0.39437   0.00000  Uiso   1.00
C15    C     0.78229   0.50000   0.75581   0.00000  Uiso   1.00
C16    C     0.71772   0.50000   0.75582   0.00000  Uiso   1.00
H1     H     0.80473   0.49974   0.29574   0.00000  Uiso   1.00
H2     H     0.84568   0.58123   0.79992   0.00000  Uiso   1.00
H3     H     0.76490   0.41888   0.79924   0.00000  Uiso   1.00
H4     H     0.65436   0.41883   0.80006   0.00000  Uiso   1.00
H5     H     0.73514   0.58118   0.79911   0.00000  Uiso   1.00
C17    C     0.18250   0.50013   0.49998   0.00000  Uiso   1.00
C18    C     0.31764   0.50014   0.49999   0.00000  Uiso   1.00
C19    C     0.21640   0.50024   0.60561   0.00000  Uiso   1.00
C20    C     0.28374   0.50003   0.39437   0.00000  Uiso   1.00
C21    C     0.28385   0.50025   0.60561   0.00000  Uiso   1.00
C22    C     0.21629   0.50003   0.39437   0.00000  Uiso   1.00
C23    C     0.21791   0.50040   0.75581   0.00000  Uiso   1.00
C24    C     0.28249   0.50040   0.75581   0.00000  Uiso   1.00
H6     H     0.19508   0.49987   0.29574   0.00000  Uiso   1.00
H7     H     0.15456   0.41924   0.80008   0.00000  Uiso   1.00
H8     H     0.23533   0.58159   0.79908   0.00000  Uiso   1.00
H9     H     0.34588   0.58166   0.79990   0.00000  Uiso   1.00
H10    H     0.26510   0.41930   0.79927   0.00000  Uiso   1.00
C25    C     0.18222   0.86485   0.49957   0.00000  Uiso   1.00
C26    C     0.31748   0.13512   0.49976   0.00000  Uiso   1.00
C27    C     0.21598   0.93247   0.60523   0.00000  Uiso   1.00
C28    C     0.28373   0.06750   0.39409   0.00000  Uiso   1.00
C29    C     0.28349   0.06737   0.60533   0.00000  Uiso   1.00
C30    C     0.21622   0.93260   0.39400   0.00000  Uiso   1.00
C31    C     0.21724   0.93525   0.75544   0.00000  Uiso   1.00
C32    C     0.28188   0.06441   0.75553   0.00000  Uiso   1.00
H11    H     0.19520   0.89038   0.29534   0.00000  Uiso   1.00
H12    H     0.23488   0.88944   0.79975   0.00000  Uiso   1.00
H13    H     0.15355   0.88914   0.79861   0.00000  Uiso   1.00
H14    H     0.26414   0.11017   0.79958   0.00000  Uiso   1.00
H15    H     0.34546   0.11047   0.79909   0.00000  Uiso   1.00
C33    C     0.81796   0.13514   0.50038   0.00000  Uiso   1.00
C34    C     0.68258   0.86487   0.50022   0.00000  Uiso   1.00
C35    C     0.78412   0.06750   0.39472   0.00000  Uiso   1.00
C36    C     0.71641   0.93250   0.60588   0.00000  Uiso   1.00
C37    C     0.71655   0.93261   0.39464   0.00000  Uiso   1.00
C38    C     0.78399   0.06740   0.60596   0.00000  Uiso   1.00
C39    C     0.78278   0.06471   0.24451   0.00000  Uiso   1.00
C40    C     0.71809   0.93555   0.24444   0.00000  Uiso   1.00
H16    H     0.80512   0.10963   0.70461   0.00000  Uiso   1.00
H17    H     0.84615   0.11012   0.20044   0.00000  Uiso   1.00
H18    H     0.76552   0.11121   0.20110   0.00000  Uiso   1.00
H19    H     0.65478   0.89018   0.20015   0.00000  Uiso   1.00
H20    H     0.73541   0.88910   0.20113   0.00000  Uiso   1.00
O17    O     0.69086   0.49966   0.27660   0.00000  Uiso   1.00
Li1    Li    0.72064   0.49954   0.11812   0.00000  Uiso   1.00
O18    O     0.30894   0.49994   0.27660   0.00000  Uiso   1.00
Li2    Li    0.27902   0.49978   0.11812   0.00000  Uiso   1.00
O19    O     0.30913   0.11806   0.27635   0.00000  Uiso   1.00
Li3    Li    0.27943   0.05846   0.11783   0.00000  Uiso   1.00
O20    O     0.69103   0.88195   0.72363   0.00000  Uiso   1.00
Li4    Li    0.72083   0.94156   0.88214   0.00000  Uiso   1.00
