# Generated by REPEAT Assigner based on pymatgen
data_DB1-Cu2O8-ADC_A-AZO_A_No599
_audit_creation_date              2022-05-24
_audit_creation_method            REPEAT_Assigner
_cell_length_a                    34.996400
_cell_length_b                    24.553200
_cell_length_c                    10.000000
_cell_angle_alpha                 90.000000
_cell_angle_beta                  90.000000
_cell_angle_gamma                 135.377000
_cell_volume                      6035.871413
_symmetry_space_group_name_H-M    P1
_symmetry_Int_Tables_number       1
loop_
    _symmetry_equiv_pos_site_id
    _symmetry_equiv_pos_as_xyz
    1  x,y,z
loop_
    _atom_site_type_symbol
    _atom_site_label
    _atom_site_fract_x
    _atom_site_fract_y
    _atom_site_fract_z
    _atom_type_partial_charge
    Cu  Cu1  0.500130  0.500260  0.627260  1.023666
    Cu  Cu2  0.499870  0.499730  0.372740  1.003462
    O   O1   0.449670  0.399430  0.619310  -0.581370
    O   O2   0.550570  0.601260  0.618040  -0.577735
    O   O3   0.450440  0.500460  0.618670  0.010311
    O   O4   0.549800  0.500230  0.618680  0.008328
    O   O5   0.549570  0.499550  0.381330  -0.163234
    O   O6   0.450190  0.499730  0.381320  -0.165081
    O   O7   0.550310  0.600640  0.380690  -0.595530
    O   O8   0.449450  0.398730  0.381960  -0.595054
    C   C1   0.427300  0.354580  0.500910  0.608918
    C   C2   0.572700  0.645410  0.499090  0.604774
    C   C3   0.428390  0.500100  0.499990  -0.151087
    C   C4   0.571610  0.499890  0.500000  -0.151866
    Cu  Cu3  0.999620  0.499240  0.281880  1.115850
    Cu  Cu4  0.000080  0.500160  0.536390  1.105879
    O   O9   0.949400  0.398460  0.291540  -0.561914
    O   O10  0.050090  0.600290  0.289380  -0.546893
    O   O11  0.049530  0.499480  0.290440  -0.174587
    O   O12  0.949960  0.499270  0.290470  -0.182556
    O   O13  0.950190  0.499950  0.527830  -0.506011
    O   O14  0.049740  0.500110  0.527800  -0.509798
    O   O15  0.050400  0.601030  0.526730  -0.579588
    O   O16  0.949610  0.399110  0.528900  -0.585519
    C   C5   0.927320  0.354290  0.410700  0.640149
    C   C6   0.072380  0.645110  0.407580  0.616624
    C   C7   0.071560  0.499790  0.409120  0.182993
    C   C8   0.928140  0.499610  0.409160  0.173412
    C   C9   0.885470  0.499610  0.409160  0.278857
    C   C10  0.865030  0.499960  0.530080  -0.170640
    C   C11  0.825010  0.499960  0.530240  -0.160223
    C   C12  0.804240  0.499620  0.408930  0.172829
    C   C13  0.824730  0.499270  0.288320  -0.087300
    C   C14  0.864720  0.499270  0.288240  -0.333356
    C   C15  0.761620  0.499600  0.401440  -0.263672
    C   C16  0.738140  0.499900  0.507770  -0.236086
    C   C17  0.675020  0.500230  0.620870  -0.185787
    C   C18  0.695520  0.499880  0.500260  0.234086
    C   C19  0.674750  0.499540  0.378940  -0.256650
    C   C20  0.634720  0.499540  0.379100  -0.177510
    C   C21  0.614280  0.499890  0.500010  0.396691
    C   C22  0.635030  0.500230  0.620940  -0.305902
    H   H1   0.880260  0.500230  0.624610  0.169969
    H   H2   0.810970  0.500240  0.625940  0.154177
    H   H3   0.690010  0.500500  0.715850  0.128481
    H   H4   0.688790  0.499260  0.283240  0.176019
    H   H5   0.749560  0.499310  0.302050  0.187535
    H   H6   0.750190  0.500190  0.607160  0.150440
    C   C23  0.114240  0.499790  0.409130  0.270141
    C   C24  0.135030  0.500170  0.530040  -0.169741
    C   C25  0.175060  0.500170  0.530210  -0.160323
    C   C26  0.195470  0.499800  0.408900  0.171434
    C   C27  0.174620  0.499430  0.288290  -0.081825
    C   C28  0.134630  0.499420  0.288210  -0.333070
    C   C29  0.238070  0.499780  0.401420  -0.263493
    C   C30  0.261870  0.500110  0.507740  -0.236189
    C   C31  0.325330  0.500460  0.620850  -0.183585
    C   C32  0.304470  0.500090  0.500240  0.232678
    C   C33  0.324880  0.499720  0.378920  -0.255124
    C   C34  0.364910  0.499720  0.379090  -0.176833
    C   C35  0.385710  0.500090  0.500000  0.395389
    C   C36  0.365320  0.500470  0.620920  -0.308038
    H   H7   0.120080  0.500460  0.624570  0.170246
    H   H8   0.189390  0.500470  0.625910  0.154534
    H   H9   0.310610  0.500750  0.715830  0.127902
    H   H10  0.310560  0.499420  0.283220  0.175462
    H   H11  0.249840  0.499470  0.302020  0.189112
    H   H12  0.250110  0.500410  0.607140  0.150338
    C   C37  0.115680  0.731650  0.407040  -0.271070
    C   C38  0.136660  0.773720  0.527930  -0.042917
    C   C39  0.177320  0.854990  0.527100  -0.135702
    C   C40  0.197830  0.895850  0.405560  0.479033
    C   C41  0.177150  0.854380  0.285220  -0.356625
    C   C42  0.136500  0.773140  0.285580  0.236257
    N   N1   0.239490  0.979100  0.401480  -0.274318
    N   N2   0.260190  0.020590  0.507010  -0.277887
    C   C43  0.322530  0.145310  0.623260  -0.383461
    C   C44  0.301840  0.103840  0.502920  0.494136
    C   C45  0.322350  0.144700  0.381380  -0.150631
    C   C46  0.363020  0.225980  0.380560  -0.048292
    C   C47  0.384000  0.268040  0.501450  -0.265413
    C   C48  0.363170  0.226550  0.622900  0.255912
    H   H13  0.121410  0.743330  0.622680  0.158962
    H   H14  0.192910  0.886240  0.620840  0.094693
    H   H15  0.192690  0.885340  0.191120  0.141929
    H   H16  0.306990  0.114350  0.717370  0.152618
    H   H17  0.306770  0.113460  0.287650  0.100471
    H   H18  0.378270  0.256360  0.285800  0.167575
    C   C49  0.884480  0.267930  0.397460  -0.294653
    C   C50  0.863630  0.226370  0.518870  -0.046980
    C   C51  0.822930  0.145100  0.519060  -0.130913
    C   C52  0.802250  0.103720  0.398030  0.479698
    C   C53  0.822790  0.144690  0.277170  -0.369418
    C   C54  0.863480  0.225930  0.276520  0.271020
    N   N3   0.760550  0.020460  0.394980  -0.268756
    N   N4   0.739960  0.979410  0.501030  -0.277915
    C   C55  0.677720  0.855190  0.618830  -0.376801
    C   C56  0.698270  0.896150  0.497970  0.490010
    C   C57  0.677580  0.854780  0.376940  -0.150558
    C   C58  0.636880  0.773510  0.377140  -0.047121
    C   C59  0.616040  0.731950  0.498540  -0.259960
    C   C60  0.637040  0.773950  0.619480  0.249292
    H   H19  0.879020  0.257150  0.613240  0.159264
    H   H20  0.807460  0.114240  0.613170  0.092531
    H   H21  0.807110  0.113340  0.183460  0.144009
    H   H22  0.693400  0.886540  0.712540  0.151981
    H   H23  0.693060  0.885630  0.282830  0.100947
    H   H24  0.621490  0.742720  0.282760  0.165900
    C   C61  0.885650  0.498890  0.155630  0.738428
    O   O17  0.852890  0.464710  0.050140  -0.513034
    O   O18  0.932360  0.528430  0.147330  -0.450888
    H   H25  0.819180  0.452510  0.072500  0.359529
    C   C62  0.803710  0.498890  0.155170  0.492711
    O   O19  0.752840  0.464990  0.145660  -0.464147
    O   O20  0.833390  0.528180  0.055980  -0.385650
    H   H26  0.737530  0.453000  0.239450  0.284024
    C   C63  0.613380  0.499160  0.246560  0.576598
    O   O21  0.645800  0.532730  0.140440  -0.440872
    O   O22  0.566650  0.469570  0.238880  -0.390699
    H   H27  0.679590  0.545060  0.162500  0.310940
    C   C64  0.614100  0.500610  0.753540  0.716101
    O   O23  0.613030  0.467040  0.859610  -0.406188
    O   O24  0.596930  0.530210  0.761330  -0.518657
    H   H28  0.634490  0.454720  0.837460  0.304620
    C   C65  0.113300  0.499010  0.155590  0.741192
    O   O25  0.145750  0.532560  0.049510  -0.517280
    O   O26  0.066570  0.469410  0.147820  -0.455004
    H   H29  0.179530  0.544890  0.071660  0.360375
    C   C66  0.195260  0.499020  0.155140  0.487087
    O   O27  0.246100  0.532860  0.145030  -0.462469
    O   O28  0.165280  0.469140  0.056470  -0.383005
    H   H30  0.261680  0.545410  0.238610  0.282046
    C   C67  0.385870  0.499310  0.246550  0.576921
    O   O29  0.353130  0.465110  0.141030  -0.441952
    O   O30  0.432570  0.528860  0.238340  -0.390914
    H   H31  0.319410  0.452920  0.163300  0.311546
    C   C68  0.386650  0.500880  0.753530  0.719546
    O   O31  0.388030  0.535070  0.859000  -0.409889
    O   O32  0.403840  0.471330  0.761850  -0.519182
    H   H32  0.366500  0.547260  0.836630  0.305675
    S   S1   0.111730  0.723480  0.133560  0.791913
    O   O33  0.050400  0.688190  0.096820  -0.480326
    O   O34  0.150890  0.776170  0.010880  -0.435412
    H   H33  0.030950  0.636940  0.060630  0.409419
    O   O35  0.102050  0.649600  0.137270  -0.481046
    S   S2   0.387940  0.276220  0.774930  0.789338
    O   O36  0.362050  0.311850  0.811090  -0.494260
    O   O37  0.374190  0.223420  0.897770  -0.438989
    H   H34  0.393820  0.363060  0.847360  0.437428
    O   O38  0.452070  0.349870  0.771570  -0.478070
    S   S3   0.888070  0.274960  0.123880  0.783276
    O   O39  0.949330  0.310000  0.087130  -0.481413
    O   O40  0.848740  0.221770  0.001750  -0.439236
    H   H35  0.968760  0.361120  0.050240  0.409338
    O   O41  0.897820  0.348890  0.126410  -0.490369
    S   S4   0.612450  0.724920  0.772120  0.791215
    O   O42  0.638330  0.689360  0.809140  -0.494026
    O   O43  0.626400  0.778250  0.894180  -0.438871
    H   H36  0.606590  0.638320  0.846000  0.436165
    O   O44  0.548310  0.651300  0.769420  -0.477946
