# generated using pymatgen
data_AlH10C14O5
_symmetry_space_group_name_H-M   'P 1'
_cell_length_a   6.60720000
_cell_length_b   10.97940000
_cell_length_c   17.35560000
_cell_angle_alpha   92.31230000
_cell_angle_beta   100.97600000
_cell_angle_gamma   72.48890000
_symmetry_Int_Tables_number   1
_chemical_formula_structural   AlH10C14O5
_chemical_formula_sum   'Al2 H20 C28 O10'
_cell_volume   1178.52670537
_cell_formula_units_Z   2
loop_
 _symmetry_equiv_pos_site_id
 _symmetry_equiv_pos_as_xyz
  1  'x, y, z'
loop_
 _atom_site_type_symbol
 _atom_site_label
 _atom_site_symmetry_multiplicity
 _atom_site_fract_x
 _atom_site_fract_y
 _atom_site_fract_z
 _atom_site_occupancy
  Al  Al1  1  0.00000000  0.50000000  0.50000000  1
  Al  Al2  1  0.50000000  0.50000000  0.50000000  1
  H  H1  1  0.83522000  0.39436000  0.56477000  1
  H  H2  1  0.16479000  0.60564000  0.43523000  1
  H  H3  1  0.95142000  0.50163000  0.26489000  1
  H  H4  1  0.88202000  0.50075000  0.12457000  1
  H  H5  1  0.24176000  0.50088000  0.12454000  1
  H  H6  1  0.75823000  0.49926000  0.87545000  1
  H  H7  1  0.04863000  0.49835000  0.73512000  1
  H  H8  1  0.11805000  0.49924000  0.87544000  1
  H  H9  1  0.24726000  0.88679000  0.49955000  1
  H  H10  1  0.13451000  0.11321000  0.50048000  1
  H  H11  1  0.92421000  0.11165000  0.55195000  1
  H  H12  1  0.86911000  0.11639000  0.44898000  1
  H  H13  1  0.98390000  0.88835000  0.44805000  1
  H  H14  1  0.03653000  0.88361000  0.55102000  1
  H  H15  1  0.12861000  0.57675000  0.26437000  1
  H  H16  1  0.29937000  0.50200000  0.33531000  1
  H  H17  1  0.20407000  0.42701000  0.26621000  1
  H  H18  1  0.79539000  0.57333000  0.73358000  1
  H  H19  1  0.70078000  0.49771000  0.66468000  1
  H  H20  1  0.87163000  0.42358000  0.73579000  1
  C  C1  1  0.36235000  0.27639000  0.50108000  1
  C  C2  1  0.31987000  0.49771000  0.63742000  1
  C  C3  1  0.63765000  0.72362000  0.49892000  1
  C  C4  1  0.68013000  0.50229000  0.36258000  1
  C  C5  1  0.63881000  0.50178000  0.27941000  1
  C  C6  1  0.80101000  0.50147000  0.23620000  1
  C  C7  1  0.76050000  0.50096000  0.15356000  1
  C  C8  1  0.55549000  0.50073000  0.11167000  1
  C  C9  1  0.39208000  0.50103000  0.15354000  1
  C  C10  1  0.43367000  0.50155000  0.23618000  1
  C  C11  1  0.51745000  0.50025000  0.03509000  1
  C  C12  1  0.48261000  0.49981000  0.96491000  1
  C  C13  1  0.44454000  0.49933000  0.88832000  1
  C  C14  1  0.60792000  0.49907000  0.84645000  1
  C  C15  1  0.56631000  0.49854000  0.76381000  1
  C  C16  1  0.36119000  0.49825000  0.72059000  1
  C  C17  1  0.19902000  0.49853000  0.76380000  1
  C  C18  1  0.23954000  0.49906000  0.84645000  1
  C  C19  1  0.43056000  0.13943000  0.50055000  1
  C  C20  1  0.56944000  0.86058000  0.49945000  1
  C  C21  1  0.62520000  0.06959000  0.50027000  1
  C  C22  1  0.37481000  0.93041000  0.49973000  1
  C  C23  1  0.69451000  0.93041000  0.49973000  1
  C  C24  1  0.30549000  0.06959000  0.50027000  1
  C  C25  1  0.85401000  0.06663000  0.50026000  1
  C  C26  1  0.92037000  0.93337000  0.49974000  1
  C  C27  1  0.24879000  0.50186000  0.27967000  1
  C  C28  1  0.75116000  0.49827000  0.72032000  1
  O  O1  1  0.15962000  0.33464000  0.50131000  1
  O  O2  1  0.47580000  0.49748000  0.60162000  1
  O  O3  1  0.49296000  0.66536000  0.49869000  1
  O  O4  1  0.87163000  0.50252000  0.39838000  1
  O  O5  1  0.84038000  0.66536000  0.49869000  1
  O  O6  1  0.52421000  0.50252000  0.39838000  1
  O  O7  1  0.50705000  0.33464000  0.50131000  1
  O  O8  1  0.12837000  0.49748000  0.60162000  1
  O  O9  1  0.78209000  0.46022000  0.52439000  1
  O  O10  1  0.21792000  0.53978000  0.47561000  1
