# Generated by REPEAT Assigner based on pymatgen
data_DB1-Cu2O8-ADC_A-DPAC_A_No283
_audit_creation_date              2022-05-24
_audit_creation_method            REPEAT_Assigner
_cell_length_a                    17.372200
_cell_length_b                    34.996400
_cell_length_c                    10.000000
_cell_angle_alpha                 90.000000
_cell_angle_beta                  90.000000
_cell_angle_gamma                 90.096300
_cell_volume                      6079.636014
_symmetry_space_group_name_H-M    P1
_symmetry_Int_Tables_number       1
loop_
    _symmetry_equiv_pos_site_id
    _symmetry_equiv_pos_as_xyz
    1  x,y,z
loop_
    _atom_site_type_symbol
    _atom_site_label
    _atom_site_fract_x
    _atom_site_fract_y
    _atom_site_fract_z
    _atom_type_partial_charge
    Cu  Cu1  0.499990  0.500000  0.627260  1.149593
    Cu  Cu2  0.500010  0.500000  0.372740  1.135296
    O   O1   0.600080  0.499980  0.618700  -0.753792
    O   O2   0.399710  0.499920  0.618660  -0.753083
    O   O3   0.499780  0.450210  0.618680  -0.392450
    O   O4   0.500010  0.549680  0.618680  -0.393877
    O   O5   0.500200  0.549790  0.381320  -0.386322
    O   O6   0.500030  0.450320  0.381320  -0.387376
    O   O7   0.399840  0.499970  0.381300  -0.748376
    O   O8   0.600300  0.500100  0.381340  -0.747144
    C   C1   0.644370  0.500030  0.500020  0.808370
    C   C2   0.355640  0.499970  0.499970  0.809059
    C   C3   0.499900  0.428340  0.499990  0.197164
    C   C4   0.500110  0.571670  0.500000  0.196694
    Cu  Cu3  0.500310  0.000000  0.281880  1.153719
    Cu  Cu4  0.499910  0.000010  0.536390  1.149316
    O   O9   0.600380  0.000190  0.290920  -0.696239
    O   O10  0.400010  0.999920  0.289990  -0.693421
    O   O11  0.500090  0.049790  0.290440  -0.469837
    O   O12  0.500300  0.950320  0.290470  -0.470122
    O   O13  0.500110  0.950210  0.527830  -0.602962
    O   O14  0.499950  0.049680  0.527800  -0.604950
    O   O15  0.399760  0.999870  0.527340  -0.604569
    O   O16  0.600220  0.000070  0.528280  -0.605265
    C   C5   0.644480  0.000210  0.409820  0.725013
    C   C6   0.355740  0.999800  0.408460  0.720899
    C   C7   0.500020  0.071670  0.409120  0.408047
    C   C8   0.500210  0.928340  0.409150  0.403827
    C   C9   0.500200  0.885660  0.409160  0.154355
    C   C10  0.500100  0.865060  0.530080  -0.173285
    C   C11  0.500100  0.825030  0.530240  -0.277116
    C   C12  0.500200  0.804430  0.408930  0.341537
    C   C13  0.500300  0.825100  0.288320  -0.100667
    C   C14  0.500300  0.865090  0.288240  -0.018137
    C   C15  0.500200  0.761820  0.401440  -0.244057
    C   C16  0.500110  0.738180  0.507770  -0.263614
    C   C17  0.500020  0.674900  0.620870  -0.076768
    C   C18  0.500120  0.695570  0.500260  0.176786
    C   C19  0.500210  0.674980  0.378940  0.070686
    C   C20  0.500210  0.634950  0.379100  -0.328043
    C   C21  0.500110  0.614340  0.500010  0.498188
    C   C22  0.500010  0.634910  0.620940  -0.264325
    H   H1   0.500030  0.880150  0.624610  0.188906
    H   H2   0.500020  0.810850  0.625940  0.179926
    H   H3   0.499940  0.689760  0.715850  0.103106
    H   H4   0.500290  0.689160  0.283240  0.039449
    H   H5   0.500280  0.749900  0.302040  0.178700
    H   H6   0.500030  0.750100  0.607160  0.209549
    C   C23  0.500020  0.114340  0.409130  0.151766
    C   C24  0.499890  0.134950  0.530040  -0.172123
    C   C25  0.499890  0.174980  0.530220  -0.276809
    C   C26  0.500010  0.195570  0.408900  0.341397
    C   C27  0.500140  0.174910  0.288290  -0.099955
    C   C28  0.500140  0.134920  0.288210  -0.018056
    C   C29  0.500020  0.238180  0.401420  -0.244717
    C   C30  0.499910  0.261820  0.507740  -0.262865
    C   C31  0.499790  0.325100  0.620850  -0.077409
    C   C32  0.499910  0.304430  0.500240  0.176892
    C   C33  0.500040  0.325030  0.378920  0.070211
    C   C34  0.500030  0.365050  0.379090  -0.327629
    C   C35  0.499910  0.385660  0.500000  0.497752
    C   C36  0.499780  0.365090  0.620920  -0.264074
    H   H7   0.499800  0.119850  0.624580  0.187753
    H   H8   0.499790  0.189160  0.625910  0.179977
    H   H9   0.499690  0.310240  0.715840  0.103280
    H   H10  0.500140  0.310850  0.283220  0.039821
    H   H11  0.500120  0.250100  0.302020  0.178825
    H   H12  0.499810  0.249900  0.607140  0.209288
    C   C37  0.274070  0.499970  0.499980  -0.421888
    C   C38  0.231680  0.499920  0.621330  0.366104
    C   C39  0.150620  0.499930  0.621700  -0.296540
    C   C40  0.109540  0.499980  0.500010  0.236697
    C   C41  0.150610  0.500040  0.378300  -0.297288
    C   C42  0.231670  0.500030  0.378650  0.366736
    C   C43  0.034420  0.499990  0.500020  -0.100415
    C   C44  0.965590  0.500000  0.500030  -0.099956
    C   C45  0.890470  0.500000  0.500030  0.236267
    C   C46  0.849390  0.499940  0.621730  -0.296446
    C   C47  0.768330  0.499950  0.621370  0.365757
    C   C48  0.725940  0.500020  0.500030  -0.421728
    C   C49  0.768340  0.500080  0.378690  0.367180
    C   C50  0.849390  0.500070  0.378330  -0.297147
    H   H13  0.122180  0.499890  0.711500  0.194489
    H   H14  0.122160  0.500080  0.288510  0.194598
    H   H15  0.877830  0.499890  0.711520  0.194463
    H   H16  0.877840  0.500120  0.288530  0.194562
    C   C51  0.274170  0.001290  0.412930  -0.393586
    C   C52  0.231980  0.001270  0.291380  0.357447
    C   C53  0.150920  0.001140  0.290610  -0.299281
    C   C54  0.109650  0.001020  0.412100  0.242066
    C   C55  0.150520  0.001030  0.534010  -0.297107
    C   C56  0.231580  0.001170  0.534050  0.352223
    C   C57  0.034530  0.000890  0.411720  -0.101114
    C   C58  0.965700  0.000770  0.411370  -0.102401
    C   C59  0.890580  0.000640  0.411010  0.243451
    C   C60  0.849700  0.000630  0.289110  -0.304657
    C   C61  0.768640  0.000490  0.289080  0.366262
    C   C62  0.726050  0.000350  0.410210  -0.398044
    C   C63  0.768250  0.000370  0.531760  0.349435
    C   C64  0.849300  0.000510  0.532510  -0.294474
    H   H17  0.122630  0.001130  0.200670  0.193767
    H   H18  0.121930  0.000950  0.623660  0.192466
    H   H19  0.878280  0.000730  0.199460  0.195556
    H   H20  0.877600  0.000510  0.622440  0.191110
    Br  Br1  0.500450  0.893980  0.106800  -0.037562
    Br  Br2  0.500440  0.796590  0.106140  -0.074549
    Br  Br3  0.500350  0.606010  0.197760  -0.001777
    Br  Br4  0.499870  0.606010  0.802370  -0.013905
    Br  Br5  0.500330  0.106020  0.106770  -0.037736
    Br  Br6  0.500330  0.203420  0.106110  -0.074766
    Br  Br7  0.500220  0.394000  0.197750  -0.002367
    Br  Br8  0.499590  0.393990  0.802360  -0.013583
    O   O17  0.273180  0.499860  0.754000  -0.555387
    H   H21  0.336270  0.499870  0.736540  0.431952
    O   O18  0.273150  0.500090  0.245960  -0.554195
    H   H22  0.336250  0.500080  0.263410  0.428881
    O   O19  0.726840  0.499880  0.754050  -0.554801
    H   H23  0.663750  0.499900  0.736590  0.431256
    O   O20  0.726840  0.500160  0.246010  -0.554525
    H   H24  0.663750  0.500150  0.263460  0.429114
    O   O21  0.273690  0.001400  0.158910  -0.549791
    H   H25  0.336760  0.001500  0.176680  0.412409
    O   O22  0.272850  0.001190  0.666950  -0.528177
    H   H26  0.335970  0.001300  0.649810  0.386016
    O   O23  0.727360  0.000490  0.156200  -0.547549
    H   H27  0.664240  0.000370  0.173340  0.410688
    O   O24  0.726540  0.000220  0.664240  -0.532434
    H   H28  0.663470  0.000120  0.646480  0.388515
