# Generated by REPEAT Assigner based on pymatgen
data_DB1-Zn2O8N2-DPAC_A-irmof10_A_No86
_audit_creation_date              2022-05-24
_audit_creation_method            REPEAT_Assigner
_cell_length_a                    32.718900
_cell_length_b                    17.572400
_cell_length_c                    16.737700
_cell_angle_alpha                 90.040700
_cell_angle_beta                  89.868200
_cell_angle_gamma                 89.769900
_cell_volume                      9623.228336
_symmetry_space_group_name_H-M    P1
_symmetry_Int_Tables_number       1
loop_
    _symmetry_equiv_pos_site_id
    _symmetry_equiv_pos_as_xyz
    1  x,y,z
loop_
    _atom_site_type_symbol
    _atom_site_label
    _atom_site_fract_x
    _atom_site_fract_y
    _atom_site_fract_z
    _atom_type_partial_charge
    O   O1    0.500300  0.390250  0.581120  -0.566331
    O   O2    0.500100  0.390270  0.418720  -0.566313
    C   C1    0.500150  0.351590  0.499930  0.436349
    Zn  Zn1   0.500000  0.500010  0.599040  1.015735
    O   O3    0.558930  0.499870  0.418630  -0.635575
    O   O4    0.558950  0.499960  0.581030  -0.463963
    C   C2    0.579720  0.499820  0.499850  0.464069
    O   O5    0.499780  0.609780  0.418880  -0.585849
    O   O6    0.499830  0.609750  0.581280  -0.603243
    C   C3    0.499820  0.648440  0.500080  0.498963
    Zn  Zn2   0.500000  0.500020  0.400960  1.051350
    O   O7    0.441070  0.500000  0.581370  -0.590754
    O   O8    0.441050  0.500190  0.418970  -0.578024
    C   C4    0.420280  0.499940  0.500150  0.495196
    O   O9    0.962810  0.388020  0.418860  -0.570573
    O   O10   0.963010  0.388230  0.581250  -0.570583
    C   C5    0.963030  0.349460  0.500040  0.450055
    Zn  Zn3   0.962930  0.497760  0.400960  1.021311
    O   O11   0.904000  0.498370  0.581370  -0.637981
    O   O12   0.903970  0.498280  0.418970  -0.466920
    C   C6    0.883210  0.498420  0.500150  0.463145
    O   O13   0.962970  0.607740  0.581140  -0.586909
    O   O14   0.962920  0.607530  0.418750  -0.605071
    C   C7    0.962860  0.646300  0.499960  0.502351
    Zn  Zn4   0.962920  0.498000  0.599040  1.053823
    O   O15   0.021860  0.497230  0.418640  -0.595602
    O   O16   0.021880  0.497610  0.581030  -0.582198
    C   C8    0.042650  0.497070  0.499850  0.494421
    N   N1    0.500010  0.500020  0.284450  -0.169725
    C   C9    0.526350  0.451210  0.240300  0.124495
    C   C10   0.526430  0.451060  0.156170  -0.476349
    C   C11   0.500010  0.500000  0.113690  0.590314
    C   C12   0.473590  0.548960  0.156470  -0.308777
    C   C13   0.473670  0.548820  0.240600  0.196073
    C   C14   0.500010  0.500000  0.035720  -0.231764
    C   C15   0.500010  0.499990  0.964280  -0.160907
    C   C16   0.500000  0.499990  0.886310  0.517773
    C   C17   0.526410  0.451030  0.843520  -0.281957
    C   C18   0.526330  0.451170  0.759390  0.201467
    N   N2    0.500000  0.500000  0.715550  -0.187376
    C   C19   0.473670  0.548820  0.759710  0.137668
    C   C20   0.473590  0.548960  0.843840  -0.455483
    H   H1    0.545880  0.415040  0.269380  0.139255
    H   H2    0.545920  0.414940  0.126530  0.230604
    H   H3    0.454140  0.585010  0.269910  0.099499
    H   H4    0.545850  0.414980  0.730080  0.074446
    H   H5    0.454140  0.585010  0.730630  0.145154
    H   H6    0.454100  0.585090  0.873480  0.225891
    C   C21   0.500110  0.270950  0.499950  -0.008783
    C   C22   0.500120  0.229100  0.572450  -0.048149
    C   C23   0.500080  0.148970  0.572690  -0.374078
    C   C24   0.500030  0.108300  0.499990  0.473210
    C   C25   0.500010  0.148840  0.427270  -0.187761
    C   C26   0.500050  0.228970  0.427460  0.015486
    C   C27   0.499990  0.034030  0.500010  -0.206499
    C   C28   0.499960  0.965990  0.500030  -0.166384
    C   C29   0.499920  0.891730  0.500040  0.457072
    C   C30   0.499930  0.851180  0.572750  -0.194847
    C   C31   0.499890  0.771040  0.572550  0.053968
    C   C32   0.499850  0.729080  0.500060  -0.069795
    C   C33   0.499850  0.770930  0.427560  0.013287
    C   C34   0.499880  0.851060  0.427340  -0.385196
    H   H7    0.500160  0.256960  0.626190  0.135485
    H   H8    0.500090  0.120900  0.626340  0.207414
    H   H9    0.500040  0.256740  0.373710  0.093463
    H   H10   0.499890  0.743280  0.626300  0.075276
    H   H11   0.499820  0.743070  0.373830  0.105096
    H   H12   0.499880  0.879130  0.373680  0.203222
    C   C35   0.623780  0.499620  0.499900  -0.124855
    C   C36   0.839150  0.498630  0.500110  -0.118139
    C   C37   0.645230  0.499560  0.571580  0.630219
    C   C38   0.688090  0.499360  0.572280  -0.561680
    C   C39   0.817700  0.498680  0.428430  0.626998
    C   C40   0.774840  0.498880  0.427720  -0.564137
    C   C41   0.817500  0.498770  0.571740  -0.092215
    C   C42   0.774630  0.498970  0.572370  -0.335913
    C   C43   0.645430  0.499480  0.428260  -0.086664
    C   C44   0.688300  0.499280  0.427630  -0.335364
    C   C45   0.709870  0.499220  0.499980  0.230314
    C   C46   0.753060  0.499020  0.500020  0.238050
    H   H13   0.702510  0.499330  0.622180  0.154572
    H   H14   0.760420  0.498920  0.377830  0.156197
    H   H15   0.832090  0.498730  0.621430  0.125610
    H   H16   0.760070  0.499060  0.622230  0.153666
    H   H17   0.630830  0.499520  0.378570  0.123636
    H   H18   0.702860  0.499180  0.377770  0.153154
    C   C47   0.085950  0.497410  0.499880  -0.071849
    C   C48   0.108560  0.497650  0.427410  0.011065
    C   C49   0.151600  0.497980  0.427220  -0.413513
    C   C50   0.173310  0.498080  0.499950  0.489566
    C   C51   0.151400  0.497850  0.572640  -0.223620
    C   C52   0.108360  0.497520  0.572400  0.064814
    C   C53   0.213190  0.498390  0.499970  -0.179660
    C   C54   0.249740  0.498660  0.499990  -0.189038
    C   C55   0.289620  0.498970  0.500030  0.492277
    C   C56   0.311530  0.499220  0.427340  -0.224239
    C   C57   0.354570  0.499540  0.427590  0.071027
    C   C58   0.376970  0.499620  0.500110  -0.079485
    C   C59   0.354360  0.499370  0.572580  0.014730
    C   C60   0.311330  0.499040  0.572760  -0.413036
    H   H19   0.093700  0.497580  0.373650  0.120670
    H   H20   0.166770  0.498140  0.373580  0.214753
    H   H21   0.093360  0.497360  0.626130  0.085074
    H   H22   0.369580  0.499720  0.373860  0.081306
    H   H23   0.369220  0.499420  0.626340  0.118503
    H   H24   0.296150  0.498870  0.626400  0.214531
    N   N3    0.962920  0.496980  0.715550  -0.166746
    C   C61   0.936660  0.448460  0.759690  0.123151
    C   C62   0.936580  0.448410  0.843830  -0.478177
    C   C63   0.962920  0.497160  0.886310  0.595067
    C   C64   0.989260  0.545820  0.843540  -0.307288
    C   C65   0.989180  0.545590  0.759410  0.190414
    C   C66   0.962920  0.497240  0.964280  -0.234629
    C   C67   0.962920  0.497320  0.035720  -0.162644
    C   C68   0.962930  0.497410  0.113690  0.521453
    C   C69   0.936600  0.448740  0.156470  -0.281469
    C   C70   0.936680  0.448980  0.240600  0.197531
    N   N4    0.962930  0.497610  0.284450  -0.184692
    C   C71   0.989180  0.546140  0.240300  0.133903
    C   C72   0.989260  0.546180  0.156170  -0.454835
    H   H25   0.917190  0.412430  0.730600  0.140640
    H   H26   0.917150  0.412500  0.873450  0.230999
    H   H27   0.008650  0.581550  0.730110  0.101587
    H   H28   0.917220  0.413000  0.269910  0.076526
    H   H29   0.008640  0.582190  0.269390  0.146783
    H   H30   0.008680  0.582100  0.126540  0.225678
    C   C73   0.961550  0.268820  0.500220  -0.027990
    C   C74   0.961600  0.226890  0.427710  -0.035801
    C   C75   0.961780  0.146760  0.427450  -0.384185
    C   C76   0.961900  0.106170  0.500150  0.483617
    C   C77   0.961840  0.146790  0.572870  -0.196555
    C   C78   0.961670  0.226930  0.572700  0.027231
    C   C79   0.962050  0.031900  0.500110  -0.211067
    C   C80   0.962200  0.963860  0.500070  -0.162536
    C   C81   0.962360  0.889600  0.500050  0.456192
    C   C82   0.962420  0.848960  0.427320  -0.195896
    C   C83   0.962590  0.768830  0.427510  0.053668
    C   C84   0.962700  0.726940  0.499990  -0.069967
    C   C85   0.962630  0.768880  0.572500  0.013905
    C   C86   0.962460  0.849010  0.572740  -0.386879
    H   H31   0.961520  0.254690  0.373980  0.133392
    H   H32   0.961810  0.118630  0.373790  0.209113
    H   H33   0.961640  0.254750  0.626450  0.092069
    H   H34   0.962630  0.741000  0.373750  0.075889
    H   H35   0.962700  0.741090  0.626230  0.105309
    H   H36   0.962420  0.877150  0.626400  0.203702
    Br  Br1   0.434080  0.622150  0.096870  -0.003225
    Br  Br2   0.565900  0.377800  0.903110  -0.040804
    Br  Br3   0.499930  0.091760  0.318560  -0.055301
    Br  Br4   0.499980  0.908250  0.681470  -0.063097
    Br  Br5   0.181860  0.497990  0.681390  -0.049901
    Br  Br6   0.281080  0.499130  0.318590  -0.049759
    Br  Br7   0.028650  0.618710  0.903160  -0.003748
    Br  Br8   0.897230  0.375810  0.096860  -0.041033
    Br  Br9   0.962020  0.089840  0.681570  -0.054757
    Br  Br10  0.962270  0.905910  0.318620  -0.063032
    O   O17   0.625300  0.499690  0.638720  -0.866918
    Li  Li1   0.640450  0.499680  0.736490  0.830865
    O   O18   0.837630  0.498550  0.361280  -0.866414
    Li  Li2   0.822480  0.498570  0.263510  0.830669
