# Generated by REPEAT Assigner based on pymatgen
data_DB1-Cu2O8-irmof10_A-irmof7_A_No245
_audit_creation_date              2022-05-24
_audit_creation_method            REPEAT_Assigner
_cell_length_a                    29.891500
_cell_length_b                    39.238400
_cell_length_c                    10.000000
_cell_angle_alpha                 90.000000
_cell_angle_beta                  90.000000
_cell_angle_gamma                 40.510700
_cell_volume                      7619.006755
_symmetry_space_group_name_H-M    P1
_symmetry_Int_Tables_number       1
loop_
    _symmetry_equiv_pos_site_id
    _symmetry_equiv_pos_as_xyz
    1  x,y,z
loop_
    _atom_site_type_symbol
    _atom_site_label
    _atom_site_fract_x
    _atom_site_fract_y
    _atom_site_fract_z
    _atom_type_partial_charge
    Cu  Cu1   0.500000  0.500000  0.372740  1.134682
    Cu  Cu2   0.500000  0.500000  0.627260  1.185346
    O   O1    0.431790  0.568220  0.381320  -0.640066
    O   O2    0.568220  0.431650  0.381320  -0.596318
    O   O3    0.441850  0.499860  0.381320  -0.567253
    O   O4    0.558150  0.500010  0.381320  -0.606495
    O   O5    0.558170  0.500130  0.618680  -0.581756
    O   O6    0.441830  0.500010  0.618680  -0.616926
    O   O7    0.568200  0.431730  0.618680  -0.607368
    O   O8    0.431800  0.568360  0.618680  -0.459956
    C   C1    0.401690  0.598400  0.500000  0.601007
    C   C2    0.598300  0.401610  0.500000  0.556509
    C   C3    0.416160  0.499940  0.500000  0.578116
    C   C4    0.583830  0.500070  0.500000  0.651983
    Cu  Cu3   0.999860  0.500150  0.627300  1.104525
    Cu  Cu4   0.000110  0.499890  0.372780  1.182120
    O   O9    0.931910  0.568350  0.618260  -0.619310
    O   O10   0.068090  0.431780  0.619170  -0.593883
    O   O11   0.058300  0.499990  0.618720  -0.542441
    O   O12   0.941700  0.500140  0.618720  -0.594981
    O   O13   0.941690  0.500020  0.381360  -0.595688
    O   O14   0.058260  0.499910  0.381350  -0.588035
    O   O15   0.068180  0.431620  0.381810  -0.606183
    O   O16   0.931860  0.568250  0.380910  -0.507182
    C   C5    0.901890  0.598410  0.499380  0.632801
    C   C6    0.098090  0.401620  0.500680  0.568349
    C   C7    0.083950  0.499950  0.500030  0.542001
    C   C8    0.916020  0.500080  0.500030  0.642892
    Cu  Cu5   0.086650  0.913640  0.627300  1.120798
    Cu  Cu6   0.086330  0.913640  0.372790  1.116531
    O   O17   0.154820  0.845430  0.618730  -0.537949
    O   O18   0.018180  0.982000  0.618720  -0.582653
    O   O19   0.028460  0.913520  0.619370  -0.584792
    O   O20   0.144540  0.913900  0.618080  -0.584192
    O   O21   0.144500  0.913780  0.380720  -0.586800
    O   O22   0.028460  0.913360  0.382010  -0.599851
    O   O23   0.018040  0.981910  0.381370  -0.589872
    O   O24   0.154810  0.845290  0.381370  -0.597746
    C   C9    0.184910  0.815240  0.500040  0.525447
    C   C10   0.988060  0.012040  0.500040  0.572097
    C   C11   0.002900  0.913320  0.500980  0.625995
    C   C12   0.170070  0.913960  0.499110  0.589745
    Cu  Cu7   0.587810  0.913520  0.369980  1.129461
    Cu  Cu8   0.587870  0.913780  0.624500  1.143186
    O   O25   0.655800  0.845320  0.379010  -0.537375
    O   O26   0.519830  0.981890  0.378110  -0.587566
    O   O27   0.646230  0.913410  0.377920  -0.600251
    O   O28   0.529400  0.913790  0.379210  -0.580278
    O   O29   0.529440  0.913910  0.616570  -0.610441
    O   O30   0.646310  0.913500  0.615280  -0.606460
    O   O31   0.519890  0.982050  0.615460  -0.589974
    O   O32   0.655840  0.845420  0.616370  -0.628080
    C   C13   0.685820  0.815260  0.497900  0.559461
    C   C14   0.489870  0.012050  0.496590  0.550116
    C   C15   0.672060  0.913340  0.496310  0.619244
    C   C16   0.503630  0.913970  0.498170  0.656149
    C   C17   0.632060  0.500070  0.500010  -0.195104
    C   C18   0.867800  0.500080  0.500030  -0.171462
    C   C19   0.655710  0.500010  0.380070  0.073921
    C   C20   0.702630  0.500010  0.378960  -0.112439
    C   C21   0.844140  0.500140  0.619970  0.039899
    C   C22   0.797230  0.500140  0.621080  -0.097376
    C   C23   0.844270  0.500020  0.380090  0.088008
    C   C24   0.797350  0.500020  0.378970  -0.467193
    C   C25   0.655590  0.500140  0.619950  0.101170
    C   C26   0.702500  0.500140  0.621070  -0.494942
    C   C27   0.726290  0.500070  0.500020  0.239281
    C   C28   0.773560  0.500080  0.500020  0.222675
    H   H1    0.639700  0.499970  0.296920  0.086434
    H   H2    0.860150  0.500180  0.703110  0.097910
    H   H3    0.860370  0.499970  0.296940  0.090165
    H   H4    0.781540  0.499970  0.295480  0.324695
    H   H5    0.639490  0.500180  0.703090  0.075988
    H   H6    0.718320  0.500180  0.704550  0.352804
    C   C29   0.367940  0.499940  0.500010  -0.145152
    C   C30   0.132180  0.499950  0.500030  -0.107808
    C   C31   0.344420  0.499860  0.380070  0.074085
    C   C32   0.297500  0.499860  0.378960  -0.138623
    C   C33   0.155690  0.500030  0.619970  0.033219
    C   C34   0.202610  0.500030  0.621080  -0.109829
    C   C35   0.155850  0.499870  0.380090  0.060867
    C   C36   0.202770  0.499870  0.378970  -0.450919
    C   C37   0.344270  0.500020  0.619950  0.103487
    C   C38   0.297350  0.500020  0.621070  -0.504940
    C   C39   0.273700  0.499940  0.500020  0.257510
    C   C40   0.226420  0.499950  0.500020  0.228334
    H   H7    0.360530  0.499800  0.296920  0.059049
    H   H8    0.139580  0.500080  0.703110  0.077012
    H   H9    0.139850  0.499820  0.296940  0.091495
    H   H10   0.218690  0.499810  0.295480  0.316475
    H   H11   0.360270  0.500070  0.703090  0.082167
    H   H12   0.281430  0.500080  0.704550  0.348775
    C   C41   0.242150  0.757990  0.500030  -0.220065
    C   C42   0.240040  0.731080  0.413620  0.269340
    C   C43   0.297940  0.731210  0.586430  -0.090172
    C   C44   0.183400  0.759390  0.329230  -0.366359
    C   C45   0.179340  0.734090  0.241810  0.054164
    H   H13   0.147750  0.795820  0.331510  0.192391
    C   C46   0.344460  0.655650  0.500010  -0.241216
    C   C47   0.346570  0.682570  0.586420  0.002040
    C   C48   0.288670  0.682440  0.413610  0.235210
    C   C49   0.288750  0.654000  0.329210  -0.328984
    C   C50   0.234240  0.679170  0.241800  -0.074341
    H   H14   0.325930  0.617580  0.331480  0.204121
    C   C51   0.654880  0.345050  0.500010  -0.072703
    C   C52   0.931480  0.068590  0.500040  -0.114935
    C   C53   0.682530  0.317390  0.380070  0.021269
    C   C54   0.737580  0.262370  0.378960  -0.100902
    C   C55   0.903830  0.096260  0.619970  0.037769
    C   C56   0.848790  0.151280  0.621080  -0.105895
    C   C57   0.903770  0.096250  0.380090  0.048807
    C   C58   0.848720  0.151270  0.378970  -0.475924
    C   C59   0.682600  0.317390  0.619950  0.012897
    C   C60   0.737640  0.262370  0.621070  -0.475439
    C   C61   0.765450  0.234540  0.500020  0.230758
    C   C62   0.820920  0.179100  0.500030  0.226788
    H   H15   0.663670  0.336210  0.296930  0.093805
    H   H16   0.922700  0.077430  0.703120  0.088833
    H   H17   0.922590  0.077420  0.296950  0.093069
    H   H18   0.830090  0.169870  0.295490  0.327745
    H   H19   0.663780  0.336220  0.703090  0.108766
    H   H20   0.756280  0.243770  0.704560  0.335046
    C   C63   0.742870  0.758010  0.498290  -0.261243
    C   C64   0.798610  0.731180  0.584880  0.313162
    C   C65   0.740630  0.731130  0.412070  -0.061925
    C   C66   0.798660  0.759580  0.669090  -0.423069
    C   C67   0.853120  0.734370  0.756670  0.034227
    H   H21   0.761600  0.796000  0.666560  0.256829
    C   C68   0.844840  0.655660  0.498990  -0.226163
    C   C69   0.789100  0.682490  0.412400  -0.004065
    C   C70   0.847070  0.682540  0.585210  0.186515
    C   C71   0.903660  0.654190  0.669810  -0.280991
    C   C72   0.907840  0.679450  0.757040  -0.057211
    H   H22   0.939190  0.617770  0.667780  0.155991
    C   C73   0.154390  0.345070  0.501060  -0.092801
    C   C74   0.429640  0.068610  0.502870  -0.090315
    C   C75   0.181850  0.317520  0.621180  0.030691
    C   C76   0.236630  0.262500  0.622650  -0.104944
    C   C77   0.402180  0.096150  0.382750  0.013556
    C   C78   0.347400  0.151170  0.381270  -0.099399
    C   C79   0.402010  0.096390  0.622620  0.047249
    C   C80   0.347230  0.151410  0.623380  -0.477654
    C   C81   0.182020  0.317280  0.381300  0.035243
    C   C82   0.236800  0.262260  0.380540  -0.480119
    C   C83   0.264420  0.234550  0.501780  0.229628
    C   C84   0.319610  0.179120  0.502140  0.229448
    H   H23   0.163040  0.336430  0.704200  0.091170
    H   H24   0.420990  0.077240  0.299730  0.097222
    H   H25   0.420700  0.077650  0.705890  0.092700
    H   H26   0.328650  0.170100  0.706740  0.329950
    H   H27   0.163330  0.336030  0.298030  0.100143
    H   H28   0.255380  0.243580  0.297180  0.331462
    C   C85   0.218080  0.914180  0.498570  -0.129947
    C   C86   0.452740  0.915260  0.495930  -0.199451
    C   C87   0.241650  0.914350  0.618250  0.033494
    C   C88   0.288350  0.914560  0.618840  -0.078950
    C   C89   0.429170  0.915090  0.376260  0.073610
    C   C90   0.382470  0.914870  0.375670  -0.094123
    C   C91   0.429350  0.915210  0.616130  0.065254
    C   C92   0.382650  0.915000  0.617770  -0.469400
    C   C93   0.241470  0.914220  0.378370  0.024995
    C   C94   0.288170  0.914440  0.376730  -0.441862
    C   C95   0.311880  0.914610  0.497520  0.207257
    C   C96   0.358940  0.914830  0.496990  0.233660
    H   H29   0.225730  0.914320  0.701570  0.099683
    H   H30   0.445090  0.915120  0.292930  0.075377
    H   H31   0.445390  0.915330  0.699100  0.092247
    H   H32   0.366920  0.914970  0.701430  0.328540
    H   H33   0.225430  0.914110  0.295410  0.104715
    H   H34   0.303900  0.914470  0.293070  0.308182
    C   C97   0.954900  0.913100  0.501510  -0.203277
    C   C98   0.720260  0.912000  0.504100  -0.186117
    C   C99   0.931490  0.913070  0.621710  0.080039
    C   C100  0.884790  0.912850  0.623340  -0.108541
    C   C101  0.743670  0.912030  0.383900  0.083720
    C   C102  0.790370  0.912250  0.382270  -0.124622
    C   C103  0.743810  0.912190  0.623780  0.151111
    C   C104  0.790510  0.912410  0.624380  -0.555218
    C   C105  0.931350  0.912910  0.381830  0.122916
    C   C106  0.884660  0.912690  0.381230  -0.520765
    C   C107  0.861110  0.912660  0.502540  0.257072
    C   C108  0.814060  0.912440  0.503070  0.257958
    H   H35   0.947520  0.913200  0.704670  0.069338
    H   H36   0.727640  0.911900  0.300940  0.070514
    H   H37   0.727870  0.912170  0.707100  0.044227
    H   H38   0.806340  0.912540  0.707690  0.360927
    H   H39   0.947290  0.912930  0.298510  0.059241
    H   H40   0.868820  0.912560  0.297920  0.338843
    Cl  Cl1   0.731780  0.499930  0.225920  -0.071842
    Cl  Cl2   0.768070  0.500220  0.774120  -0.084059
    Cl  Cl3   0.268520  0.499760  0.225920  -0.042173
    Cl  Cl4   0.231590  0.500130  0.774120  -0.062588
    Cl  Cl5   0.771650  0.228260  0.225920  -0.077082
    Cl  Cl6   0.814720  0.185380  0.774120  -0.080350
    Cl  Cl7   0.270470  0.228560  0.775920  -0.077271
    Cl  Cl8   0.313560  0.185110  0.228000  -0.079570
    Cl  Cl9   0.317410  0.914780  0.771550  -0.081458
    Cl  Cl10  0.353410  0.914660  0.222950  -0.063759
    Cl  Cl11  0.855940  0.912820  0.776700  -0.051482
    Cl  Cl12  0.819220  0.912280  0.228910  -0.043586
    C   C109  0.407890  0.652140  0.678470  0.557563
    O   O33   0.426700  0.672570  0.712830  -0.438236
    O   O34   0.440930  0.608180  0.717980  -0.414868
    H   H41   0.388930  0.710740  0.684130  0.289716
    C   C110  0.298300  0.761770  0.678490  0.535877
    O   O35   0.266660  0.808510  0.640980  -0.398210
    O   O36   0.329360  0.742540  0.785750  -0.392356
    H   H42   0.237780  0.819920  0.559080  0.284932
    C   C111  0.117720  0.764970  0.150260  0.478835
    O   O37   0.056200  0.811670  0.188540  -0.418972
    O   O38   0.124690  0.746050  0.042680  -0.384507
    H   H43   0.062590  0.822820  0.270630  0.334282
    C   C112  0.234510  0.648150  0.150240  0.560895
    O   O39   0.293940  0.601450  0.105730  -0.458407
    O   O40   0.179670  0.666970  0.114940  -0.398927
    H   H44   0.332510  0.590400  0.157850  0.354888
    C   C113  0.788600  0.651970  0.320560  0.539892
    O   O41   0.729050  0.672360  0.286050  -0.475373
    O   O42   0.843350  0.607970  0.281330  -0.376659
    H   H45   0.690610  0.710560  0.314510  0.321586
    C   C114  0.679370  0.761590  0.319810  0.514373
    O   O43   0.617660  0.808380  0.357010  -0.388926
    O   O44   0.686800  0.742250  0.212670  -0.384937
    H   H46   0.623690  0.819870  0.438830  0.257686
    C   C115  0.853000  0.765350  0.848010  0.479491
    O   O45   0.821350  0.812000  0.809420  -0.404402
    O   O46   0.883690  0.746540  0.955710  -0.390717
    H   H47   0.792790  0.823070  0.727260  0.313088
    C   C116  0.969400  0.648530  0.848810  0.581911
    O   O47   0.003130  0.601880  0.893630  -0.458780
    O   O48   0.986650  0.667380  0.883990  -0.402371
    H   H48   0.986680  0.590770  0.841580  0.344947
