# Generated by REPEAT Assigner based on pymatgen
data_DB1-Zn4O13-irmof10_A-irmof8_A_No462
_audit_creation_date              2022-05-24
_audit_creation_method            REPEAT_Assigner
_cell_length_a                    21.411500
_cell_length_b                    22.836200
_cell_length_c                    37.926200
_cell_angle_alpha                 101.063000
_cell_angle_beta                  106.396000
_cell_angle_gamma                 62.043100
_cell_volume                      15675.202053
_symmetry_space_group_name_H-M    P1
_symmetry_Int_Tables_number       1
loop_
    _symmetry_equiv_pos_site_id
    _symmetry_equiv_pos_as_xyz
    1  x,y,z
loop_
    _atom_site_type_symbol
    _atom_site_label
    _atom_site_fract_x
    _atom_site_fract_y
    _atom_site_fract_z
    _atom_type_partial_charge
    Zn  Zn1   0.409570  0.549180  0.516390  1.346370
    Zn  Zn2   0.479370  0.487840  0.446590  1.297503
    Zn  Zn3   0.553420  0.413800  0.520630  1.270466
    Zn  Zn4   0.557650  0.549180  0.516390  1.251957
    O   O1    0.500000  0.500000  0.500000  -1.580412
    O   O2    0.325880  0.572030  0.476170  -0.683013
    O   O3    0.516620  0.395730  0.428960  -0.606319
    O   O4    0.503380  0.400760  0.551040  -0.621947
    O   O5    0.377190  0.526940  0.424860  -0.602461
    O   O6    0.397650  0.500270  0.547930  -0.660736
    O   O7    0.571040  0.341310  0.483390  -0.371386
    O   O8    0.646910  0.400760  0.551040  -0.555703
    O   O9    0.510600  0.631480  0.543830  -0.321225
    O   O10   0.650020  0.500270  0.547930  -0.459149
    O   O11   0.401750  0.631480  0.543830  -0.560361
    O   O12   0.520720  0.526940  0.424860  -0.606637
    O   O13   0.578260  0.572030  0.476170  -0.691757
    C   C1    0.322510  0.559160  0.440840  0.552463
    C   C2    0.552400  0.342810  0.447610  0.321615
    C   C3    0.440840  0.440840  0.559160  0.530995
    C   C4    0.677490  0.440840  0.559160  0.376436
    C   C5    0.447610  0.657190  0.552400  0.215342
    C   C6    0.559160  0.559160  0.440840  0.579539
    Zn  Zn5   0.340440  0.200820  0.733610  1.342969
    Zn  Zn6   0.196590  0.336200  0.729370  1.337215
    Zn  Zn7   0.270630  0.262160  0.803420  1.255104
    Zn  Zn8   0.192350  0.200820  0.733610  1.213328
    O   O14   0.250000  0.250000  0.750000  -1.570362
    O   O15   0.352360  0.249730  0.702070  -0.668743
    O   O16   0.178960  0.408690  0.766620  -0.590663
    O   O17   0.372810  0.223060  0.825140  -0.597920
    O   O18   0.246620  0.349240  0.698960  -0.621519
    O   O19   0.424120  0.177970  0.773830  -0.655618
    O   O20   0.233390  0.354270  0.821040  -0.349607
    O   O21   0.229280  0.223060  0.825140  -0.560175
    O   O22   0.239400  0.118520  0.706170  -0.320350
    O   O23   0.171750  0.177970  0.773830  -0.465513
    O   O24   0.348250  0.118520  0.706170  -0.560644
    O   O25   0.103100  0.349240  0.698960  -0.669001
    O   O26   0.099980  0.249730  0.702070  -0.616251
    C   C7    0.309160  0.309160  0.690840  0.511716
    C   C8    0.197610  0.407190  0.802400  0.264885
    C   C9    0.427490  0.190840  0.809160  0.520779
    C   C10   0.190840  0.190840  0.809160  0.395587
    C   C11   0.302400  0.092810  0.697610  0.245737
    C   C12   0.072510  0.309160  0.690840  0.571900
    Zn  Zn9   0.770630  0.762160  0.303410  1.282499
    Zn  Zn10  0.692350  0.700820  0.233610  1.328058
    Zn  Zn11  0.840440  0.700820  0.233610  1.274963
    Zn  Zn12  0.696590  0.836200  0.229370  1.236404
    O   O27   0.750000  0.750000  0.250000  -1.564335
    O   O28   0.729280  0.723060  0.325140  -0.616465
    O   O29   0.739400  0.618520  0.206170  -0.585605
    O   O30   0.924120  0.677970  0.273830  -0.676152
    O   O31   0.671750  0.677970  0.273830  -0.689946
    O   O32   0.872810  0.723060  0.325140  -0.581088
    O   O33   0.848250  0.618520  0.206170  -0.328759
    O   O34   0.852360  0.749730  0.202070  -0.528350
    O   O35   0.678960  0.908690  0.266620  -0.287332
    O   O36   0.746620  0.849240  0.198960  -0.458009
    O   O37   0.733390  0.854270  0.321040  -0.584506
    O   O38   0.599980  0.749730  0.202070  -0.589304
    O   O39   0.603100  0.849240  0.198960  -0.688627
    C   C13   0.690840  0.690840  0.309160  0.577272
    C   C14   0.802400  0.592810  0.197600  0.223204
    C   C15   0.927490  0.690840  0.309160  0.534676
    C   C16   0.809170  0.809160  0.190840  0.331869
    C   C17   0.697610  0.907190  0.302400  0.228617
    C   C18   0.572510  0.809160  0.190840  0.546608
    Zn  Zn13  0.053410  0.913800  0.020630  1.324920
    Zn  Zn14  0.057650  0.049180  0.016390  1.299337
    Zn  Zn15  0.909570  0.049180  0.016390  1.284984
    Zn  Zn16  0.979380  0.987840  0.946590  1.236298
    O   O40   0.000000  0.000000  0.000000  -1.564582
    O   O41   0.146910  0.900760  0.051040  -0.685960
    O   O42   0.010600  0.131480  0.043830  -0.601010
    O   O43   0.897650  0.000270  0.047930  -0.662173
    O   O44   0.150020  0.000270  0.047930  -0.614609
    O   O45   0.003380  0.900760  0.051040  -0.590397
    O   O46   0.901750  0.131480  0.043830  -0.357724
    O   O47   0.825890  0.072030  0.976170  -0.541333
    O   O48   0.016620  0.895730  0.928960  -0.307632
    O   O49   0.877200  0.026940  0.924860  -0.447105
    O   O50   0.071040  0.841310  0.983390  -0.579346
    O   O51   0.078260  0.072030  0.976170  -0.595003
    O   O52   0.020720  0.026940  0.924860  -0.689976
    C   C19   0.177490  0.940840  0.059160  0.569096
    C   C20   0.947610  0.157190  0.052400  0.273421
    C   C21   0.940840  0.940840  0.059160  0.491315
    C   C22   0.822510  0.059160  0.940840  0.341982
    C   C23   0.052400  0.842810  0.947610  0.224084
    C   C24   0.059160  0.059160  0.940840  0.554249
    C   C25   0.426530  0.720430  0.573480  0.294769
    C   C26   0.323480  0.029570  0.676530  0.205227
    C   C27   0.472230  0.751360  0.583790  0.021529
    C   C28   0.452240  0.812890  0.604300  -0.227782
    C   C29   0.277770  0.998640  0.666210  0.140080
    C   C30   0.297760  0.937110  0.645700  -0.289471
    C   C31   0.389810  0.998640  0.666210  -0.179411
    C   C32   0.410830  0.937110  0.645700  -0.237219
    C   C33   0.360200  0.751360  0.583790  -0.225159
    C   C34   0.339170  0.812890  0.604300  -0.201738
    C   C35   0.385330  0.844000  0.614670  0.118267
    C   C36   0.364670  0.906000  0.635330  0.144139
    H   H1    0.484300  0.833690  0.611230  0.160980
    H   H2    0.265700  0.916310  0.638770  0.181400
    H   H3    0.421620  0.019690  0.673230  0.176028
    H   H4    0.456760  0.916310  0.638770  0.172397
    H   H5    0.328380  0.730310  0.576770  0.181874
    H   H6    0.293240  0.833690  0.611230  0.160251
    C   C37   0.573480  0.279570  0.426520  0.188503
    C   C38   0.676530  0.970430  0.323480  0.254427
    C   C39   0.611800  0.220630  0.444220  0.089458
    C   C40   0.632570  0.158840  0.423970  -0.237268
    C   C41   0.638210  0.029370  0.305780  0.052353
    C   C42   0.617440  0.091160  0.326030  -0.198353
    C   C43   0.694220  0.973350  0.361800  -0.204648
    C   C44   0.673970  0.034620  0.382570  -0.246190
    C   C45   0.555780  0.276650  0.388200  -0.188146
    C   C46   0.576030  0.215380  0.367440  -0.241862
    C   C47   0.614670  0.156000  0.385330  0.120741
    C   C48   0.635330  0.094000  0.364670  0.109299
    H   H7    0.658990  0.118550  0.436540  0.176558
    H   H8    0.591010  0.131450  0.313470  0.151136
    H   H9    0.720660  0.932880  0.374190  0.162859
    H   H10   0.686540  0.035920  0.408990  0.175203
    H   H11   0.529350  0.317120  0.375810  0.158234
    H   H12   0.563470  0.214080  0.341010  0.176085
    C   C49   0.392920  0.306730  0.652790  -0.273059
    C   C50   0.278490  0.398410  0.657910  -0.529486
    C   C51   0.284490  0.436270  0.635020  0.622653
    C   C52   0.347780  0.407370  0.620620  -0.051111
    C   C53   0.357080  0.443270  0.597210  -0.284188
    C   C54   0.471520  0.351590  0.592090  -0.503231
    C   C55   0.465520  0.313730  0.614980  0.629903
    C   C56   0.402220  0.342630  0.629380  -0.079401
    C   C57   0.333610  0.333610  0.666390  0.253356
    C   C58   0.416390  0.416390  0.583610  0.221889
    H   H13   0.435230  0.256870  0.659350  0.189207
    H   H14   0.230980  0.418850  0.669390  0.150922
    H   H15   0.314770  0.493130  0.590650  0.191322
    H   H16   0.519020  0.331160  0.580610  0.161648
    C   C59   0.627320  0.632550  0.326970  -0.297908
    C   C60   0.693350  0.686080  0.370250  -0.506047
    C   C61   0.679870  0.670660  0.400620  0.585820
    C   C62   0.638230  0.634610  0.393380  -0.031550
    C   C63   0.622680  0.617450  0.423030  -0.271107
    C   C64   0.556650  0.563920  0.379750  -0.517067
    C   C65   0.570130  0.579340  0.349380  0.613162
    C   C66   0.611780  0.615390  0.356620  -0.035430
    C   C67   0.666390  0.666390  0.333610  0.185228
    C   C68   0.583610  0.583610  0.416390  0.170306
    H   H17   0.606660  0.617460  0.298760  0.181234
    H   H18   0.724910  0.713500  0.374730  0.116289
    H   H19   0.643340  0.632540  0.451240  0.190519
    H   H20   0.525100  0.536500  0.375270  0.114145
    C   C69   0.067100  0.632550  0.326970  -0.334216
    C   C70   0.990830  0.686080  0.370250  -0.519321
    C   C71   0.050090  0.670660  0.400620  0.525346
    C   C72   0.120540  0.634610  0.393380  0.026118
    C   C73   0.182900  0.617450  0.423030  -0.344072
    C   C74   0.259180  0.563920  0.379750  -0.518727
    C   C75   0.199910  0.579340  0.349380  0.520261
    C   C76   0.129460  0.615390  0.356620  0.019575
    C   C77   0.000830  0.666390  0.333610  0.246043
    C   C78   0.249170  0.583610  0.416390  0.246101
    H   H21   0.074640  0.617480  0.298760  0.204252
    H   H22   0.936330  0.713510  0.374730  0.108588
    H   H23   0.175360  0.632520  0.451240  0.191011
    H   H24   0.313680  0.536490  0.375270  0.112976
    C   C79   0.955760  0.390310  0.650180  -0.217273
    C   C80   0.977380  0.282120  0.661550  -0.444160
    C   C81   0.909670  0.289090  0.639630  0.548691
    C   C82   0.863660  0.349590  0.622430  -0.038821
    C   C83   0.794240  0.359690  0.599820  -0.243641
    C   C84   0.772630  0.467880  0.588450  -0.508994
    C   C85   0.840340  0.460910  0.610380  0.579119
    C   C86   0.886340  0.400410  0.627570  -0.059034
    C   C87   0.999170  0.333610  0.666390  0.141131
    C   C88   0.750830  0.416390  0.583610  0.247926
    H   H25   0.972660  0.429820  0.653940  0.144771
    H   H26   0.013860  0.236680  0.675080  0.119903
    H   H27   0.777340  0.320180  0.596060  0.152508
    H   H28   0.736140  0.513320  0.574920  0.146617
    C   C89   0.176530  0.470430  0.823480  0.248811
    C   C90   0.073480  0.779570  0.926530  0.272159
    C   C91   0.194220  0.473350  0.861800  0.043731
    C   C92   0.173970  0.534620  0.882570  -0.247061
    C   C93   0.055780  0.776640  0.888210  0.042326
    C   C94   0.076030  0.715380  0.867440  -0.235708
    C   C95   0.111800  0.720630  0.944220  -0.204298
    C   C96   0.132570  0.658840  0.923970  -0.224776
    C   C97   0.138210  0.529370  0.805780  -0.197864
    C   C98   0.117440  0.591160  0.826030  -0.233343
    C   C99   0.135330  0.594000  0.864670  0.142037
    C   C100  0.114670  0.656000  0.885330  0.120740
    H   H29   0.186540  0.535920  0.908990  0.167553
    H   H30   0.063470  0.714080  0.841010  0.156963
    H   H31   0.124190  0.722270  0.970660  0.165468
    H   H32   0.158990  0.618550  0.936540  0.170421
    H   H33   0.125810  0.527730  0.779350  0.164534
    H   H34   0.091010  0.631450  0.813470  0.175343
    C   C101  0.682900  0.117450  0.923030  -0.324360
    C   C102  0.759180  0.063920  0.879750  -0.474198
    C   C103  0.699920  0.079340  0.849380  0.501620
    C   C104  0.629460  0.115390  0.856630  0.006826
    C   C105  0.567100  0.132550  0.826970  -0.316125
    C   C106  0.490820  0.186080  0.870250  -0.453713
    C   C107  0.550090  0.170660  0.900620  0.512340
    C   C108  0.620540  0.134610  0.893380  0.012307
    C   C109  0.749170  0.083610  0.916390  0.306742
    C   C110  0.500830  0.166390  0.833610  0.235100
    H   H35   0.675360  0.132540  0.951240  0.182961
    H   H36   0.813680  0.036500  0.875270  0.129166
    H   H37   0.574640  0.117460  0.798760  0.178013
    H   H38   0.436320  0.213500  0.874730  0.131936
    C   C111  0.074350  0.079580  0.879940  -0.229597
    C   C112  0.123890  0.116610  0.939720  -0.557774
    C   C113  0.155230  0.146020  0.925270  0.624223
    C   C114  0.145180  0.141570  0.886420  -0.067000
    C   C115  0.175650  0.170420  0.870070  -0.219027
    C   C116  0.126110  0.133390  0.810290  -0.470204
    C   C117  0.094770  0.103980  0.824730  0.555183
    C   C118  0.104820  0.108430  0.863580  -0.047096
    C   C119  0.083610  0.083610  0.916390  0.193730
    C   C120  0.166390  0.166390  0.833610  0.200476
    H   H39   0.043340  0.054180  0.862060  0.181737
    H   H40   0.130430  0.119040  0.969200  0.141340
    H   H41   0.206660  0.195820  0.887940  0.171972
    H   H42   0.119580  0.130970  0.780800  0.125210
    C   C121  0.823480  0.529570  0.176520  0.319163
    C   C122  0.926530  0.220430  0.073480  0.267866
    C   C123  0.889810  0.498640  0.166210  -0.055696
    C   C124  0.910840  0.437110  0.145700  -0.175745
    C   C125  0.860200  0.251360  0.083790  -0.044761
    C   C126  0.839170  0.312890  0.104300  -0.178082
    C   C127  0.972230  0.251360  0.083790  -0.172828
    C   C128  0.952240  0.312890  0.104300  -0.233936
    C   C129  0.777770  0.498640  0.166210  -0.214043
    C   C130  0.797760  0.437110  0.145700  -0.215534
    C   C131  0.864670  0.406000  0.135330  0.108796
    C   C132  0.885330  0.344000  0.114670  0.121848
    H   H43   0.956760  0.416310  0.138770  0.143154
    H   H44   0.793250  0.333690  0.111230  0.146832
    H   H45   0.018080  0.230310  0.076770  0.143383
    H   H46   0.984300  0.333690  0.111230  0.167751
    H   H47   0.731920  0.519690  0.173230  0.166128
    H   H48   0.765700  0.416310  0.138770  0.167326
    C   C133  0.294240  0.859690  0.099820  -0.267393
    C   C134  0.272620  0.967880  0.088450  -0.513028
    C   C135  0.340340  0.960910  0.110380  0.564665
    C   C136  0.386340  0.900410  0.127570  -0.013129
    C   C137  0.455760  0.890310  0.150180  -0.284575
    C   C138  0.477380  0.782120  0.161550  -0.562384
    C   C139  0.409670  0.789090  0.139620  0.617325
    C   C140  0.363660  0.849590  0.122430  -0.047277
    C   C141  0.250830  0.916390  0.083610  0.186337
    C   C142  0.499170  0.833610  0.166390  0.220054
    H   H49   0.277360  0.820170  0.096050  0.165163
    H   H50   0.236150  0.013320  0.074910  0.120851
    H   H51   0.472650  0.929830  0.153950  0.184174
    H   H52   0.513870  0.736680  0.175090  0.146730
    C   C143  0.857080  0.943270  0.097210  -0.251469
    C   C144  0.971520  0.851590  0.092090  -0.531698
    C   C145  0.965520  0.813730  0.114980  0.640095
    C   C146  0.902220  0.842630  0.129380  -0.074766
    C   C147  0.892920  0.806730  0.152790  -0.269678
    C   C148  0.778490  0.898410  0.157910  -0.499705
    C   C149  0.784490  0.936270  0.135020  0.604710
    C   C150  0.847780  0.907370  0.120620  -0.079061
    C   C151  0.916390  0.916390  0.083610  0.255688
    C   C152  0.833610  0.833610  0.166390  0.286532
    H   H53   0.814760  0.993120  0.090640  0.194181
    H   H54   0.019020  0.831150  0.080610  0.139821
    H   H55   0.935240  0.756880  0.159360  0.190632
    H   H56   0.730990  0.918840  0.169390  0.149739
    O   O53   0.590080  0.646010  0.575900  -0.351896
    O   O54   0.569270  0.758030  0.558790  -0.401640
    N   N1    0.544430  0.718210  0.572740  0.288758
    O   O55   0.200750  0.063150  0.714940  -0.344047
    O   O56   0.139900  0.032800  0.650380  -0.440745
    N   N2    0.205570  0.031790  0.677270  0.220180
    O   O57   0.658880  0.271000  0.507090  -0.312718
    O   O58   0.622820  0.177940  0.505240  -0.447832
    N   N3    0.631320  0.223210  0.485850  0.270328
    O   O59   0.672790  0.979000  0.242910  -0.359099
    O   O60   0.545520  0.072060  0.244760  -0.412744
    N   N4    0.618680  0.026790  0.264150  0.261782
    O   O61   0.216260  0.353860  0.868050  -0.324107
    O   O62   0.296070  0.403170  0.913650  -0.438094
    N   N5    0.235850  0.409620  0.881320  0.297570
    O   O63   0.952070  0.896140  0.881950  -0.348108
    O   O64   0.035600  0.846830  0.836350  -0.399649
    N   N6    0.014150  0.840370  0.868680  0.270404
    O   O65   0.910200  0.603990  0.174110  -0.321431
    O   O66   0.018510  0.491970  0.191210  -0.395049
    N   N7    0.939900  0.531790  0.177260  0.337796
    O   O67   0.798970  0.186850  0.035060  -0.300247
    O   O68   0.772330  0.217200  0.099620  -0.391300
    N   N8    0.810100  0.218210  0.072740  0.334801
    O   O69   0.515490  0.254460  0.622940  -0.932835
    Li  Li1   0.596870  0.205190  0.610850  0.889882
    O   O70   0.234510  0.495540  0.627060  -0.950490
    Li  Li2   0.153130  0.544800  0.639150  0.887240
    O   O71   0.545810  0.561640  0.315760  -0.972268
    Li  Li3   0.495110  0.518870  0.297170  0.875842
    O   O72   0.704200  0.688350  0.434240  -0.949606
    Li  Li4   0.754900  0.731120  0.452820  0.876635
    O   O73   0.208300  0.561650  0.315760  -0.901631
    Li  Li5   0.283190  0.518870  0.297170  0.875297
    O   O74   0.041690  0.688360  0.434240  -0.914213
    Li  Li6   0.966800  0.731140  0.452820  0.873866
    O   O75   0.860920  0.507570  0.615030  -0.903392
    Li  Li7   0.820670  0.584990  0.598970  0.867831
    O   O76   0.889100  0.242430  0.634970  -0.885326
    Li  Li8   0.929350  0.165010  0.651030  0.858877
    O   O77   0.541700  0.188360  0.934240  -0.860812
    Li  Li9   0.466810  0.231130  0.952830  0.879640
    O   O78   0.708310  0.061650  0.815760  -0.858222
    Li  Li10  0.783200  0.018880  0.797180  0.872018
    O   O79   0.057840  0.073680  0.803730  -0.915233
    Li  Li11  0.035290  0.059060  0.756990  0.866667
    O   O80   0.192150  0.176330  0.946280  -0.970111
    Li  Li12  0.214700  0.190950  0.993010  0.881291
    O   O81   0.389090  0.742430  0.134970  -0.951008
    Li  Li13  0.429340  0.665010  0.151030  0.880908
    O   O82   0.360910  0.007570  0.115020  -0.924905
    Li  Li14  0.320660  0.084990  0.098960  0.868698
    O   O83   0.734510  0.995540  0.127060  -0.903604
    Li  Li15  0.653130  0.044800  0.139150  0.879657
    O   O84   0.015490  0.754460  0.122940  -0.941663
    Li  Li16  0.096870  0.705200  0.110840  0.886866
