# generated using pymatgen
data_AlH3C8N2O9
_symmetry_space_group_name_H-M   'P 1'
_cell_length_a   14.54540000
_cell_length_b   20.73260000
_cell_length_c   6.60720000
_cell_angle_alpha   90.00000000
_cell_angle_beta   90.00000000
_cell_angle_gamma   45.44700000
_symmetry_Int_Tables_number   1
_chemical_formula_structural   AlH3C8N2O9
_chemical_formula_sum   'Al4 H12 C32 N8 O36'
_cell_volume   1419.85435283
_cell_formula_units_Z   4
loop_
 _symmetry_equiv_pos_site_id
 _symmetry_equiv_pos_as_xyz
  1  'x, y, z'
loop_
 _atom_site_type_symbol
 _atom_site_label
 _atom_site_symmetry_multiplicity
 _atom_site_fract_x
 _atom_site_fract_y
 _atom_site_fract_z
 _atom_site_occupancy
  Al  Al1  1  0.50000000  0.50000000  0.00000000  1
  Al  Al2  1  0.50000000  0.50000000  0.50000000  1
  Al  Al3  1  0.50000000  0.00000000  0.00000000  1
  Al  Al4  1  0.50000000  0.00000000  0.50000000  1
  H  H1  1  0.60645000  0.50000000  0.75000000  1
  H  H2  1  0.39355000  0.50000000  0.25000000  1
  H  H3  1  0.39355000  0.00000000  0.75000000  1
  H  H4  1  0.60645000  0.00000000  0.25000000  1
  H  H5  1  0.49927000  0.80705000  0.55737000  1
  H  H6  1  0.50073000  0.69295000  0.94264000  1
  H  H7  1  0.50073000  0.19295000  0.05737000  1
  H  H8  1  0.49927000  0.30705000  0.44263000  1
  H  H9  1  0.88662000  0.80705000  0.44263000  1
  H  H10  1  0.11338000  0.69295000  0.05737000  1
  H  H11  1  0.11338000  0.19295000  0.55737000  1
  H  H12  1  0.88662000  0.30705000  0.94264000  1
  C  C1  1  0.72586000  0.38795000  0.25000000  1
  C  C2  1  0.50176000  0.61205000  0.25000000  1
  C  C3  1  0.27414000  0.61205000  0.75000000  1
  C  C4  1  0.49824000  0.38795000  0.75000000  1
  C  C5  1  0.27414000  0.11205000  0.25000000  1
  C  C6  1  0.49824000  0.88795000  0.25000000  1
  C  C7  1  0.72586000  0.88795000  0.75000000  1
  C  C8  1  0.50176000  0.11205000  0.75000000  1
  C  C9  1  0.50087000  0.68202000  0.25000000  1
  C  C10  1  0.49913000  0.81798000  0.25000000  1
  C  C11  1  0.50043000  0.71624000  0.43153000  1
  C  C12  1  0.49957000  0.78376000  0.06847000  1
  C  C13  1  0.49957000  0.78376000  0.43153000  1
  C  C14  1  0.50043000  0.71624000  0.06847000  1
  C  C15  1  0.49913000  0.31798000  0.75000000  1
  C  C16  1  0.50087000  0.18202000  0.75000000  1
  C  C17  1  0.49957000  0.28376000  0.93153000  1
  C  C18  1  0.50043000  0.21624000  0.56847000  1
  C  C19  1  0.50043000  0.21624000  0.93153000  1
  C  C20  1  0.49957000  0.28376000  0.56847000  1
  C  C21  1  0.13510000  0.68202000  0.75000000  1
  C  C22  1  0.86490000  0.81798000  0.75000000  1
  C  C23  1  0.06708000  0.71624000  0.56847000  1
  C  C24  1  0.93291000  0.78376000  0.93153000  1
  C  C25  1  0.93291000  0.78376000  0.56847000  1
  C  C26  1  0.06708000  0.71624000  0.93153000  1
  C  C27  1  0.86490000  0.31798000  0.25000000  1
  C  C28  1  0.13510000  0.18202000  0.25000000  1
  C  C29  1  0.93291000  0.28376000  0.43153000  1
  C  C30  1  0.06708000  0.21624000  0.06847000  1
  C  C31  1  0.06708000  0.21624000  0.43153000  1
  C  C32  1  0.93291000  0.28376000  0.06847000  1
  N  N1  1  0.50090000  0.67956000  0.62969000  1
  N  N2  1  0.49910000  0.82044000  0.87031000  1
  N  N3  1  0.49910000  0.32044000  0.12969000  1
  N  N4  1  0.50090000  0.17956000  0.37031000  1
  N  N5  1  0.13998000  0.67956000  0.37031000  1
  N  N6  1  0.86002000  0.82044000  0.12969000  1
  N  N7  1  0.86002000  0.32044000  0.62969000  1
  N  N8  1  0.13998000  0.17956000  0.87031000  1
  O  O1  1  0.66702000  0.41756000  0.07629000  1
  O  O2  1  0.50214000  0.58244000  0.42371000  1
  O  O3  1  0.33298000  0.58244000  0.57629000  1
  O  O4  1  0.49786000  0.41756000  0.92371000  1
  O  O5  1  0.33298000  0.58244000  0.92371000  1
  O  O6  1  0.49786000  0.41756000  0.57629000  1
  O  O7  1  0.66702000  0.41756000  0.42371000  1
  O  O8  1  0.50214000  0.58244000  0.07629000  1
  O  O9  1  0.54008000  0.50000000  0.75000000  1
  O  O10  1  0.45992000  0.50000000  0.25000000  1
  O  O11  1  0.33298000  0.08244000  0.07629000  1
  O  O12  1  0.49786000  0.91756000  0.42371000  1
  O  O13  1  0.66702000  0.91756000  0.57629000  1
  O  O14  1  0.50214000  0.08244000  0.92371000  1
  O  O15  1  0.66702000  0.91756000  0.92371000  1
  O  O16  1  0.50214000  0.08244000  0.57629000  1
  O  O17  1  0.33298000  0.08244000  0.42371000  1
  O  O18  1  0.49786000  0.91756000  0.07629000  1
  O  O19  1  0.45992000  0.00000000  0.75000000  1
  O  O20  1  0.54008000  0.00000000  0.25000000  1
  O  O21  1  0.41728000  0.66352000  0.65554000  1
  O  O22  1  0.58498000  0.65979000  0.79730000  1
  O  O23  1  0.41401000  0.91897000  0.84447000  1
  O  O24  1  0.58373000  0.75772000  0.70270000  1
  O  O25  1  0.58272000  0.33648000  0.15554000  1
  O  O26  1  0.41502000  0.34021000  0.29730000  1
  O  O27  1  0.58598000  0.08103000  0.34446000  1
  O  O28  1  0.41627000  0.24228000  0.20270000  1
  O  O29  1  0.25568000  0.66352000  0.34446000  1
  O  O30  1  0.09545000  0.65979000  0.20270000  1
  O  O31  1  0.74804000  0.91897000  0.15554000  1
  O  O32  1  0.90083000  0.75772000  0.29730000  1
  O  O33  1  0.74804000  0.41897000  0.65554000  1
  O  O34  1  0.90083000  0.25772000  0.79730000  1
  O  O35  1  0.25568000  0.16352000  0.84447000  1
  O  O36  1  0.09545000  0.15979000  0.70270000  1
