# generated using pymatgen
data_VH2C8(SO3)2
_symmetry_space_group_name_H-M   'P 1'
_cell_length_a   29.64450000
_cell_length_b   12.88260000
_cell_length_c   6.81800000
_cell_angle_alpha   106.06900000
_cell_angle_beta   110.50300000
_cell_angle_gamma   59.70570000
_symmetry_Int_Tables_number   1
_chemical_formula_structural   VH2C8(SO3)2
_chemical_formula_sum   'V4 H8 C32 S8 O24'
_cell_volume   2089.61269336
_cell_formula_units_Z   4
loop_
 _symmetry_equiv_pos_site_id
 _symmetry_equiv_pos_as_xyz
  1  'x, y, z'
loop_
 _atom_site_type_symbol
 _atom_site_label
 _atom_site_symmetry_multiplicity
 _atom_site_fract_x
 _atom_site_fract_y
 _atom_site_fract_z
 _atom_site_occupancy
  V  V1  1  0.49632000  0.49630000  0.00829000  1
  V  V2  1  0.50490000  0.50491000  0.52587000  1
  V  V3  1  0.00493000  0.00490000  0.94443000  1
  V  V4  1  0.99634000  0.99631000  0.42685000  1
  H  H1  1  0.49701000  0.13535000  0.26242000  1
  H  H2  1  0.81941000  0.19040000  0.82981000  1
  H  H3  1  0.18187000  0.81079000  0.68331000  1
  H  H4  1  0.99629000  0.36735000  0.10842000  1
  H  H5  1  0.50681000  0.92277000  0.92354000  1
  H  H6  1  0.70962000  0.27856000  0.96742000  1
  H  H7  1  0.29166000  0.72261000  0.06311000  1
  H  H8  1  0.00712000  0.57610000  0.97538000  1
  C  C1  1  0.59952000  0.40039000  0.33607000  1
  C  C2  1  0.40176000  0.60077000  0.63969000  1
  C  C3  1  0.50134000  0.30211000  0.63515000  1
  C  C4  1  0.49988000  0.69909000  0.34055000  1
  C  C5  1  0.00128000  0.80215000  0.61207000  1
  C  C6  1  0.00000000  0.19894000  0.31761000  1
  C  C7  1  0.09952000  0.90023000  0.31297000  1
  C  C8  1  0.90176000  0.10098000  0.61677000  1
  C  C9  1  0.50248000  0.88876000  0.59180000  1
  C  C10  1  0.49874000  0.11245000  0.38390000  1
  C  C11  1  0.50017000  0.81930000  0.39928000  1
  C  C12  1  0.50105000  0.18190000  0.57642000  1
  C  C13  1  0.49923000  0.00086000  0.38579000  1
  C  C14  1  0.50199000  0.00035000  0.58991000  1
  C  C15  1  0.69391000  0.30261000  0.26609000  1
  C  C16  1  0.80737000  0.19876000  0.68675000  1
  C  C17  1  0.65977000  0.34070000  0.39203000  1
  C  C18  1  0.84151000  0.16066000  0.56081000  1
  C  C19  1  0.75120000  0.25288000  0.57852000  1
  C  C20  1  0.75008000  0.24849000  0.37432000  1
  C  C21  1  0.30737000  0.69856000  0.38448000  1
  C  C22  1  0.19391000  0.80243000  0.56818000  1
  C  C23  1  0.34151000  0.66047000  0.57456000  1
  C  C24  1  0.15977000  0.84053000  0.37810000  1
  C  C25  1  0.25008000  0.74830000  0.57443000  1
  C  C26  1  0.25120000  0.75269000  0.37824000  1
  C  C27  1  0.00296000  0.61169000  0.67763000  1
  C  C28  1  0.99814000  0.38959000  0.25196000  1
  C  C29  1  0.00099000  0.68194000  0.55335000  1
  C  C30  1  0.00011000  0.31934000  0.37623000  1
  C  C31  1  0.99917000  0.50090000  0.36273000  1
  C  C32  1  0.00192000  0.50039000  0.56686000  1
  S  S1  1  0.49724000  0.88475000  0.20238000  1
  S  S2  1  0.50398000  0.11646000  0.77332000  1
  S  S3  1  0.69354000  0.31341000  0.65090000  1
  S  S4  1  0.80774000  0.18795000  0.30194000  1
  S  S5  1  0.30773000  0.68776000  0.75912000  1
  S  S6  1  0.19354000  0.81323000  0.19354000  1
  S  S7  1  0.99774000  0.61764000  0.29307000  1
  S  S8  1  0.00335000  0.38364000  0.63652000  1
  O  O1  1  0.49749000  0.65101000  0.14867000  1
  O  O2  1  0.57425000  0.42088000  0.14522000  1
  O  O3  1  0.57838000  0.42586000  0.48382000  1
  O  O4  1  0.50368000  0.35025000  0.50080000  1
  O  O5  1  0.42284000  0.57535000  0.82513000  1
  O  O6  1  0.49913000  0.34654000  0.82165000  1
  O  O7  1  0.50204000  0.65471000  0.48726000  1
  O  O8  1  0.42696000  0.58033000  0.50429000  1
  O  O9  1  0.52376000  0.52379000  0.78960000  1
  O  O10  1  0.47746000  0.47742000  0.19484000  1
  O  O11  1  0.92699000  0.08051000  0.80760000  1
  O  O12  1  0.00367000  0.85029000  0.80398000  1
  O  O13  1  0.99911000  0.84659000  0.46538000  1
  O  O14  1  0.07428000  0.92079000  0.44838000  1
  O  O15  1  0.00216000  0.15461000  0.13110000  1
  O  O16  1  0.07841000  0.92575000  0.12754000  1
  O  O17  1  0.92287000  0.07553000  0.46898000  1
  O  O18  1  0.99761000  0.15092000  0.45196000  1
  O  O19  1  0.97747000  0.97748000  0.16312000  1
  O  O20  1  0.02381000  0.02373000  0.75788000  1
  O  O21  1  0.50529000  0.85159000  0.78893000  1
  O  O22  1  0.67437000  0.31616000  0.03394000  1
  O  O23  1  0.32691000  0.68500000  0.19766000  1
  O  O24  1  0.00595000  0.64778000  0.91054000  1
