# generated using pymatgen
data_CuH6C14N8ClO2
_symmetry_space_group_name_H-M   'P 1'
_cell_length_a   13.29130000
_cell_length_b   19.95810000
_cell_length_c   7.05280000
_cell_angle_alpha   79.82050000
_cell_angle_beta   105.38600000
_cell_angle_gamma   68.19760000
_symmetry_Int_Tables_number   1
_chemical_formula_structural   CuH6C14N8ClO2
_chemical_formula_sum   'Cu2 H12 C28 N16 Cl2 O4'
_cell_volume   1593.66056084
_cell_formula_units_Z   2
loop_
 _symmetry_equiv_pos_site_id
 _symmetry_equiv_pos_as_xyz
  1  'x, y, z'
loop_
 _atom_site_type_symbol
 _atom_site_label
 _atom_site_symmetry_multiplicity
 _atom_site_fract_x
 _atom_site_fract_y
 _atom_site_fract_z
 _atom_site_occupancy
  Cu  Cu1  1  0.50000000  0.50000000  0.00000000  1
  Cu  Cu2  1  0.50000000  0.50000000  0.50000000  1
  H  H1  1  0.49983000  0.10810000  0.14598000  1
  H  H2  1  0.49994000  0.10804000  0.74581000  1
  H  H3  1  0.50018000  0.89191000  0.25422000  1
  H  H4  1  0.50016000  0.89191000  0.85396000  1
  H  H5  1  0.11280000  0.59561000  0.74798000  1
  H  H6  1  0.75809000  0.59590000  0.57048000  1
  H  H7  1  0.96914000  0.41895000  0.32230000  1
  H  H8  1  0.14023000  0.41882000  0.40792000  1
  H  H9  1  0.49956000  0.29751000  0.01562000  1
  H  H10  1  0.49969000  0.29745000  0.68656000  1
  H  H11  1  0.50041000  0.70252000  0.31350000  1
  H  H12  1  0.50039000  0.70252000  0.98434000  1
  C  C1  1  0.78423000  0.50017000  0.39203000  1
  C  C2  1  0.49959000  0.31462000  0.34251000  1
  C  C3  1  0.21577000  0.49983000  0.60797000  1
  C  C4  1  0.50041000  0.68538000  0.65749000  1
  C  C5  1  0.49970000  0.24245000  0.37863000  1
  C  C6  1  0.49972000  0.20496000  0.22534000  1
  C  C7  1  0.49982000  0.13325000  0.26072000  1
  C  C8  1  0.49990000  0.09690000  0.45149000  1
  C  C9  1  0.49988000  0.13322000  0.60588000  1
  C  C10  1  0.49978000  0.20493000  0.56947000  1
  C  C11  1  0.49999000  0.03044000  0.48474000  1
  C  C12  1  0.50007000  0.96955000  0.51521000  1
  C  C13  1  0.50015000  0.90309000  0.54849000  1
  C  C14  1  0.50020000  0.86675000  0.39414000  1
  C  C15  1  0.50029000  0.79504000  0.43055000  1
  C  C16  1  0.50033000  0.75754000  0.62137000  1
  C  C17  1  0.50028000  0.79504000  0.77463000  1
  C  C18  1  0.50020000  0.86675000  0.73924000  1
  C  C19  1  0.10184000  0.49992000  0.55096000  1
  C  C20  1  0.01530000  0.54906000  0.60586000  1
  C  C21  1  0.08149000  0.45087000  0.44258000  1
  C  C22  1  0.03943000  0.59697000  0.71386000  1
  C  C23  1  0.95574000  0.64667000  0.77132000  1
  C  C24  1  0.89817000  0.50008000  0.44904000  1
  C  C25  1  0.98470000  0.45094000  0.39414000  1
  C  C26  1  0.91851000  0.54913000  0.55742000  1
  C  C27  1  0.82971000  0.59713000  0.60891000  1
  C  C28  1  0.84644000  0.64676000  0.71663000  1
  N  N1  1  0.63063000  0.49934000  0.22184000  1
  N  N2  1  0.72659000  0.50022000  0.20608000  1
  N  N3  1  0.50095000  0.41480000  0.38688000  1
  N  N4  1  0.49955000  0.35222000  0.48078000  1
  N  N5  1  0.36937000  0.50066000  0.59056000  1
  N  N6  1  0.27341000  0.49978000  0.47972000  1
  N  N7  1  0.49905000  0.58520000  0.80072000  1
  N  N8  1  0.50045000  0.64778000  0.83342000  1
  N  N9  1  0.36938000  0.50066000  0.77816000  1
  N  N10  1  0.27341000  0.49978000  0.79392000  1
  N  N11  1  0.49905000  0.58520000  0.61312000  1
  N  N12  1  0.50045000  0.64778000  0.51922000  1
  N  N13  1  0.63062000  0.49934000  0.40944000  1
  N  N14  1  0.72659000  0.50022000  0.52028000  1
  N  N15  1  0.50095000  0.41480000  0.19928000  1
  N  N16  1  0.49955000  0.35222000  0.16658000  1
  Cl  Cl1  1  0.98648000  0.70692000  0.90733000  1
  Cl  Cl2  1  0.73439000  0.70712000  0.78118000  1
  O  O1  1  0.49963000  0.24169000  0.01881000  1
  O  O2  1  0.49977000  0.24162000  0.73925000  1
  O  O3  1  0.50034000  0.75834000  0.26080000  1
  O  O4  1  0.50033000  0.75833000  0.98114000  1
