# generated using pymatgen
data_Cu2H24C46N2O15
_symmetry_space_group_name_H-M   'P 1'
_cell_length_a   32.26930000
_cell_length_b   17.37220000
_cell_length_c   15.85000000
_cell_angle_alpha   89.99440000
_cell_angle_beta   89.99270000
_cell_angle_gamma   89.86950000
_symmetry_Int_Tables_number   1
_chemical_formula_structural   Cu2H24C46N2O15
_chemical_formula_sum   'Cu4 H48 C92 N4 O30'
_cell_volume   8885.30826378
_cell_formula_units_Z   2
loop_
 _symmetry_equiv_pos_site_id
 _symmetry_equiv_pos_as_xyz
  1  'x, y, z'
loop_
 _atom_site_type_symbol
 _atom_site_label
 _atom_site_symmetry_multiplicity
 _atom_site_fract_x
 _atom_site_fract_y
 _atom_site_fract_z
 _atom_site_occupancy
  Cu  Cu1  1  0.50001000  0.50000000  0.41971000  1
  Cu  Cu2  1  0.50000000  0.49999000  0.58029000  1
  Cu  Cu3  1  0.96165000  0.49938000  0.58031000  1
  Cu  Cu4  1  0.96165000  0.49993000  0.41973000  1
  H  H1  1  0.45368000  0.58615000  0.28476000  1
  H  H2  1  0.45363000  0.58623000  0.13391000  1
  H  H3  1  0.54633000  0.41385000  0.28474000  1
  H  H4  1  0.45365000  0.58611000  0.71525000  1
  H  H5  1  0.54633000  0.41387000  0.71525000  1
  H  H6  1  0.54638000  0.41379000  0.86610000  1
  H  H7  1  0.49995000  0.25981000  0.36670000  1
  H  H8  1  0.49992000  0.12219000  0.36656000  1
  H  H9  1  0.50012000  0.25977000  0.63331000  1
  H  H10  1  0.49985000  0.74021000  0.36668000  1
  H  H11  1  0.50007000  0.74019000  0.63329000  1
  H  H12  1  0.50008000  0.87782000  0.63342000  1
  H  H13  1  0.62832000  0.49958000  0.62700000  1
  H  H14  1  0.69554000  0.49941000  0.69664000  1
  H  H15  1  0.62834000  0.50001000  0.37300000  1
  H  H16  1  0.83333000  0.49986000  0.37302000  1
  H  H17  1  0.76611000  0.50003000  0.30338000  1
  H  H18  1  0.83331000  0.49943000  0.62702000  1
  H  H19  1  0.09095000  0.49962000  0.63332000  1
  H  H20  1  0.16505000  0.49972000  0.63345000  1
  H  H21  1  0.09098000  0.49992000  0.36671000  1
  H  H22  1  0.37068000  0.50000000  0.63332000  1
  H  H23  1  0.37069000  0.50021000  0.36671000  1
  H  H24  1  0.29660000  0.50013000  0.36659000  1
  H  H25  1  0.00779000  0.58844000  0.71560000  1
  H  H26  1  0.00785000  0.58800000  0.86645000  1
  H  H27  1  0.91549000  0.41627000  0.71495000  1
  H  H28  1  0.00783000  0.58644000  0.28511000  1
  H  H29  1  0.91549000  0.41433000  0.28443000  1
  H  H30  1  0.91545000  0.41477000  0.13358000  1
  H  H31  1  0.96017000  0.25901000  0.63629000  1
  H  H32  1  0.96047000  0.12138000  0.63589000  1
  H  H33  1  0.96000000  0.25989000  0.36968000  1
  H  H34  1  0.96131000  0.73940000  0.63428000  1
  H  H35  1  0.96110000  0.74030000  0.36767000  1
  H  H36  1  0.96081000  0.87793000  0.36808000  1
  H  H37  1  0.55173000  0.40379000  0.05004000  1
  H  H38  1  0.44824000  0.59616000  0.94995000  1
  H  H39  1  0.50009000  0.04564000  0.64885000  1
  H  H40  1  0.49986000  0.95434000  0.35112000  1
  H  H41  1  0.20625000  0.50008000  0.35116000  1
  H  H42  1  0.25541000  0.49986000  0.64889000  1
  H  H43  1  0.91012000  0.40541000  0.94961000  1
  H  H44  1  0.01322000  0.59729000  0.05045000  1
  H  H45  1  0.96046000  0.04580000  0.35330000  1
  H  H46  1  0.96087000  0.95348000  0.65068000  1
  H  H47  1  0.82186000  0.45354000  0.67713000  1
  H  H48  1  0.63989000  0.45429000  0.32271000  1
  C  C1  1  0.57772000  0.49983000  0.50000000  1
  C  C2  1  0.42228000  0.50016000  0.50001000  1
  C  C3  1  0.49995000  0.64436000  0.49999000  1
  C  C4  1  0.50005000  0.35563000  0.50001000  1
  C  C5  1  0.88393000  0.49961000  0.50002000  1
  C  C6  1  0.03937000  0.49970000  0.50001000  1
  C  C7  1  0.96141000  0.64402000  0.50059000  1
  C  C8  1  0.96189000  0.35528000  0.49944000  1
  C  C9  1  0.47340000  0.54947000  0.25392000  1
  C  C10  1  0.47332000  0.54962000  0.16508000  1
  C  C11  1  0.50000000  0.50000000  0.12006000  1
  C  C12  1  0.52668000  0.45038000  0.16507000  1
  C  C13  1  0.52661000  0.45052000  0.25391000  1
  C  C14  1  0.49999000  0.50000000  0.03772000  1
  C  C15  1  0.49999000  0.50000000  0.96228000  1
  C  C16  1  0.49999000  0.49999000  0.87995000  1
  C  C17  1  0.47330000  0.54959000  0.83493000  1
  C  C18  1  0.47338000  0.54945000  0.74608000  1
  C  C19  1  0.52660000  0.45053000  0.74608000  1
  C  C20  1  0.52668000  0.45039000  0.83493000  1
  C  C21  1  0.50003000  0.27406000  0.50001000  1
  C  C22  1  0.49998000  0.23168000  0.42345000  1
  C  C23  1  0.49997000  0.15062000  0.42322000  1
  C  C24  1  0.50001000  0.10953000  0.49999000  1
  C  C25  1  0.50006000  0.15059000  0.57678000  1
  C  C26  1  0.50007000  0.23165000  0.57656000  1
  C  C27  1  0.50000000  0.03441000  0.49999000  1
  C  C28  1  0.49999000  0.96558000  0.49998000  1
  C  C29  1  0.49998000  0.89046000  0.49998000  1
  C  C30  1  0.49991000  0.84939000  0.42320000  1
  C  C31  1  0.49990000  0.76833000  0.42343000  1
  C  C32  1  0.49996000  0.72593000  0.49999000  1
  C  C33  1  0.50002000  0.76832000  0.57654000  1
  C  C34  1  0.50003000  0.84938000  0.57677000  1
  C  C35  1  0.64186000  0.49966000  0.57516000  1
  C  C36  1  0.68522000  0.49963000  0.57148000  1
  C  C37  1  0.70919000  0.49949000  0.64480000  1
  C  C38  1  0.64187000  0.49991000  0.42484000  1
  C  C39  1  0.68523000  0.49988000  0.42853000  1
  C  C40  1  0.70921000  0.49999000  0.35521000  1
  C  C41  1  0.81980000  0.49978000  0.42486000  1
  C  C42  1  0.77643000  0.49981000  0.42854000  1
  C  C43  1  0.75247000  0.49995000  0.35522000  1
  C  C44  1  0.81978000  0.49952000  0.57517000  1
  C  C45  1  0.77642000  0.49956000  0.57149000  1
  C  C46  1  0.75244000  0.49946000  0.64480000  1
  C  C47  1  0.61917000  0.49980000  0.50000000  1
  C  C48  1  0.71037000  0.49974000  0.50001000  1
  C  C49  1  0.84248000  0.49964000  0.50002000  1
  C  C50  1  0.75128000  0.49970000  0.50001000  1
  C  C51  1  0.08329000  0.49976000  0.50001000  1
  C  C52  1  0.10610000  0.49971000  0.57657000  1
  C  C53  1  0.14974000  0.49976000  0.57680000  1
  C  C54  1  0.17186000  0.49987000  0.50002000  1
  C  C55  1  0.14975000  0.49993000  0.42324000  1
  C  C56  1  0.10611000  0.49987000  0.42346000  1
  C  C57  1  0.21230000  0.49992000  0.50002000  1
  C  C58  1  0.24935000  0.49997000  0.50003000  1
  C  C59  1  0.28980000  0.50002000  0.50002000  1
  C  C60  1  0.31190000  0.49998000  0.57680000  1
  C  C61  1  0.35554000  0.50003000  0.57657000  1
  C  C62  1  0.37837000  0.50011000  0.50001000  1
  C  C63  1  0.35555000  0.50015000  0.42346000  1
  C  C64  1  0.31191000  0.50010000  0.42324000  1
  C  C65  1  0.98815000  0.55168000  0.74629000  1
  C  C66  1  0.98823000  0.55152000  0.83514000  1
  C  C67  1  0.96165000  0.50178000  0.87997000  1
  C  C68  1  0.93507000  0.45236000  0.83476000  1
  C  C69  1  0.93514000  0.45281000  0.74592000  1
  C  C70  1  0.96166000  0.50150000  0.96230000  1
  C  C71  1  0.96166000  0.50125000  0.03774000  1
  C  C72  1  0.96166000  0.50096000  0.12008000  1
  C  C73  1  0.98825000  0.55036000  0.16529000  1
  C  C74  1  0.98817000  0.54991000  0.25413000  1
  C  C75  1  0.93515000  0.45107000  0.25374000  1
  C  C76  1  0.93507000  0.45124000  0.16490000  1
  C  C77  1  0.96005000  0.27371000  0.50304000  1
  C  C78  1  0.96019000  0.23107000  0.57943000  1
  C  C79  1  0.96037000  0.15001000  0.57935000  1
  C  C80  1  0.96041000  0.10919000  0.50241000  1
  C  C81  1  0.96027000  0.15051000  0.42579000  1
  C  C82  1  0.96010000  0.23157000  0.42633000  1
  C  C83  1  0.96057000  0.03407000  0.50212000  1
  C  C84  1  0.96072000  0.96524000  0.50186000  1
  C  C85  1  0.96088000  0.89012000  0.50156000  1
  C  C86  1  0.96103000  0.84878000  0.57818000  1
  C  C87  1  0.96121000  0.76772000  0.57764000  1
  C  C88  1  0.96123000  0.72559000  0.50092000  1
  C  C89  1  0.96108000  0.76824000  0.42453000  1
  C  C90  1  0.96091000  0.84930000  0.42462000  1
  C  C91  1  0.77465000  0.49929000  0.72924000  1
  C  C92  1  0.68700000  0.50015000  0.27077000  1
  N  N1  1  0.50001000  0.50000000  0.30038000  1
  N  N2  1  0.49999000  0.49999000  0.69962000  1
  N  N3  1  0.96164000  0.50241000  0.69964000  1
  N  N4  1  0.96166000  0.50033000  0.30040000  1
  O  O1  1  0.55389000  0.49998000  0.42512000  1
  O  O2  1  0.44601000  0.50024000  0.42513000  1
  O  O3  1  0.49989000  0.60030000  0.42512000  1
  O  O4  1  0.50001000  0.39992000  0.42513000  1
  O  O5  1  0.50010000  0.39969000  0.57488000  1
  O  O6  1  0.50001000  0.60007000  0.57487000  1
  O  O7  1  0.44607000  0.50012000  0.57488000  1
  O  O8  1  0.55399000  0.49972000  0.57487000  1
  O  O9  1  0.90777000  0.49946000  0.57490000  1
  O  O10  1  0.01564000  0.49956000  0.57489000  1
  O  O11  1  0.96156000  0.59970000  0.57529000  1
  O  O12  1  0.96185000  0.39932000  0.57449000  1
  O  O13  1  0.96176000  0.39961000  0.42474000  1
  O  O14  1  0.96144000  0.59999000  0.42554000  1
  O  O15  1  0.01558000  0.49995000  0.42514000  1
  O  O16  1  0.90766000  0.49972000  0.42515000  1
  O  O17  1  0.55568000  0.39643000  0.11913000  1
  O  O18  1  0.44428000  0.60352000  0.88085000  1
  O  O19  1  0.50011000  0.10868000  0.66024000  1
  O  O20  1  0.49985000  0.89130000  0.33974000  1
  O  O21  1  0.17232000  0.50005000  0.33977000  1
  O  O22  1  0.28934000  0.49989000  0.66027000  1
  O  O23  1  0.90617000  0.39830000  0.88048000  1
  O  O24  1  0.01716000  0.60440000  0.11957000  1
  O  O25  1  0.96031000  0.10888000  0.34216000  1
  O  O26  1  0.96101000  0.89040000  0.66181000  1
  O  O27  1  0.81146000  0.46563000  0.73607000  1
  O  O28  1  0.75800000  0.52856000  0.79141000  1
  O  O29  1  0.65026000  0.46656000  0.26382000  1
  O  O30  1  0.70360000  0.52960000  0.20873000  1
