# generated using pymatgen
data_ZnH5C12SClO5
_symmetry_space_group_name_H-M   'P 1'
_cell_length_a   12.70140000
_cell_length_b   37.56710000
_cell_length_c   10.00000000
_cell_angle_alpha   90.00000000
_cell_angle_beta   90.00000000
_cell_angle_gamma   109.56800000
_symmetry_Int_Tables_number   1
_chemical_formula_structural   ZnH5C12SClO5
_chemical_formula_sum   'Zn4 H20 C48 S4 Cl4 O20'
_cell_volume   4495.96527052
_cell_formula_units_Z   4
loop_
 _symmetry_equiv_pos_site_id
 _symmetry_equiv_pos_as_xyz
  1  'x, y, z'
loop_
 _atom_site_type_symbol
 _atom_site_label
 _atom_site_symmetry_multiplicity
 _atom_site_fract_x
 _atom_site_fract_y
 _atom_site_fract_z
 _atom_site_occupancy
  Zn  Zn1  1  0.50004000  0.50011000  0.66577000  1
  Zn  Zn2  1  0.49999000  0.49989000  0.33423000  1
  Zn  Zn3  1  0.99674000  0.99991000  0.24343000  1
  Zn  Zn4  1  0.99713000  0.00013000  0.57496000  1
  H  H1  1  0.87657000  0.87866000  0.62485000  1
  H  H2  1  0.80848000  0.81014000  0.62607000  1
  H  H3  1  0.80793000  0.80959000  0.19347000  1
  H  H4  1  0.68950000  0.69042000  0.71579000  1
  H  H5  1  0.68896000  0.68988000  0.28317000  1
  H  H6  1  0.62087000  0.62136000  0.28438000  1
  H  H7  1  0.74864000  0.74993000  0.30207000  1
  H  H8  1  0.74880000  0.75009000  0.60719000  1
  H  H9  1  0.11743000  0.12132000  0.62443000  1
  H  H10  1  0.18674000  0.18984000  0.62586000  1
  H  H11  1  0.18803000  0.19049000  0.19326000  1
  H  H12  1  0.30772000  0.30954000  0.71595000  1
  H  H13  1  0.30900000  0.31018000  0.28333000  1
  H  H14  1  0.37831000  0.37869000  0.28475000  1
  H  H15  1  0.24821000  0.25013000  0.30205000  1
  H  H16  1  0.24753000  0.24990000  0.60717000  1
  H  H17  1  0.92539000  0.50022000  0.81687000  1
  H  H18  1  0.07461000  0.49975000  0.18314000  1
  H  H19  1  0.42152000  0.99945000  0.09232000  1
  H  H20  1  0.57157000  0.99980000  0.72604000  1
  C  C1  1  0.29478000  0.50011000  0.49991000  1
  C  C2  1  0.57349000  0.57369000  0.49974000  1
  C  C3  1  0.70522000  0.49986000  0.50009000  1
  C  C4  1  0.42618000  0.42632000  0.50026000  1
  C  C5  1  0.79165000  0.00008000  0.40929000  1
  C  C6  1  0.92395000  0.92633000  0.40948000  1
  C  C7  1  0.20225000  0.99999000  0.40909000  1
  C  C8  1  0.06956000  0.07370000  0.40891000  1
  C  C9  1  0.88202000  0.88414000  0.40941000  1
  C  C10  1  0.86176000  0.86375000  0.53029000  1
  C  C11  1  0.82243000  0.82418000  0.53040000  1
  C  C12  1  0.80220000  0.80383000  0.40905000  1
  C  C13  1  0.82253000  0.82428000  0.28847000  1
  C  C14  1  0.86182000  0.86381000  0.28845000  1
  C  C15  1  0.76034000  0.76170000  0.40149000  1
  C  C16  1  0.73710000  0.73832000  0.50778000  1
  C  C17  1  0.67491000  0.67574000  0.62078000  1
  C  C18  1  0.69523000  0.69619000  0.50020000  1
  C  C19  1  0.67501000  0.67584000  0.37885000  1
  C  C20  1  0.63569000  0.63627000  0.37894000  1
  C  C21  1  0.61542000  0.61588000  0.49982000  1
  C  C22  1  0.63562000  0.63620000  0.62078000  1
  C  C23  1  0.11224000  0.11589000  0.40898000  1
  C  C24  1  0.13267000  0.13625000  0.52992000  1
  C  C25  1  0.17271000  0.17583000  0.53015000  1
  C  C26  1  0.19350000  0.19620000  0.40886000  1
  C  C27  1  0.17301000  0.17578000  0.28822000  1
  C  C28  1  0.13301000  0.13625000  0.28808000  1
  C  C29  1  0.23613000  0.23833000  0.40143000  1
  C  C30  1  0.25961000  0.26169000  0.50779000  1
  C  C31  1  0.32273000  0.32424000  0.62098000  1
  C  C32  1  0.30224000  0.30382000  0.50035000  1
  C  C33  1  0.32303000  0.32419000  0.37905000  1
  C  C34  1  0.36307000  0.36376000  0.37927000  1
  C  C35  1  0.38350000  0.38413000  0.50021000  1
  C  C36  1  0.36273000  0.36377000  0.62111000  1
  C  C37  1  0.89115000  0.50003000  0.60611000  1
  C  C38  1  0.10885000  0.49994000  0.39390000  1
  C  C39  1  0.82275000  0.49991000  0.50006000  1
  C  C40  1  0.17725000  0.50006000  0.49995000  1
  C  C41  1  0.99993000  0.49993000  0.43165000  1
  C  C42  1  0.00007000  0.50004000  0.56835000  1
  C  C43  1  0.38769000  0.99967000  0.30308000  1
  C  C44  1  0.60539000  0.99958000  0.51528000  1
  C  C45  1  0.31959000  0.99984000  0.40913000  1
  C  C46  1  0.67350000  0.99941000  0.40922000  1
  C  C47  1  0.49659000  0.99968000  0.47752000  1
  C  C48  1  0.49650000  0.99957000  0.34083000  1
  S  S1  1  0.88602000  0.49981000  0.34696000  1
  S  S2  1  0.11399000  0.50016000  0.65304000  1
  S  S3  1  0.38301000  0.99990000  0.56222000  1
  S  S4  1  0.61008000  0.99935000  0.25613000  1
  Cl  Cl1  1  0.88589000  0.88804000  0.13476000  1
  Cl  Cl2  1  0.61154000  0.61197000  0.77447000  1
  Cl  Cl3  1  0.10876000  0.11206000  0.13432000  1
  Cl  Cl4  1  0.38698000  0.38797000  0.77487000  1
  O  O1  1  0.34843000  0.50034000  0.63579000  1
  O  O2  1  0.34823000  0.49998000  0.36398000  1
  O  O3  1  0.55430000  0.55438000  0.36380000  1
  O  O4  1  0.55451000  0.55458000  0.63562000  1
  O  O5  1  0.65167000  0.49973000  0.36421000  1
  O  O6  1  0.65173000  0.49995000  0.63602000  1
  O  O7  1  0.44552000  0.44562000  0.63620000  1
  O  O8  1  0.44571000  0.44542000  0.36438000  1
  O  O9  1  0.84479000  0.99980000  0.27341000  1
  O  O10  1  0.84533000  0.00017000  0.54522000  1
  O  O11  1  0.94314000  0.94564000  0.54541000  1
  O  O12  1  0.94293000  0.94543000  0.27359000  1
  O  O13  1  0.14901000  0.00017000  0.54498000  1
  O  O14  1  0.14862000  0.99994000  0.27318000  1
  O  O15  1  0.05052000  0.05440000  0.27298000  1
  O  O16  1  0.05112000  0.05460000  0.54480000  1
  O  O17  1  0.85549000  0.50013000  0.75011000  1
  O  O18  1  0.14451000  0.49984000  0.24990000  1
  O  O19  1  0.35185000  0.99959000  0.15908000  1
  O  O20  1  0.64124000  0.99966000  0.65928000  1
