# Generated by REPEAT Assigner based on pymatgen
data_DB1-Cu2O8N2-AZO_A-fum_A_No36
_audit_creation_date              2022-05-24
_audit_creation_method            REPEAT_Assigner
_cell_length_a                    15.606300
_cell_length_b                    17.276500
_cell_length_c                    8.757600
_cell_angle_alpha                 89.512600
_cell_angle_beta                  94.579000
_cell_angle_gamma                 95.773200
_cell_volume                      2341.768561
_symmetry_space_group_name_H-M    P1
_symmetry_Int_Tables_number       1
loop_
    _symmetry_equiv_pos_site_id
    _symmetry_equiv_pos_as_xyz
    1  x,y,z
loop_
    _atom_site_type_symbol
    _atom_site_label
    _atom_site_fract_x
    _atom_site_fract_y
    _atom_site_fract_z
    _atom_type_partial_charge
    Cu  Cu1  0.418540  0.496730  0.506490  0.902150
    Cu  Cu2  0.581460  0.503260  0.493530  0.746038
    O   O1   0.437940  0.497550  0.705030  -0.351820
    O   O2   0.410110  0.496580  0.306670  -0.515997
    O   O3   0.430320  0.598220  0.505180  -0.416135
    O   O4   0.417730  0.395900  0.506530  -0.429581
    O   O5   0.569670  0.401770  0.494790  -0.451288
    O   O6   0.582270  0.604090  0.493550  -0.433072
    O   O7   0.562050  0.502550  0.294820  -0.370603
    O   O8   0.589880  0.503380  0.693350  -0.370314
    C   C1   0.520050  0.500720  0.787020  0.353433
    C   C2   0.479950  0.499270  0.213000  0.478705
    C   C3   0.509080  0.645760  0.499170  0.412579
    C   C4   0.490920  0.354230  0.500860  0.468123
    N   N1   0.297480  0.491870  0.516130  -0.295395
    C   C5   0.247570  0.539580  0.421450  0.036066
    C   C6   0.157860  0.535850  0.428850  -0.113239
    C   C7   0.116220  0.484420  0.530920  0.355978
    C   C8   0.165460  0.436920  0.625210  -0.269667
    C   C9   0.255150  0.440450  0.618190  0.485654
    N   N2   0.024420  0.479270  0.541140  -0.134914
    N   N3   0.975580  0.520720  0.458880  -0.261744
    C   C10  0.834540  0.563070  0.374810  -0.251761
    C   C11  0.883780  0.515570  0.469100  0.388564
    C   C12  0.842140  0.464140  0.571170  -0.105893
    C   C13  0.752430  0.460410  0.578570  -0.004109
    N   N4   0.702520  0.508120  0.483890  -0.102768
    C   C14  0.744850  0.559540  0.381840  0.331294
    H   H1   0.278410  0.579610  0.341990  0.147621
    H   H2   0.120670  0.572890  0.355330  0.071169
    H   H3   0.866030  0.602860  0.295840  0.072625
    H   H4   0.879330  0.427100  0.644690  0.037917
    C   C15  0.485500  0.267480  0.501240  -0.143179
    C   C16  0.560450  0.228670  0.495480  -0.017109
    C   C17  0.555150  0.147200  0.495850  -0.259252
    C   C18  0.474930  0.102870  0.501980  0.568702
    C   C19  0.400300  0.141100  0.507710  -0.368716
    C   C20  0.405300  0.222530  0.507360  0.277583
    N   N5   0.467430  0.019330  0.502520  -0.213554
    N   N6   0.532570  0.980660  0.497510  -0.278533
    C   C21  0.599700  0.858890  0.492320  -0.371420
    C   C22  0.525070  0.897120  0.498050  0.490471
    C   C23  0.444850  0.852790  0.504170  -0.130322
    C   C24  0.439560  0.771320  0.504540  -0.028463
    C   C25  0.514500  0.732510  0.498790  -0.005739
    C   C26  0.594700  0.777460  0.492670  0.160431
    H   H5   0.622910  0.261760  0.490710  0.112969
    H   H6   0.613340  0.118480  0.491390  0.114596
    H   H7   0.661780  0.892530  0.487580  0.144868
    H   H8   0.386660  0.881510  0.508640  0.062185
    C   C27  0.466980  0.498740  0.044590  -0.082528
    C   C28  0.533020  0.501250  0.955430  0.059059
    Br  Br1  0.325610  0.368880  0.760240  0.053255
    Br  Br2  0.105010  0.360530  0.776830  -0.073565
    Br  Br3  0.674390  0.631100  0.239790  0.060139
    Br  Br4  0.693280  0.383620  0.730990  -0.015580
    Br  Br5  0.292880  0.276770  0.515990  -0.142512
    Br  Br6  0.281130  0.076530  0.516810  -0.022311
    Br  Br7  0.707120  0.723220  0.484040  -0.144223
    Br  Br8  0.319750  0.707860  0.513690  -0.072891
    C   C29  0.372840  0.495100  0.970890  0.274629
    H   H9   0.346460  0.539600  0.002300  -0.043344
    H   H10  0.373310  0.494980  0.861340  -0.178448
    H   H11  0.340530  0.448480  0.003430  -0.110489
    C   C30  0.627160  0.504890  0.029140  0.174251
    H   H12  0.659400  0.551630  0.996950  -0.104805
    H   H13  0.626680  0.504780  0.138690  -0.153016
    H   H14  0.653630  0.460510  0.997360  -0.002757
