# generated using pymatgen
data_Zn4H83C100S2N5O16
_symmetry_space_group_name_H-M   'P 1'
_cell_length_a   30.27430000
_cell_length_b   17.57240000
_cell_length_c   16.73770000
_cell_angle_alpha   90.04070000
_cell_angle_beta   89.87050000
_cell_angle_gamma   89.75850000
_symmetry_Int_Tables_number   1
_chemical_formula_structural   Zn4H83C100S2N5O16
_chemical_formula_sum   'Zn4 H83 C100 S2 N5 O16'
_cell_volume   8904.22018035
_cell_formula_units_Z   1
loop_
 _symmetry_equiv_pos_site_id
 _symmetry_equiv_pos_as_xyz
  1  'x, y, z'
loop_
 _atom_site_type_symbol
 _atom_site_label
 _atom_site_symmetry_multiplicity
 _atom_site_fract_x
 _atom_site_fract_y
 _atom_site_fract_z
 _atom_site_occupancy
  Zn  Zn1  1  0.50000000  0.50001000  0.59904000  1
  Zn  Zn2  1  0.50000000  0.50002000  0.40096000  1
  Zn  Zn3  1  0.91956000  0.49796000  0.40092000  1
  Zn  Zn4  1  0.91955000  0.49820000  0.59900000  1
  H  H1  1  0.54963000  0.41492000  0.12654000  1
  H  H2  1  0.45039000  0.58509000  0.12706000  1
  H  H3  1  0.54960000  0.41488000  0.87293000  1
  H  H4  1  0.45040000  0.58510000  0.87347000  1
  H  H5  1  0.50010000  0.12090000  0.62634000  1
  H  H6  1  0.49997000  0.12067000  0.37363000  1
  H  H7  1  0.49995000  0.87934000  0.62640000  1
  H  H8  1  0.49987000  0.87913000  0.37368000  1
  H  H9  1  0.76455000  0.49904000  0.61642000  1
  H  H10  1  0.13986000  0.49827000  0.37356000  1
  H  H11  1  0.13949000  0.49804000  0.62627000  1
  H  H12  1  0.28007000  0.49925000  0.37367000  1
  H  H13  1  0.27969000  0.49894000  0.62638000  1
  H  H14  1  0.87009000  0.41272000  0.87340000  1
  H  H15  1  0.96902000  0.58197000  0.87292000  1
  H  H16  1  0.87011000  0.41297000  0.12701000  1
  H  H17  1  0.96901000  0.58228000  0.12650000  1
  H  H18  1  0.91835000  0.11883000  0.37375000  1
  H  H19  1  0.91848000  0.11889000  0.62647000  1
  H  H20  1  0.91893000  0.87726000  0.37364000  1
  H  H21  1  0.91901000  0.87735000  0.62636000  1
  H  H22  1  0.59038000  0.40795000  0.26975000  1
  H  H23  1  0.55690000  0.40232000  0.34107000  1
  H  H24  1  0.55396000  0.34478000  0.26968000  1
  H  H25  1  0.40964000  0.59209000  0.27062000  1
  H  H26  1  0.44313000  0.59773000  0.34167000  1
  H  H27  1  0.44606000  0.65526000  0.27033000  1
  H  H28  1  0.55383000  0.34471000  0.72947000  1
  H  H29  1  0.55696000  0.40242000  0.65832000  1
  H  H30  1  0.59034000  0.40772000  0.72955000  1
  H  H31  1  0.44616000  0.65528000  0.73016000  1
  H  H32  1  0.44304000  0.59757000  0.65895000  1
  H  H33  1  0.40966000  0.59227000  0.73045000  1
  H  H34  1  0.52612000  0.25730000  0.68345000  1
  H  H35  1  0.50015000  0.32529000  0.64492000  1
  H  H36  1  0.47434000  0.25758000  0.68385000  1
  H  H37  1  0.47409000  0.25743000  0.31645000  1
  H  H38  1  0.50014000  0.32503000  0.35495000  1
  H  H39  1  0.52587000  0.25679000  0.31605000  1
  H  H40  1  0.47398000  0.74304000  0.68384000  1
  H  H41  1  0.49992000  0.67498000  0.64505000  1
  H  H42  1  0.52576000  0.74276000  0.68368000  1
  H  H43  1  0.52571000  0.74229000  0.31628000  1
  H  H44  1  0.49970000  0.67474000  0.35509000  1
  H  H45  1  0.47393000  0.74291000  0.31644000  1
  H  H46  1  0.06089000  0.45312000  0.31613000  1
  H  H47  1  0.02127000  0.49759000  0.35485000  1
  H  H48  1  0.06057000  0.54233000  0.31618000  1
  H  H49  1  0.05993000  0.54212000  0.68359000  1
  H  H50  1  0.02084000  0.49711000  0.64481000  1
  H  H51  1  0.06045000  0.45291000  0.68353000  1
  H  H52  1  0.35922000  0.54451000  0.31653000  1
  H  H53  1  0.39873000  0.49994000  0.35515000  1
  H  H54  1  0.35954000  0.45529000  0.31625000  1
  H  H55  1  0.35908000  0.45473000  0.68365000  1
  H  H56  1  0.39829000  0.49982000  0.64511000  1
  H  H57  1  0.35857000  0.54395000  0.68394000  1
  H  H58  1  0.82935000  0.40595000  0.73019000  1
  H  H59  1  0.86284000  0.39994000  0.65887000  1
  H  H60  1  0.86587000  0.34245000  0.73025000  1
  H  H61  1  0.00975000  0.58843000  0.72936000  1
  H  H62  1  0.97626000  0.59430000  0.65831000  1
  H  H63  1  0.97323000  0.65193000  0.72967000  1
  H  H64  1  0.86600000  0.34301000  0.27046000  1
  H  H65  1  0.86278000  0.40083000  0.34162000  1
  H  H66  1  0.82939000  0.40635000  0.27039000  1
  H  H67  1  0.97312000  0.65258000  0.26983000  1
  H  H68  1  0.97635000  0.59493000  0.34104000  1
  H  H69  1  0.00974000  0.58923000  0.26953000  1
  H  H70  1  0.89208000  0.25540000  0.31667000  1
  H  H71  1  0.91793000  0.32320000  0.35522000  1
  H  H72  1  0.94386000  0.25520000  0.31627000  1
  H  H73  1  0.94411000  0.25548000  0.68367000  1
  H  H74  1  0.91795000  0.32328000  0.64519000  1
  H  H75  1  0.89233000  0.25532000  0.68407000  1
  H  H76  1  0.94515000  0.74065000  0.31617000  1
  H  H77  1  0.91932000  0.67288000  0.35494000  1
  H  H78  1  0.89337000  0.74086000  0.31633000  1
  H  H79  1  0.89341000  0.74081000  0.68374000  1
  H  H80  1  0.91954000  0.67298000  0.64491000  1
  H  H81  1  0.94520000  0.74095000  0.68357000  1
  H  H82  1  0.66595000  0.53665000  0.30628000  1
  H  H83  1  0.62171000  0.46219000  0.33151000  1
  C  C1  1  0.50016000  0.35159000  0.49993000  1
  C  C2  1  0.58616000  0.49979000  0.49986000  1
  C  C3  1  0.49981000  0.64844000  0.50008000  1
  C  C4  1  0.41385000  0.49997000  0.50014000  1
  C  C5  1  0.91966000  0.34966000  0.50000000  1
  C  C6  1  0.83340000  0.49865000  0.50010000  1
  C  C7  1  0.91949000  0.64650000  0.49992000  1
  C  C8  1  0.00572000  0.49724000  0.49982000  1
  C  C9  1  0.52848000  0.45120000  0.24030000  1
  C  C10  1  0.52856000  0.45105000  0.15617000  1
  C  C11  1  0.50001000  0.50000000  0.11369000  1
  C  C12  1  0.47146000  0.54897000  0.15647000  1
  C  C13  1  0.47154000  0.54883000  0.24060000  1
  C  C14  1  0.50001000  0.50000000  0.03572000  1
  C  C15  1  0.50001000  0.49999000  0.96428000  1
  C  C16  1  0.50000000  0.49999000  0.88631000  1
  C  C17  1  0.52854000  0.45102000  0.84353000  1
  C  C18  1  0.52846000  0.45116000  0.75939000  1
  C  C19  1  0.47154000  0.54883000  0.75971000  1
  C  C20  1  0.47146000  0.54897000  0.84384000  1
  C  C21  1  0.50011000  0.27095000  0.49995000  1
  C  C22  1  0.50013000  0.22910000  0.57245000  1
  C  C23  1  0.50009000  0.14897000  0.57269000  1
  C  C24  1  0.50003000  0.10830000  0.49999000  1
  C  C25  1  0.50001000  0.14884000  0.42727000  1
  C  C26  1  0.50006000  0.22897000  0.42746000  1
  C  C27  1  0.49999000  0.03403000  0.50001000  1
  C  C28  1  0.49996000  0.96599000  0.50003000  1
  C  C29  1  0.49992000  0.89173000  0.50004000  1
  C  C30  1  0.49992000  0.85118000  0.57275000  1
  C  C31  1  0.49988000  0.77104000  0.57255000  1
  C  C32  1  0.49984000  0.72908000  0.50006000  1
  C  C33  1  0.49984000  0.77093000  0.42756000  1
  C  C34  1  0.49988000  0.85106000  0.42734000  1
  C  C35  1  0.66418000  0.49940000  0.43656000  1
  C  C36  1  0.75538000  0.49905000  0.56340000  1
  C  C37  1  0.63545000  0.49956000  0.49991000  1
  C  C38  1  0.78411000  0.49888000  0.50005000  1
  C  C39  1  0.70972000  0.49925000  0.54081000  1
  C  C40  1  0.70984000  0.49920000  0.45915000  1
  C  C41  1  0.05252000  0.49756000  0.49985000  1
  C  C42  1  0.07695000  0.49779000  0.42737000  1
  C  C43  1  0.12347000  0.49811000  0.42719000  1
  C  C44  1  0.14693000  0.49820000  0.49992000  1
  C  C45  1  0.12325000  0.49798000  0.57261000  1
  C  C46  1  0.07674000  0.49767000  0.57236000  1
  C  C47  1  0.19003000  0.49849000  0.49995000  1
  C  C48  1  0.22953000  0.49876000  0.49998000  1
  C  C49  1  0.27263000  0.49905000  0.50002000  1
  C  C50  1  0.29631000  0.49929000  0.42733000  1
  C  C51  1  0.34282000  0.49960000  0.42758000  1
  C  C52  1  0.36704000  0.49967000  0.50010000  1
  C  C53  1  0.34261000  0.49942000  0.57257000  1
  C  C54  1  0.29609000  0.49911000  0.57275000  1
  C  C55  1  0.89117000  0.44867000  0.75965000  1
  C  C56  1  0.89109000  0.44862000  0.84378000  1
  C  C57  1  0.91955000  0.49736000  0.88627000  1
  C  C58  1  0.94802000  0.54601000  0.84350000  1
  C  C59  1  0.94793000  0.54578000  0.75937000  1
  C  C60  1  0.91955000  0.49744000  0.96424000  1
  C  C61  1  0.91955000  0.49752000  0.03568000  1
  C  C62  1  0.91956000  0.49761000  0.11365000  1
  C  C63  1  0.89111000  0.44895000  0.15642000  1
  C  C64  1  0.89119000  0.44919000  0.24056000  1
  C  C65  1  0.94793000  0.54633000  0.24026000  1
  C  C66  1  0.94801000  0.54637000  0.15613000  1
  C  C67  1  0.91806000  0.26902000  0.50018000  1
  C  C68  1  0.91813000  0.22709000  0.42767000  1
  C  C69  1  0.91831000  0.14696000  0.42741000  1
  C  C70  1  0.91844000  0.10637000  0.50010000  1
  C  C71  1  0.91839000  0.14699000  0.57283000  1
  C  C72  1  0.91820000  0.22713000  0.57265000  1
  C  C73  1  0.91861000  0.03210000  0.50007000  1
  C  C74  1  0.91877000  0.96406000  0.50003000  1
  C  C75  1  0.91894000  0.88980000  0.50001000  1
  C  C76  1  0.91901000  0.84916000  0.42728000  1
  C  C77  1  0.91919000  0.76903000  0.42747000  1
  C  C78  1  0.91931000  0.72714000  0.49995000  1
  C  C79  1  0.91924000  0.76908000  0.57246000  1
  C  C80  1  0.91906000  0.84921000  0.57270000  1
  C  C81  1  0.56048000  0.39633000  0.28441000  1
  C  C82  1  0.43954000  0.60371000  0.28504000  1
  C  C83  1  0.56045000  0.39627000  0.71494000  1
  C  C84  1  0.43955000  0.60372000  0.71561000  1
  C  C85  1  0.50019000  0.27135000  0.65394000  1
  C  C86  1  0.50004000  0.27107000  0.34595000  1
  C  C87  1  0.49989000  0.72894000  0.65406000  1
  C  C88  1  0.49979000  0.72869000  0.34607000  1
  C  C89  1  0.05259000  0.49770000  0.34586000  1
  C  C90  1  0.05214000  0.49743000  0.65385000  1
  C  C91  1  0.36743000  0.49986000  0.34611000  1
  C  C92  1  0.36696000  0.49949000  0.65409000  1
  C  C93  1  0.85926000  0.39404000  0.71553000  1
  C  C94  1  0.97984000  0.60031000  0.71494000  1
  C  C95  1  0.85930000  0.39464000  0.28500000  1
  C  C96  1  0.97983000  0.60098000  0.28437000  1
  C  C97  1  0.91799000  0.26925000  0.34618000  1
  C  C98  1  0.91814000  0.26933000  0.65417000  1
  C  C99  1  0.91926000  0.72683000  0.34595000  1
  C  C100  1  0.91936000  0.72693000  0.65394000  1
  S  S1  1  0.66190000  0.49950000  0.59139000  1
  S  S2  1  0.75766000  0.49895000  0.40857000  1
  N  N1  1  0.50001000  0.50002000  0.28445000  1
  N  N2  1  0.50000000  0.50000000  0.71555000  1
  N  N3  1  0.91955000  0.49718000  0.71551000  1
  N  N4  1  0.91956000  0.49781000  0.28441000  1
  N  N5  1  0.64930000  0.49941000  0.35052000  1
  O  O1  1  0.50032000  0.39025000  0.58112000  1
  O  O2  1  0.50010000  0.39027000  0.41872000  1
  O  O3  1  0.56369000  0.49985000  0.41864000  1
  O  O4  1  0.56372000  0.49994000  0.58104000  1
  O  O5  1  0.49976000  0.60978000  0.41888000  1
  O  O6  1  0.49981000  0.60975000  0.58128000  1
  O  O7  1  0.43631000  0.50002000  0.58136000  1
  O  O8  1  0.43629000  0.50021000  0.41896000  1
  O  O9  1  0.91943000  0.38822000  0.41882000  1
  O  O10  1  0.91965000  0.38843000  0.58121000  1
  O  O11  1  0.85587000  0.49860000  0.58132000  1
  O  O12  1  0.85584000  0.49850000  0.41892000  1
  O  O13  1  0.91960000  0.60794000  0.58110000  1
  O  O14  1  0.91955000  0.60773000  0.41871000  1
  O  O15  1  0.98325000  0.49741000  0.41860000  1
  O  O16  1  0.98327000  0.49779000  0.58100000  1
