# generated using pymatgen
data_Zn4H8C24S4O21
_symmetry_space_group_name_H-M   'P 1'
_cell_length_a   19.48810000
_cell_length_b   20.71980000
_cell_length_c   33.01260000
_cell_angle_alpha   90.00000000
_cell_angle_beta   79.64810000
_cell_angle_gamma   57.88630000
_symmetry_Int_Tables_number   1
_chemical_formula_structural   Zn4H8C24S4O21
_chemical_formula_sum   'Zn16 H32 C96 S16 O84'
_cell_volume   11033.54608744
_cell_formula_units_Z   4
loop_
 _symmetry_equiv_pos_site_id
 _symmetry_equiv_pos_as_xyz
  1  'x, y, z'
loop_
 _atom_site_type_symbol
 _atom_site_label
 _atom_site_symmetry_multiplicity
 _atom_site_fract_x
 _atom_site_fract_y
 _atom_site_fract_z
 _atom_site_occupancy
  Zn  Zn1  1  0.54362000  0.40168000  0.52181000  1
  Zn  Zn2  1  0.53290000  0.48355000  0.43993000  1
  Zn  Zn3  1  0.37987000  0.56007000  0.51645000  1
  Zn  Zn4  1  0.54362000  0.55470000  0.52181000  1
  Zn  Zn5  1  0.95638000  0.34832000  0.72819000  1
  Zn  Zn6  1  0.12013000  0.18994000  0.73355000  1
  Zn  Zn7  1  0.96710000  0.26645000  0.81007000  1
  Zn  Zn8  1  0.95638000  0.19530000  0.72819000  1
  Zn  Zn9  1  0.96710000  0.76645000  0.31007000  1
  Zn  Zn10  1  0.95638000  0.69530000  0.22819000  1
  Zn  Zn11  1  0.95638000  0.84832000  0.22819000  1
  Zn  Zn12  1  0.12013000  0.68993000  0.23355000  1
  Zn  Zn13  1  0.37987000  0.06007000  0.01645000  1
  Zn  Zn14  1  0.54362000  0.05470000  0.02181000  1
  Zn  Zn15  1  0.54362000  0.90168000  0.02181000  1
  Zn  Zn16  1  0.53290000  0.98355000  0.93994000  1
  H  H1  1  0.65111000  0.53566000  0.57555000  1
  H  H2  1  0.84889000  0.21434000  0.67445000  1
  H  H3  1  0.84889000  0.43677000  0.67445000  1
  H  H4  1  0.65111000  0.31323000  0.57555000  1
  H  H5  1  0.23768000  0.63116000  0.48005000  1
  H  H6  1  0.26232000  0.61884000  0.26995000  1
  H  H7  1  0.03989000  0.73005000  0.38116000  1
  H  H8  1  0.46011000  0.51995000  0.36884000  1
  H  H9  1  0.03989000  0.23005000  0.88116000  1
  H  H10  1  0.46011000  0.01995000  0.86884000  1
  H  H11  1  0.23768000  0.13116000  0.98005000  1
  H  H12  1  0.26232000  0.11884000  0.76995000  1
  H  H13  1  0.84889000  0.93677000  0.17445000  1
  H  H14  1  0.65111000  0.81323000  0.07555000  1
  H  H15  1  0.65111000  0.03566000  0.07555000  1
  H  H16  1  0.84889000  0.71434000  0.17445000  1
  H  H17  1  0.11884000  0.54951000  0.60341000  1
  H  H18  1  0.38116000  0.20049000  0.64659000  1
  H  H19  1  0.70682000  0.53767000  0.30942000  1
  H  H20  1  0.79318000  0.71234000  0.44058000  1
  H  H21  1  0.70682000  0.25552000  0.30942000  1
  H  H22  1  0.79318000  0.99448000  0.44058000  1
  H  H23  1  0.44610000  0.82094000  0.61412000  1
  H  H24  1  0.05390000  0.92906000  0.63588000  1
  H  H25  1  0.79318000  0.49448000  0.94058000  1
  H  H26  1  0.70682000  0.75552000  0.80942000  1
  H  H27  1  0.77175000  0.07013000  0.77695000  1
  H  H28  1  0.72825000  0.17987000  0.97305000  1
  H  H29  1  0.05390000  0.42906000  0.13588000  1
  H  H30  1  0.44610000  0.32094000  0.11412000  1
  H  H31  1  0.38116000  0.70049000  0.14659000  1
  H  H32  1  0.11884000  0.04951000  0.10341000  1
  C  C1  1  0.62228000  0.31658000  0.43886000  1
  C  C2  1  0.36059000  0.56971000  0.43029000  1
  C  C3  1  0.37772000  0.43886000  0.56114000  1
  C  C4  1  0.37772000  0.68342000  0.56114000  1
  C  C5  1  0.63941000  0.43029000  0.56971000  1
  C  C6  1  0.62228000  0.56114000  0.43886000  1
  C  C7  1  0.12228000  0.31114000  0.68886000  1
  C  C8  1  0.13941000  0.18029000  0.81971000  1
  C  C9  1  0.87772000  0.43342000  0.81114000  1
  C  C10  1  0.87772000  0.18886000  0.81114000  1
  C  C11  1  0.86059000  0.31971000  0.68029000  1
  C  C12  1  0.12228000  0.06658000  0.68886000  1
  C  C13  1  0.87772000  0.68886000  0.31114000  1
  C  C14  1  0.86059000  0.81971000  0.18029000  1
  C  C15  1  0.87772000  0.93342000  0.31114000  1
  C  C16  1  0.12228000  0.81114000  0.18886000  1
  C  C17  1  0.13941000  0.68029000  0.31971000  1
  C  C18  1  0.12228000  0.56658000  0.18886000  1
  C  C19  1  0.37772000  0.18342000  0.06114000  1
  C  C20  1  0.63941000  0.93029000  0.06971000  1
  C  C21  1  0.37772000  0.93886000  0.06114000  1
  C  C22  1  0.62228000  0.81658000  0.93886000  1
  C  C23  1  0.36059000  0.06971000  0.93029000  1
  C  C24  1  0.62228000  0.06114000  0.93886000  1
  C  C25  1  0.69550000  0.40225000  0.59775000  1
  C  C26  1  0.80450000  0.34775000  0.65225000  1
  C  C27  1  0.72294000  0.44642000  0.61147000  1
  C  C28  1  0.77706000  0.30358000  0.63853000  1
  C  C29  1  0.77706000  0.41936000  0.63853000  1
  C  C30  1  0.72294000  0.33064000  0.61147000  1
  C  C31  1  0.30450000  0.59775000  0.40225000  1
  C  C32  1  0.19550000  0.65225000  0.34775000  1
  C  C33  1  0.21917000  0.64041000  0.41747000  1
  C  C34  1  0.28082000  0.60959000  0.33253000  1
  C  C35  1  0.16505000  0.66747000  0.39041000  1
  C  C36  1  0.33495000  0.58253000  0.35959000  1
  C  C37  1  0.24243000  0.45159000  0.59960000  1
  C  C38  1  0.25757000  0.29841000  0.65040000  1
  C  C39  1  0.32680000  0.41340000  0.58660000  1
  C  C40  1  0.17320000  0.33660000  0.66340000  1
  C  C41  1  0.28530000  0.34086000  0.62616000  1
  C  C42  1  0.21470000  0.40914000  0.62384000  1
  C  C43  1  0.69920000  0.57759000  0.37121000  1
  C  C44  1  0.80080000  0.67241000  0.37879000  1
  C  C45  1  0.67320000  0.58660000  0.41340000  1
  C  C46  1  0.82680000  0.66340000  0.33660000  1
  C  C47  1  0.75231000  0.64034000  0.39265000  1
  C  C48  1  0.74769000  0.60966000  0.35735000  1
  C  C49  1  0.69920000  0.22320000  0.37121000  1
  C  C50  1  0.80080000  0.02680000  0.37879000  1
  C  C51  1  0.67320000  0.24020000  0.41340000  1
  C  C52  1  0.82680000  0.00980000  0.33660000  1
  C  C53  1  0.75231000  0.10735000  0.39265000  1
  C  C54  1  0.74769000  0.14265000  0.35735000  1
  C  C55  1  0.35199000  0.80239000  0.60319000  1
  C  C56  1  0.14801000  0.94761000  0.64681000  1
  C  C57  1  0.32680000  0.75980000  0.58660000  1
  C  C58  1  0.17320000  0.99020000  0.66340000  1
  C  C59  1  0.21470000  0.87616000  0.62384000  1
  C  C60  1  0.28530000  0.87384000  0.62616000  1
  C  C61  1  0.19550000  0.15225000  0.84775000  1
  C  C62  1  0.30450000  0.09775000  0.90225000  1
  C  C63  1  0.16505000  0.16747000  0.89041000  1
  C  C64  1  0.33495000  0.08253000  0.85959000  1
  C  C65  1  0.21917000  0.14041000  0.91747000  1
  C  C66  1  0.28082000  0.10959000  0.83253000  1
  C  C67  1  0.80080000  0.52680000  0.87879000  1
  C  C68  1  0.69920000  0.72320000  0.87121000  1
  C  C69  1  0.82680000  0.50980000  0.83660000  1
  C  C70  1  0.67320000  0.74020000  0.91340000  1
  C  C71  1  0.74769000  0.64265000  0.85735000  1
  C  C72  1  0.75231000  0.60735000  0.89265000  1
  C  C73  1  0.79362000  0.12480000  0.82401000  1
  C  C74  1  0.70638000  0.12520000  0.92599000  1
  C  C75  1  0.82680000  0.16340000  0.83660000  1
  C  C76  1  0.67320000  0.08660000  0.91340000  1
  C  C77  1  0.75231000  0.14034000  0.89265000  1
  C  C78  1  0.74769000  0.10966000  0.85735000  1
  C  C79  1  0.80450000  0.84775000  0.15225000  1
  C  C80  1  0.69550000  0.90225000  0.09775000  1
  C  C81  1  0.77706000  0.91936000  0.13853000  1
  C  C82  1  0.72294000  0.83064000  0.11147000  1
  C  C83  1  0.72294000  0.94642000  0.11147000  1
  C  C84  1  0.77706000  0.80358000  0.13853000  1
  C  C85  1  0.14801000  0.44761000  0.14681000  1
  C  C86  1  0.35199000  0.30239000  0.10319000  1
  C  C87  1  0.17320000  0.49020000  0.16340000  1
  C  C88  1  0.32680000  0.25980000  0.08660000  1
  C  C89  1  0.28530000  0.37384000  0.12616000  1
  C  C90  1  0.21470000  0.37616000  0.12384000  1
  C  C91  1  0.25757000  0.79841000  0.15040000  1
  C  C92  1  0.24243000  0.95159000  0.09960000  1
  C  C93  1  0.17320000  0.83660000  0.16340000  1
  C  C94  1  0.32680000  0.91340000  0.08660000  1
  C  C95  1  0.21470000  0.90914000  0.12384000  1
  C  C96  1  0.28530000  0.84086000  0.12616000  1
  S  S1  1  0.37838000  0.32319000  0.60293000  1
  S  S2  1  0.12162000  0.42681000  0.64707000  1
  S  S3  1  0.70586000  0.63469000  0.43919000  1
  S  S4  1  0.79414000  0.61531000  0.31081000  1
  S  S5  1  0.70586000  0.15945000  0.43919000  1
  S  S6  1  0.79414000  0.09055000  0.31081000  1
  S  S7  1  0.22026000  0.80361000  0.59775000  1
  S  S8  1  0.27974000  0.94639000  0.65225000  1
  S  S9  1  0.79414000  0.59055000  0.81081000  1
  S  S10  1  0.70586000  0.65945000  0.93919000  1
  S  S11  1  0.80450000  0.18401000  0.88987000  1
  S  S12  1  0.69550000  0.06599000  0.86013000  1
  S  S13  1  0.27974000  0.44639000  0.15225000  1
  S  S14  1  0.22026000  0.30361000  0.09775000  1
  S  S15  1  0.12162000  0.92681000  0.14707000  1
  S  S16  1  0.37838000  0.82319000  0.10293000  1
  O  O1  1  0.50000000  0.50000000  0.50000000  1
  O  O2  1  0.60622000  0.31649000  0.47895000  1
  O  O3  1  0.43963000  0.53019000  0.41357000  1
  O  O4  1  0.33754000  0.50707000  0.54917000  1
  O  O5  1  0.59834000  0.37667000  0.41877000  1
  O  O6  1  0.45790000  0.39065000  0.55311000  1
  O  O7  1  0.32715000  0.58643000  0.46981000  1
  O  O8  1  0.33754000  0.65539000  0.54917000  1
  O  O9  1  0.61661000  0.49794000  0.55831000  1
  O  O10  1  0.45790000  0.65145000  0.55311000  1
  O  O11  1  0.61661000  0.38545000  0.55831000  1
  O  O12  1  0.59834000  0.52499000  0.41877000  1
  O  O13  1  0.60622000  0.57729000  0.47895000  1
  O  O14  1  0.00000000  0.25000000  0.75000000  1
  O  O15  1  0.04210000  0.35935000  0.69689000  1
  O  O16  1  0.17285000  0.16357000  0.78019000  1
  O  O17  1  0.90166000  0.37333000  0.83123000  1
  O  O18  1  0.16246000  0.24293000  0.70083000  1
  O  O19  1  0.89378000  0.43351000  0.77105000  1
  O  O20  1  0.06037000  0.21982000  0.83643000  1
  O  O21  1  0.90166000  0.22501000  0.83123000  1
  O  O22  1  0.88339000  0.25206000  0.69169000  1
  O  O23  1  0.89378000  0.17271000  0.77105000  1
  O  O24  1  0.88339000  0.36455000  0.69169000  1
  O  O25  1  0.16246000  0.09461000  0.70083000  1
  O  O26  1  0.04210000  0.09855000  0.69689000  1
  O  O27  1  0.00000000  0.75000000  0.25000000  1
  O  O28  1  0.90166000  0.72501000  0.33123000  1
  O  O29  1  0.88339000  0.75206000  0.19169000  1
  O  O30  1  0.89378000  0.93351000  0.27105000  1
  O  O31  1  0.89378000  0.67271000  0.27105000  1
  O  O32  1  0.90166000  0.87333000  0.33123000  1
  O  O33  1  0.88339000  0.86455000  0.19169000  1
  O  O34  1  0.04210000  0.85935000  0.19689000  1
  O  O35  1  0.17285000  0.66357000  0.28019000  1
  O  O36  1  0.16246000  0.74293000  0.20083000  1
  O  O37  1  0.06037000  0.71981000  0.33643000  1
  O  O38  1  0.04210000  0.59855000  0.19689000  1
  O  O39  1  0.16246000  0.59461000  0.20083000  1
  O  O40  1  0.50000000  0.00000000  0.00000000  1
  O  O41  1  0.33754000  0.15539000  0.04917000  1
  O  O42  1  0.61661000  0.99794000  0.05831000  1
  O  O43  1  0.45790000  0.89065000  0.05311000  1
  O  O44  1  0.45790000  0.15145000  0.05311000  1
  O  O45  1  0.33754000  0.00707000  0.04917000  1
  O  O46  1  0.61661000  0.88545000  0.05831000  1
  O  O47  1  0.60622000  0.81649000  0.97895000  1
  O  O48  1  0.43963000  0.03019000  0.91357000  1
  O  O49  1  0.59834000  0.87667000  0.91877000  1
  O  O50  1  0.32715000  0.08643000  0.96982000  1
  O  O51  1  0.60622000  0.07729000  0.97895000  1
  O  O52  1  0.59834000  0.02499000  0.91877000  1
  O  O53  1  0.69357000  0.52422000  0.59678000  1
  O  O54  1  0.80643000  0.22578000  0.65322000  1
  O  O55  1  0.80643000  0.46779000  0.65322000  1
  O  O56  1  0.69357000  0.28221000  0.59678000  1
  O  O57  1  0.18543000  0.65728000  0.46372000  1
  O  O58  1  0.31457000  0.59272000  0.28628000  1
  O  O59  1  0.07256000  0.71372000  0.40729000  1
  O  O60  1  0.42744000  0.53628000  0.34272000  1
  O  O61  1  0.07256000  0.21372000  0.90728000  1
  O  O62  1  0.42744000  0.03628000  0.84272000  1
  O  O63  1  0.18543000  0.15728000  0.96372000  1
  O  O64  1  0.31457000  0.09272000  0.78628000  1
  O  O65  1  0.80643000  0.96779000  0.15322000  1
  O  O66  1  0.69357000  0.78221000  0.09678000  1
  O  O67  1  0.69357000  0.02422000  0.09678000  1
  O  O68  1  0.80643000  0.72578000  0.15322000  1
  O  O69  1  0.18358000  0.53128000  0.58941000  1
  O  O70  1  0.31642000  0.21872000  0.66059000  1
  O  O71  1  0.67882000  0.53752000  0.34179000  1
  O  O72  1  0.82118000  0.71248000  0.40821000  1
  O  O73  1  0.67882000  0.28366000  0.34179000  1
  O  O74  1  0.82118000  0.96634000  0.40821000  1
  O  O75  1  0.44187000  0.77669000  0.59787000  1
  O  O76  1  0.05813000  0.97331000  0.65213000  1
  O  O77  1  0.82118000  0.46634000  0.90821000  1
  O  O78  1  0.67882000  0.78366000  0.84179000  1
  O  O79  1  0.80427000  0.10025000  0.77907000  1
  O  O80  1  0.69573000  0.14975000  0.97093000  1
  O  O81  1  0.05813000  0.47331000  0.15213000  1
  O  O82  1  0.44187000  0.27669000  0.09787000  1
  O  O83  1  0.31642000  0.71872000  0.16059000  1
  O  O84  1  0.18358000  0.03128000  0.08941000  1
