data_DB1-Zn2O8-irmof14_A-irmof16_A_No457_repeat
_audit_creation_date              2024-02-23
_audit_creation_method            'Materials Studio'
_symmetry_space_group_name_H-M    'P1'
_symmetry_Int_Tables_number       1
_symmetry_cell_setting            triclinic
loop_
_symmetry_equiv_pos_as_xyz
  x,y,z
_cell_length_a                    30.1952
_cell_length_b                    21.2182
_cell_length_c                    41.7088
_cell_angle_alpha                 104.8020
_cell_angle_beta                  68.8858
_cell_angle_gamma                 134.6140
loop_
_atom_site_label
_atom_site_type_symbol
_atom_site_fract_x
_atom_site_fract_y
_atom_site_fract_z
_atom_site_U_iso_or_equiv
_atom_site_adp_type
_atom_site_occupancy
C1     C     0.69971   0.50025   0.10290   0.00000  Uiso   1.00
C2     C     0.65089   0.50048   0.12032   0.00000  Uiso   1.00
C3     C     0.63292   0.50046   0.15622   0.00000  Uiso   1.00
C4     C     0.73084   0.50002   0.12060   0.00000  Uiso   1.00
C5     C     0.71267   0.50000   0.15650   0.00000  Uiso   1.00
C6     C     0.66362   0.50023   0.17459   0.00000  Uiso   1.00
C7     C     0.64388   0.50021   0.21380   0.00000  Uiso   1.00
C8     C     0.69094   0.55678   0.23232   0.00000  Uiso   1.00
C9     C     0.57835   0.44363   0.23196   0.00000  Uiso   1.00
C10    C     0.55139   0.50014   0.39750   0.00000  Uiso   1.00
C11    C     0.52056   0.41987   0.37982   0.00000  Uiso   1.00
C12    C     0.53873   0.42008   0.34392   0.00000  Uiso   1.00
C13    C     0.59991   0.58043   0.38006   0.00000  Uiso   1.00
C14    C     0.61789   0.58025   0.34416   0.00000  Uiso   1.00
C15    C     0.58749   0.50017   0.32581   0.00000  Uiso   1.00
C16    C     0.60723   0.50018   0.28660   0.00000  Uiso   1.00
C17    C     0.56016   0.44361   0.26808   0.00000  Uiso   1.00
C18    C     0.67276   0.55677   0.26844   0.00000  Uiso   1.00
C19    C     0.29962   0.49983   0.89709   0.00000  Uiso   1.00
C20    C     0.34838   0.49945   0.87972   0.00000  Uiso   1.00
C21    C     0.36642   0.49946   0.84381   0.00000  Uiso   1.00
C22    C     0.41368   0.50016   0.50005   0.00000  Uiso   1.00
C23    C     0.26862   0.50021   0.87934   0.00000  Uiso   1.00
C24    C     0.28686   0.50022   0.84344   0.00000  Uiso   1.00
C25    C     0.33585   0.49984   0.82540   0.00000  Uiso   1.00
C26    C     0.35567   0.49984   0.78619   0.00000  Uiso   1.00
C27    C     0.36485   0.55686   0.76780   0.00000  Uiso   1.00
C28    C     0.36503   0.44284   0.76790   0.00000  Uiso   1.00
C29    C     0.44851   0.49987   0.60249   0.00000  Uiso   1.00
C30    C     0.39988   0.41958   0.61993   0.00000  Uiso   1.00
C31    C     0.38184   0.41978   0.65583   0.00000  Uiso   1.00
C32    C     0.47939   0.58015   0.62017   0.00000  Uiso   1.00
C33    C     0.46114   0.57994   0.65607   0.00000  Uiso   1.00
C34    C     0.41228   0.49986   0.67418   0.00000  Uiso   1.00
C35    C     0.39246   0.49985   0.71339   0.00000  Uiso   1.00
C36    C     0.38328   0.44284   0.73178   0.00000  Uiso   1.00
C37    C     0.38311   0.55686   0.73168   0.00000  Uiso   1.00
C38    C     0.19762   0.50053   0.10371   0.00000  Uiso   1.00
C39    C     0.22892   0.50027   0.12127   0.00000  Uiso   1.00
C40    C     0.21094   0.50021   0.15717   0.00000  Uiso   1.00
C41    C     0.14882   0.50073   0.12128   0.00000  Uiso   1.00
C42    C     0.13104   0.50068   0.15718   0.00000  Uiso   1.00
C43    C     0.16191   0.50042   0.17540   0.00000  Uiso   1.00
C44    C     0.96604   0.50001   0.56785   0.00000  Uiso   1.00
C45    C     0.14237   0.50035   0.21462   0.00000  Uiso   1.00
C46    C     0.07690   0.44375   0.23286   0.00000  Uiso   1.00
C47    C     0.18958   0.55690   0.23305   0.00000  Uiso   1.00
C48    C     0.05087   0.50007   0.39832   0.00000  Uiso   1.00
C49    C     0.09929   0.58038   0.38089   0.00000  Uiso   1.00
C50    C     0.11707   0.58023   0.34499   0.00000  Uiso   1.00
C51    C     0.01995   0.41981   0.38062   0.00000  Uiso   1.00
C52    C     0.03793   0.42007   0.34472   0.00000  Uiso   1.00
C53    C     0.08658   0.50018   0.32663   0.00000  Uiso   1.00
C54    C     0.10611   0.50024   0.28741   0.00000  Uiso   1.00
C55    C     0.17159   0.55685   0.26917   0.00000  Uiso   1.00
C56    C     0.05890   0.44369   0.26899   0.00000  Uiso   1.00
C57    C     0.80227   0.49941   0.89791   0.00000  Uiso   1.00
C58    C     0.77099   0.49982   0.88041   0.00000  Uiso   1.00
C59    C     0.78890   0.49989   0.84451   0.00000  Uiso   1.00
C60    C     0.85099   0.49906   0.88029   0.00000  Uiso   1.00
C61    C     0.86870   0.49913   0.84439   0.00000  Uiso   1.00
C62    C     0.83784   0.49954   0.82622   0.00000  Uiso   1.00
C63    C     0.85730   0.49961   0.78701   0.00000  Uiso   1.00
C64    C     0.86658   0.44263   0.76853   0.00000  Uiso   1.00
C65    C     0.86622   0.55665   0.76881   0.00000  Uiso   1.00
C66    C     0.94845   0.49994   0.60330   0.00000  Uiso   1.00
C67    C     0.97948   0.58019   0.62101   0.00000  Uiso   1.00
C68    C     0.96156   0.57993   0.65691   0.00000  Uiso   1.00
C69    C     0.89999   0.41963   0.62073   0.00000  Uiso   1.00
C70    C     0.88228   0.41976   0.65663   0.00000  Uiso   1.00
C71    C     0.91288   0.49981   0.67500   0.00000  Uiso   1.00
C72    C     0.46643   0.49987   0.56703   0.00000  Uiso   1.00
C73    C     0.91341   0.50017   0.50059   0.00000  Uiso   1.00
C74    C     0.89342   0.49974   0.71421   0.00000  Uiso   1.00
C75    C     0.88414   0.55672   0.73269   0.00000  Uiso   1.00
C76    C     0.88450   0.44270   0.73241   0.00000  Uiso   1.00
C77    C     0.63659   0.18956   0.00043   0.00000  Uiso   1.00
C78    C     0.58869   0.09695   0.00037   0.00000  Uiso   1.00
C79    C     0.60145   0.04525   0.00047   0.00000  Uiso   1.00
C80    C     0.55832   0.19055   0.00015   0.00000  Uiso   1.00
C81    C     0.51426   0.09789   0.00010   0.00000  Uiso   1.00
C82    C     0.45066   0.04716   0.99993   0.00000  Uiso   1.00
C83    C     0.36965   0.81043   0.99991   0.00000  Uiso   1.00
C84    C     0.41755   0.90305   0.99998   0.00000  Uiso   1.00
C85    C     0.40479   0.95474   0.99987   0.00000  Uiso   1.00
C86    C     0.44792   0.80944   0.00019   0.00000  Uiso   1.00
C87    C     0.49198   0.90210   0.00024   0.00000  Uiso   1.00
C88    C     0.55558   0.95284   0.00041   0.00000  Uiso   1.00
C89    C     0.62152   0.23854   0.00032   0.00000  Uiso   1.00
C90    C     0.52481   0.04370   0.00020   0.00000  Uiso   1.00
C91    C     0.38472   0.76145   0.00002   0.00000  Uiso   1.00
C92    C     0.48143   0.95629   0.00014   0.00000  Uiso   1.00
C93    C     0.03320   0.50001   0.43378   0.00000  Uiso   1.00
C94    C     0.94408   0.80898   0.00026   0.00000  Uiso   1.00
C95    C     0.98826   0.90164   0.00007   0.00000  Uiso   1.00
C96    C     0.05189   0.95238   0.00017   0.00000  Uiso   1.00
C97    C     0.86586   0.80997   0.99986   0.00000  Uiso   1.00
C98    C     0.91387   0.90258   0.99970   0.00000  Uiso   1.00
C99    C     0.90121   0.95427   0.99941   0.00000  Uiso   1.00
C100   C     0.05501   0.19008   0.99915   0.00000  Uiso   1.00
C101   C     0.01082   0.09742   0.99933   0.00000  Uiso   1.00
C102   C     0.94719   0.04668   0.99924   0.00000  Uiso   1.00
C103   C     0.13322   0.18910   0.99955   0.00000  Uiso   1.00
C104   C     0.08521   0.09648   0.99971   0.00000  Uiso   1.00
C105   C     0.09788   0.04479  -0.00000   0.00000  Uiso   1.00
C106   C     0.88085   0.76099   0.00015   0.00000  Uiso   1.00
C107   C     0.97780   0.95583   0.99979   0.00000  Uiso   1.00
C108   C     0.11824   0.23807   0.99926   0.00000  Uiso   1.00
C109   C     0.02129   0.04323   0.99962   0.00000  Uiso   1.00
C110   C     0.08574   0.49985   0.50115   0.00000  Uiso   1.00
C111   C     0.78468   0.49935   0.93337   0.00000  Uiso   1.00
C112   C     0.66547   0.32709   0.00038   0.00000  Uiso   1.00
C113   C     0.71756   0.50027   0.06744   0.00000  Uiso   1.00
C114   C     0.83679   0.67245   0.00032   0.00000  Uiso   1.00
C115   C     0.21336   0.49884   0.06661   0.00000  Uiso   1.00
C116   C     0.16230   0.32661   0.99909   0.00000  Uiso   1.00
C117   C     0.28170   0.49982   0.93255   0.00000  Uiso   1.00
C118   C     0.33267   0.67197   0.00019   0.00000  Uiso   1.00
C119   C     0.61596   0.42104   0.50004   0.00000  Uiso   1.00
C120   C     0.66419   0.42495   0.50012   0.00000  Uiso   1.00
C121   C     0.65191   0.34804   0.50004   0.00000  Uiso   1.00
C122   C     0.58628   0.49984   0.50006   0.00000  Uiso   1.00
C123   C     0.69364   0.57878   0.50029   0.00000  Uiso   1.00
C124   C     0.73807   0.57496   0.50036   0.00000  Uiso   1.00
C125   C     0.80157   0.65192   0.50053   0.00000  Uiso   1.00
C126   C     0.88373   0.57897   0.50061   0.00000  Uiso   1.00
C127   C     0.83550   0.57506   0.50052   0.00000  Uiso   1.00
C128   C     0.84778   0.65197   0.50060   0.00000  Uiso   1.00
C129   C     0.80605   0.42123   0.50035   0.00000  Uiso   1.00
C130   C     0.76162   0.42505   0.50028   0.00000  Uiso   1.00
C131   C     0.69812   0.34809   0.50012   0.00000  Uiso   1.00
C132   C     0.63055   0.49988   0.50013   0.00000  Uiso   1.00
C133   C     0.72799   0.49998   0.50029   0.00000  Uiso   1.00
C134   C     0.86913   0.50013   0.50052   0.00000  Uiso   1.00
C135   C     0.77170   0.50003   0.50036   0.00000  Uiso   1.00
C136   C     0.30617   0.42123   0.50010   0.00000  Uiso   1.00
C137   C     0.26163   0.42505   0.50026   0.00000  Uiso   1.00
C138   C     0.19809   0.34809   0.50017   0.00000  Uiso   1.00
C139   C     0.38380   0.57896   0.50046   0.00000  Uiso   1.00
C140   C     0.33546   0.57506   0.50061   0.00000  Uiso   1.00
C141   C     0.34764   0.65197   0.50088   0.00000  Uiso   1.00
C142   C     0.19324   0.57878   0.50110   0.00000  Uiso   1.00
C143   C     0.23778   0.57496   0.50094   0.00000  Uiso   1.00
C144   C     0.30132   0.65192   0.50103   0.00000  Uiso   1.00
C145   C     0.53354   0.50013   0.43296   0.00000  Uiso   1.00
C146   C     0.11561   0.42105   0.50074   0.00000  Uiso   1.00
C147   C     0.16396   0.42495   0.50059   0.00000  Uiso   1.00
C148   C     0.15177   0.34804   0.50033   0.00000  Uiso   1.00
C149   C     0.36929   0.50012   0.50020   0.00000  Uiso   1.00
C150   C     0.27161   0.50003   0.50053   0.00000  Uiso   1.00
C151   C     0.13012   0.49989   0.50100   0.00000  Uiso   1.00
C152   C     0.22780   0.49998   0.50068   0.00000  Uiso   1.00
H1     H     0.62851   0.50065   0.10679   0.00000  Uiso   1.00
H2     H     0.59696   0.50063   0.16937   0.00000  Uiso   1.00
H3     H     0.73529   0.49983   0.16984   0.00000  Uiso   1.00
H4     H     0.54338   0.40191   0.21882   0.00000  Uiso   1.00
H5     H     0.48487   0.36133   0.39317   0.00000  Uiso   1.00
H6     H     0.51634   0.36128   0.33058   0.00000  Uiso   1.00
H7     H     0.62207   0.63896   0.39359   0.00000  Uiso   1.00
H8     H     0.51210   0.40189   0.28095   0.00000  Uiso   1.00
H9     H     0.70772   0.59848   0.28158   0.00000  Uiso   1.00
H10    H     0.37066   0.49917   0.89329   0.00000  Uiso   1.00
H11    H     0.40233   0.49918   0.83070   0.00000  Uiso   1.00
H12    H     0.26435   0.50050   0.83006   0.00000  Uiso   1.00
H13    H     0.35852   0.40080   0.78094   0.00000  Uiso   1.00
H14    H     0.37769   0.36106   0.60641   0.00000  Uiso   1.00
H15    H     0.34602   0.36097   0.66899   0.00000  Uiso   1.00
H16    H     0.51516   0.63868   0.60682   0.00000  Uiso   1.00
H17    H     0.38992   0.40081   0.71881   0.00000  Uiso   1.00
H18    H     0.38961   0.59890   0.71864   0.00000  Uiso   1.00
H19    H     0.26481   0.50012   0.10783   0.00000  Uiso   1.00
H20    H     0.23367   0.50002   0.17041   0.00000  Uiso   1.00
H21    H     0.09510   0.50082   0.17043   0.00000  Uiso   1.00
H22    H     0.23760   0.59864   0.22011   0.00000  Uiso   1.00
H23    H     0.12151   0.63888   0.39443   0.00000  Uiso   1.00
H24    H     0.15273   0.63906   0.33184   0.00000  Uiso   1.00
H25    H     0.98433   0.36126   0.39396   0.00000  Uiso   1.00
H26    H     0.20666   0.59855   0.28224   0.00000  Uiso   1.00
H27    H     0.01088   0.40195   0.28192   0.00000  Uiso   1.00
H28    H     0.73516   0.50008   0.89388   0.00000  Uiso   1.00
H29    H     0.76617   0.50019   0.83130   0.00000  Uiso   1.00
H30    H     0.90457   0.49887   0.83110   0.00000  Uiso   1.00
H31    H     0.85963   0.59867   0.78191   0.00000  Uiso   1.00
H32    H     0.01511   0.63875   0.60767   0.00000  Uiso   1.00
H33    H     0.98410   0.63871   0.67026   0.00000  Uiso   1.00
H34    H     0.87768   0.36112   0.60719   0.00000  Uiso   1.00
H35    H     0.89046   0.59878   0.71978   0.00000  Uiso   1.00
H36    H     0.89109   0.40069   0.71931   0.00000  Uiso   1.00
H37    H     0.67794   0.21813   0.00055   0.00000  Uiso   1.00
H38    H     0.64291   0.07404   0.00059   0.00000  Uiso   1.00
H39    H     0.54568   0.21980   0.00007   0.00000  Uiso   1.00
H40    H     0.32830   0.78186   0.99980   0.00000  Uiso   1.00
H41    H     0.36333   0.92595   0.99976   0.00000  Uiso   1.00
H42    H     0.46057   0.78019   0.00027   0.00000  Uiso   1.00
H43    H     0.95667   0.77974   0.00045   0.00000  Uiso   1.00
H44    H     0.06437   0.92290   0.00036   0.00000  Uiso   1.00
H45    H     0.82450   0.78140   0.99978   0.00000  Uiso   1.00
H46    H     0.04241   0.21932   0.99896   0.00000  Uiso   1.00
H47    H     0.93471   0.07616   0.99905   0.00000  Uiso   1.00
H48    H     0.17458   0.21766   0.99963   0.00000  Uiso   1.00
H49    H     0.71081   0.24960   0.48319   0.00000  Uiso   1.00
H50    H     0.63128   0.20560   0.51677   0.00000  Uiso   1.00
H51    H     0.80577   0.75045   0.48374   0.00000  Uiso   1.00
H52    H     0.85152   0.79438   0.51760   0.00000  Uiso   1.00
H53    H     0.04201   0.24933   0.51714   0.00000  Uiso   1.00
H54    H     0.07819   0.20565   0.48317   0.00000  Uiso   1.00
H55    H     0.44072   0.75048   0.51779   0.00000  Uiso   1.00
H56    H     0.43791   0.79456   0.48431   0.00000  Uiso   1.00
H57    H     0.54366   0.84676   0.01739   0.00000  Uiso   1.00
H58    H     0.62305   0.92831   0.98379   0.00000  Uiso   1.00
H59    H     0.44570   0.15342   0.01668   0.00000  Uiso   1.00
H60    H     0.40009   0.07150   0.98283   0.00000  Uiso   1.00
H61    H     0.20762   0.14935   0.98319   0.00000  Uiso   1.00
H62    H     0.17190   0.06781   0.01717   0.00000  Uiso   1.00
H63    H     0.80816   0.84897   0.98250   0.00000  Uiso   1.00
H64    H     0.81049   0.93199   0.01596   0.00000  Uiso   1.00
H65    H     0.57471   0.36662   0.49993   0.00000  Uiso   1.00
H66    H     0.61055   0.29362   0.49993   0.00000  Uiso   1.00
H67    H     0.70598   0.63317   0.50036   0.00000  Uiso   1.00
H68    H     0.92498   0.63339   0.50072   0.00000  Uiso   1.00
H69    H     0.88914   0.70639   0.50072   0.00000  Uiso   1.00
H70    H     0.79371   0.36685   0.50029   0.00000  Uiso   1.00
H71    H     0.29389   0.36684   0.49993   0.00000  Uiso   1.00
H72    H     0.18593   0.29370   0.50000   0.00000  Uiso   1.00
H73    H     0.42506   0.63338   0.50054   0.00000  Uiso   1.00
H74    H     0.20552   0.63317   0.50128   0.00000  Uiso   1.00
H75    H     0.31349   0.70631   0.50121   0.00000  Uiso   1.00
H76    H     0.07435   0.36663   0.50066   0.00000  Uiso   1.00
Li1    Li    0.82409   0.49949   0.11635   0.00000  Uiso   1.00
Li2    Li    0.82083   0.68569   0.22951   0.00000  Uiso   1.00
Li3    Li    0.71020   0.76298   0.34046   0.00000  Uiso   1.00
Li4    Li    0.17560   0.50108   0.88348   0.00000  Uiso   1.00
Li5    Li    0.36302   0.68675   0.77092   0.00000  Uiso   1.00
Li6    Li    0.54961   0.76267   0.66032   0.00000  Uiso   1.00
Li7    Li    0.05999   0.50127   0.11673   0.00000  Uiso   1.00
Li8    Li    0.95013   0.31484   0.22943   0.00000  Uiso   1.00
Li9    Li    0.94962   0.23734   0.34044   0.00000  Uiso   1.00
Li10   Li    0.93972   0.49819   0.88473   0.00000  Uiso   1.00
Li11   Li    0.86539   0.31274   0.77144   0.00000  Uiso   1.00
Li12   Li    0.78985   0.23703   0.66029   0.00000  Uiso   1.00
N1     N     0.67832   0.25998   0.50002   0.00000  Uiso   1.00
N2     N     0.82136   0.74003   0.50063   0.00000  Uiso   1.00
N3     N     0.08474   0.25989   0.50020   0.00000  Uiso   1.00
N4     N     0.41468   0.74012   0.50100   0.00000  Uiso   1.00
N5     N     0.57589   0.90509   0.00054   0.00000  Uiso   1.00
N6     N     0.43036   0.09491   0.99980   0.00000  Uiso   1.00
N7     N     0.16506   0.09143   0.00013   0.00000  Uiso   1.00
N8     N     0.83402   0.90763   0.99928   0.00000  Uiso   1.00
O1     O     0.51979   0.58985   0.54973   0.00000  Uiso   1.00
O2     O     0.43072   0.40990   0.54939   0.00000  Uiso   1.00
O3     O     0.48066   0.59016   0.50018   0.00000  Uiso   1.00
O4     O     0.39182   0.41020   0.49977   0.00000  Uiso   1.00
O5     O     0.93015   0.41006   0.55026   0.00000  Uiso   1.00
O6     O     0.01927   0.59001   0.55050   0.00000  Uiso   1.00
O7     O     0.98037   0.59017   0.50077   0.00000  Uiso   1.00
O8     O     0.89147   0.41021   0.50048   0.00000  Uiso   1.00
O9     O     0.06898   0.58996   0.45136   0.00000  Uiso   1.00
O10    O     0.98003   0.41000   0.45113   0.00000  Uiso   1.00
O11    O     0.01880   0.40985   0.50092   0.00000  Uiso   1.00
O12    O     0.10777   0.58981   0.50108   0.00000  Uiso   1.00
O13    O     0.77623   0.49981   0.10374   0.00000  Uiso   1.00
O14    O     0.75168   0.60952   0.21606   0.00000  Uiso   1.00
O15    O     0.73098   0.49936   0.95065   0.00000  Uiso   1.00
O16    O     0.66305   0.65458   0.32753   0.00000  Uiso   1.00
O17    O     0.22330   0.50056   0.89615   0.00000  Uiso   1.00
O18    O     0.35646   0.60998   0.78419   0.00000  Uiso   1.00
O19    O     0.48949   0.65427   0.67292   0.00000  Uiso   1.00
O20    O     0.12038   0.50097   0.10431   0.00000  Uiso   1.00
O21    O     0.82072   0.49918   0.95103   0.00000  Uiso   1.00
O22    O     0.03258   0.39105   0.21634   0.00000  Uiso   1.00
O23    O     0.00954   0.34576   0.32785   0.00000  Uiso   1.00
O24    O     0.87942   0.49868   0.89722   0.00000  Uiso   1.00
O25    O     0.85859   0.38948   0.78484   0.00000  Uiso   1.00
O26    O     0.83717   0.34541   0.67325   0.00000  Uiso   1.00
O27    O     0.73260   0.37180   0.00057   0.00000  Uiso   1.00
O28    O     0.64302   0.37238   0.00024   0.00000  Uiso   1.00
O29    O     0.77114   0.50001   0.05016   0.00000  Uiso   1.00
O30    O     0.68157   0.50053   0.04979   0.00000  Uiso   1.00
O31    O     0.76964   0.62773   0.00017   0.00000  Uiso   1.00
O32    O     0.51932   0.40984   0.49988   0.00000  Uiso   1.00
O33    O     0.85915   0.62716   0.00062   0.00000  Uiso   1.00
O34    O     0.26675   0.49817   0.04939   0.00000  Uiso   1.00
O35    O     0.17756   0.49936   0.04890   0.00000  Uiso   1.00
O36    O     0.13978   0.37201   0.99898   0.00000  Uiso   1.00
O37    O     0.22919   0.37122   0.99941   0.00000  Uiso   1.00
O38    O     0.22820   0.50025   0.94977   0.00000  Uiso   1.00
O39    O     0.60822   0.58980   0.50016   0.00000  Uiso   1.00
O40    O     0.31755   0.49940   0.95026   0.00000  Uiso   1.00
O41    O     0.35521   0.62657   0.00025   0.00000  Uiso   1.00
O42    O     0.26587   0.62737   0.99969   0.00000  Uiso   1.00
O43    O     0.48030   0.41015   0.45026   0.00000  Uiso   1.00
O44    O     0.56920   0.59010   0.45060   0.00000  Uiso   1.00
Zn1    Zn    0.44582   0.39025   0.49979   0.00000  Uiso   1.00
Zn2    Zn    0.94539   0.39026   0.50067   0.00000  Uiso   1.00
Zn3    Zn    0.05382   0.60976   0.50096   0.00000  Uiso   1.00
Zn4    Zn    0.55419   0.60975   0.50020   0.00000  Uiso   1.00
Zn5    Zn    0.69651   0.50016   0.00018   0.00000  Uiso   1.00
Zn6    Zn    0.80569   0.49938   0.00063   0.00000  Uiso   1.00
Zn7    Zn    0.30205   0.49885   0.99987   0.00000  Uiso   1.00
Zn8    Zn    0.19298   0.49974   0.99929   0.00000  Uiso   1.00
