# Generated by REPEAT Assigner based on pymatgen
data_DB1-Cu2O8N2-AZO_A-BDC_A_No47
_audit_creation_date              2022-05-24
_audit_creation_method            REPEAT_Assigner
_cell_length_a                    15.606300
_cell_length_b                    17.276500
_cell_length_c                    10.700300
_cell_angle_alpha                 89.922400
_cell_angle_beta                  87.461000
_cell_angle_gamma                 95.773200
_cell_volume                      2867.538702
_symmetry_space_group_name_H-M    P1
_symmetry_Int_Tables_number       1
loop_
    _symmetry_equiv_pos_site_id
    _symmetry_equiv_pos_as_xyz
    1  x,y,z
loop_
    _atom_site_type_symbol
    _atom_site_label
    _atom_site_fract_x
    _atom_site_fract_y
    _atom_site_fract_z
    _atom_type_partial_charge
    Cu  Cu1  0.418090  0.496710  0.505300  1.037312
    Cu  Cu2  0.581910  0.503280  0.494710  1.036199
    O   O1   0.423610  0.496990  0.667440  -0.474528
    O   O2   0.423630  0.497100  0.342120  -0.477142
    O   O3   0.429960  0.598210  0.504230  -0.630231
    O   O4   0.417280  0.395890  0.505330  -0.678535
    O   O5   0.570040  0.401780  0.495740  -0.630146
    O   O6   0.582720  0.604100  0.494730  -0.678236
    O   O7   0.576390  0.503110  0.332440  -0.474779
    O   O8   0.576370  0.502860  0.657900  -0.476354
    C   C1   0.499990  0.499940  0.734390  0.635152
    C   C2   0.500010  0.500050  0.265620  0.636126
    C   C3   0.509140  0.645760  0.499320  0.642477
    C   C4   0.490860  0.354230  0.500700  0.642285
    N   N1   0.296350  0.491830  0.513170  -0.294514
    C   C5   0.253060  0.539790  0.435850  0.089297
    C   C6   0.162830  0.536040  0.441890  -0.188670
    C   C7   0.114060  0.484340  0.525250  0.491520
    C   C8   0.156700  0.436580  0.602250  -0.462929
    C   C9   0.246890  0.440130  0.596520  0.313416
    N   N2   0.021550  0.479160  0.533600  -0.234509
    N   N3   0.978450  0.520830  0.466420  -0.234524
    C   C10  0.843290  0.563410  0.397770  -0.462658
    C   C11  0.885940  0.515660  0.474760  0.491421
    C   C12  0.837170  0.463950  0.558120  -0.188625
    C   C13  0.746940  0.460200  0.564160  0.089418
    N   N4   0.703650  0.508160  0.486850  -0.294402
    C   C14  0.753110  0.559860  0.403500  0.313015
    H   H1   0.289450  0.580040  0.370960  0.123309
    H   H2   0.130790  0.573290  0.381850  0.078754
    H   H3   0.119700  0.396570  0.666750  0.165481
    H   H4   0.278440  0.402620  0.656990  0.079718
    H   H5   0.880300  0.603420  0.333270  0.165353
    H   H6   0.869210  0.426700  0.618160  0.078750
    H   H7   0.710550  0.419950  0.629060  0.123226
    H   H8   0.721560  0.597370  0.343030  0.079928
    C   C15  0.485420  0.267480  0.501010  -0.174868
    C   C16  0.560760  0.228690  0.496310  -0.088856
    C   C17  0.555440  0.147210  0.496610  -0.110804
    C   C18  0.474790  0.102870  0.501610  0.464351
    C   C19  0.399760  0.141080  0.506290  -0.364014
    C   C20  0.404780  0.222510  0.506010  0.087124
    N   N5   0.467250  0.019320  0.502050  -0.257448
    N   N6   0.532750  0.980670  0.497970  -0.257420
    C   C21  0.600240  0.858910  0.493730  -0.363909
    C   C22  0.525210  0.897120  0.498410  0.464227
    C   C23  0.444560  0.852780  0.503410  -0.110659
    C   C24  0.439240  0.771300  0.503710  -0.088904
    C   C25  0.514580  0.732510  0.499010  -0.174974
    C   C26  0.595220  0.777480  0.494010  0.087119
    H   H9   0.623550  0.261780  0.492420  0.137183
    H   H10  0.613940  0.118500  0.492960  0.064445
    H   H11  0.337360  0.107430  0.510160  0.147861
    H   H12  0.345870  0.250770  0.509680  0.099833
    H   H13  0.662640  0.892560  0.489860  0.147835
    H   H14  0.386060  0.881490  0.507060  0.064411
    H   H15  0.376450  0.738210  0.507610  0.137178
    H   H16  0.654130  0.749220  0.490340  0.099808
    C   C27  0.500000  0.499970  0.869110  -0.395208
    C   C28  0.500010  0.500020  0.130910  -0.395105
    C   C29  0.577190  0.502950  0.930010  0.265700
    C   C30  0.422810  0.497040  0.070000  0.265165
    C   C31  0.577190  0.502970  0.060010  0.275498
    C   C32  0.422810  0.497010  0.940010  0.275829
    O   O9   0.661350  0.506170  0.854020  -0.509259
    H   H17  0.648290  0.505640  0.752880  0.332567
    O   O10  0.338650  0.493820  0.146000  -0.509369
    H   H18  0.351710  0.494350  0.247140  0.332677
    O   O11  0.661360  0.506220  0.125100  -0.495920
    H   H19  0.648310  0.505740  0.227930  0.306346
    O   O12  0.338640  0.493770  0.874910  -0.495555
    H   H20  0.351690  0.494250  0.772080  0.305739
