# Generated by REPEAT Assigner based on pymatgen
data_DB1-Zn2O8N2-AZO_A-irmof7_A_No474
_audit_creation_date              2022-05-24
_audit_creation_method            REPEAT_Assigner
_cell_length_a                    16.492400
_cell_length_b                    17.476600
_cell_length_c                    10.743800
_cell_angle_alpha                 89.850800
_cell_angle_beta                  92.286900
_cell_angle_gamma                 84.449300
_cell_volume                      3079.656768
_symmetry_space_group_name_H-M    P1
_symmetry_Int_Tables_number       1
loop_
    _symmetry_equiv_pos_site_id
    _symmetry_equiv_pos_as_xyz
    1  x,y,z
loop_
    _atom_site_type_symbol
    _atom_site_label
    _atom_site_fract_x
    _atom_site_fract_y
    _atom_site_fract_z
    _atom_type_partial_charge
    O   O1   0.589230  0.385950  0.506660  -0.427028
    O   O2   0.423760  0.392510  0.495350  -0.559505
    C   C1   0.508820  0.350200  0.501010  0.495346
    Zn  Zn1  0.600910  0.496020  0.506510  0.913804
    O   O3   0.417120  0.503300  0.674110  -0.584524
    O   O4   0.582580  0.496870  0.684880  -0.543042
    C   C2   0.499880  0.500040  0.742770  0.456025
    O   O5   0.410770  0.614070  0.493570  -0.429913
    O   O6   0.576240  0.607510  0.504410  -0.382404
    C   C3   0.491180  0.649820  0.498890  0.421281
    Zn  Zn2  0.399090  0.504000  0.493490  0.886248
    O   O7   0.582890  0.496570  0.325890  -0.569312
    O   O8   0.417410  0.503290  0.315130  -0.518557
    C   C4   0.500130  0.499720  0.257240  0.413566
    N   N1   0.280370  0.508690  0.485840  -0.056958
    C   C5   0.239230  0.461300  0.563240  -0.286445
    C   C6   0.153890  0.464810  0.557510  -0.099308
    C   C7   0.107950  0.515700  0.474400  0.206085
    C   C8   0.148480  0.562880  0.397320  0.138634
    C   C9   0.233770  0.559570  0.402740  0.319729
    N   N2   0.020460  0.520600  0.466380  -0.078019
    N   N3   0.979540  0.479420  0.533640  -0.255565
    C   C10  0.851520  0.437140  0.602700  -0.617134
    C   C11  0.892040  0.484320  0.525630  0.530731
    C   C12  0.846100  0.535210  0.442510  -0.482554
    C   C13  0.760770  0.538720  0.436790  0.621034
    N   N4   0.719630  0.491330  0.514190  -0.478328
    C   C14  0.766220  0.440450  0.597290  0.735952
    H   H1   0.273500  0.421690  0.627950  0.283418
    H   H2   0.123440  0.428010  0.617610  0.069283
    H   H3   0.886370  0.397760  0.667020  0.184008
    H   H4   0.876560  0.572010  0.382410  0.122883
    C   C15  0.513930  0.264460  0.501220  -0.252756
    C   C16  0.442650  0.225890  0.496500  -0.100517
    C   C17  0.447640  0.145360  0.496710  -0.176976
    C   C18  0.523890  0.101780  0.501660  0.217354
    C   C19  0.594870  0.139780  0.506360  0.108868
    C   C20  0.590170  0.220260  0.506160  0.397720
    N   N5   0.530980  0.019210  0.502010  -0.094403
    N   N6   0.469020  0.980810  0.497890  -0.250285
    C   C21  0.405130  0.860250  0.493540  -0.573502
    C   C22  0.476110  0.898240  0.498240  0.490109
    C   C23  0.552360  0.854660  0.503190  -0.438280
    C   C24  0.557350  0.774130  0.503400  0.548298
    C   C25  0.486070  0.735560  0.498680  -0.404992
    C   C26  0.409830  0.779760  0.493740  0.614306
    H   H5   0.383280  0.258410  0.492650  0.156369
    H   H6   0.392290  0.116810  0.493050  0.076225
    H   H7   0.346120  0.893320  0.489710  0.163263
    H   H8   0.607710  0.883210  0.506860  0.106310
    C   C27  0.500070  0.499800  0.121410  -0.085652
    C   C28  0.450290  0.452170  0.054830  0.127259
    C   C29  0.549790  0.547520  0.060570  -0.025365
    C   C30  0.401720  0.405550  0.119340  -0.405798
    C   C31  0.351370  0.357360  0.056580  0.120344
    H   H9   0.403080  0.406760  0.205850  0.258979
    C   C32  0.499950  0.499960  0.878600  -0.189052
    C   C33  0.549730  0.547590  0.945180  0.173755
    C   C34  0.450230  0.452240  0.939440  0.181352
    C   C35  0.401600  0.405710  0.869320  -0.395096
    C   C36  0.351300  0.357450  0.926280  0.082202
    H   H10  0.402870  0.407030  0.782970  0.235235
    H   H11  0.330710  0.588180  0.269520  0.288130
    H   H12  0.251230  0.672300  0.305100  0.305681
    N   N7   0.275600  0.611250  0.318330  -0.638765
    H   H13  0.044010  0.652040  0.338190  0.333341
    H   H14  0.119900  0.624020  0.210970  0.338609
    N   N8   0.099830  0.617830  0.307570  -0.805997
    H   H15  0.672530  0.358460  0.644710  0.368098
    H   H16  0.745520  0.381100  0.780730  0.369036
    N   N9   0.724400  0.388770  0.681690  -0.849483
    H   H17  0.657220  0.628560  0.376550  0.333027
    H   H18  0.733600  0.599970  0.250240  0.335792
    N   N10  0.712980  0.593960  0.346550  -0.786659
    H   H19  0.673400  0.309790  0.572810  0.252750
    H   H20  0.719520  0.237960  0.453600  0.318521
    N   N11  0.667890  0.259460  0.511310  -0.749188
    H   H21  0.688430  0.042570  0.451300  0.335862
    H   H22  0.726540  0.110740  0.576030  0.324749
    N   N12  0.677220  0.093620  0.511700  -0.804776
    H   H23  0.326400  0.689990  0.549210  0.323171
    H   H24  0.280680  0.762310  0.424170  0.331921
    N   N13  0.332110  0.740560  0.488580  -0.827900
    H   H25  0.651940  0.677790  0.448410  0.270986
    H   H26  0.689210  0.746430  0.573080  0.356535
    N   N14  0.640140  0.728780  0.508770  -0.865729
    C   C37  0.603890  0.599570  0.874330  -0.234769
    H   H27  0.588770  0.652450  0.894070  0.067116
    H   H28  0.596280  0.592210  0.786280  0.105337
    H   H29  0.660100  0.586220  0.898830  0.050679
    C   C38  0.604020  0.599410  0.137670  -0.128374
    H   H30  0.660230  0.585920  0.120300  0.080057
    H   H31  0.596310  0.592100  0.224840  0.106752
    H   H32  0.589050  0.652290  0.115550  0.016872
    C   C39  0.297500  0.305660  0.128550  -0.252697
    H   H33  0.241190  0.319100  0.104750  0.076886
    H   H34  0.305640  0.313190  0.216480  0.073453
    H   H35  0.312370  0.252730  0.108940  0.087431
    C   C40  0.297360  0.305840  0.848080  -0.186238
    H   H36  0.312420  0.252860  0.869510  0.074027
    H   H37  0.305230  0.313650  0.761080  0.033381
    H   H38  0.241090  0.319090  0.865310  0.077666
