# Generated by REPEAT Assigner based on pymatgen
data_DB1-Cu2O8N2-ADC_A-irmof7_A_No803
_audit_creation_date              2022-05-24
_audit_creation_method            REPEAT_Assigner
_cell_length_a                    15.849400
_cell_length_b                    17.521800
_cell_length_c                    10.543200
_cell_angle_alpha                 89.922000
_cell_angle_beta                  87.674800
_cell_angle_gamma                 95.290000
_cell_volume                      2913.042760
_symmetry_space_group_name_H-M    P1
_symmetry_Int_Tables_number       1
loop_
    _symmetry_equiv_pos_site_id
    _symmetry_equiv_pos_as_xyz
    1  x,y,z
loop_
    _atom_site_type_symbol
    _atom_site_label
    _atom_site_fract_x
    _atom_site_fract_y
    _atom_site_fract_z
    _atom_type_partial_charge
    Cu  Cu1  0.419400  0.497030  0.504920  1.136267
    Cu  Cu2  0.580590  0.502960  0.495090  1.113622
    O   O1   0.424830  0.497290  0.669510  -0.622568
    O   O2   0.424850  0.497400  0.339340  -0.653204
    O   O3   0.430560  0.597020  0.503930  -0.570981
    O   O4   0.419120  0.397670  0.504920  -0.605821
    O   O5   0.569430  0.402970  0.496040  -0.792051
    O   O6   0.580870  0.602320  0.495140  -0.592470
    O   O7   0.575170  0.502810  0.330370  -0.634398
    O   O8   0.575140  0.502560  0.660680  -0.558579
    C   C1   0.499990  0.499940  0.737890  0.670623
    C   C2   0.500010  0.500050  0.262130  0.753662
    C   C3   0.508240  0.643630  0.499400  0.464334
    C   C4   0.491760  0.356360  0.500620  0.635083
    N   N1   0.299620  0.492630  0.512230  -0.046344
    C   C5   0.256760  0.539950  0.433690  -0.001135
    C   C6   0.168050  0.536760  0.438980  -0.288564
    C   C7   0.119570  0.485930  0.523360  0.183221
    C   C8   0.162570  0.438730  0.601690  -0.175047
    C   C9   0.251200  0.441960  0.596340  -0.031822
    C   C10  0.024950  0.479420  0.534160  0.244999
    C   C11  0.975040  0.520580  0.465840  0.072845
    C   C12  0.837420  0.561260  0.398310  -0.238102
    C   C13  0.880430  0.514070  0.476640  0.267217
    C   C14  0.831950  0.463240  0.561020  -0.283747
    C   C15  0.743240  0.460040  0.566320  -0.059460
    N   N2   0.700380  0.507360  0.487780  -0.046789
    C   C16  0.748790  0.558040  0.403670  0.020308
    H   H1   0.292410  0.579480  0.368070  0.133732
    H   H2   0.138850  0.574380  0.376530  0.151383
    H   H3   0.127410  0.399040  0.667580  0.110482
    H   H4   0.282380  0.404860  0.657920  0.129371
    H   H5   0.872580  0.600960  0.332420  0.125064
    H   H6   0.861150  0.425610  0.623470  0.063509
    H   H7   0.707600  0.420510  0.631940  0.116331
    H   H8   0.717610  0.595130  0.342090  0.130506
    C   C17  0.486850  0.270840  0.500870  -0.081927
    C   C18  0.561060  0.232340  0.496520  -0.056947
    C   C19  0.556550  0.152120  0.496750  -0.325317
    C   C20  0.477360  0.108020  0.501370  0.264146
    C   C21  0.403350  0.146640  0.505710  -0.172936
    C   C22  0.407900  0.226790  0.505480  -0.082337
    C   C23  0.467710  0.022450  0.501910  0.096959
    C   C24  0.532320  0.977550  0.498110  0.197150
    C   C25  0.596670  0.853340  0.494300  -0.145034
    C   C26  0.522670  0.891970  0.498650  0.168608
    C   C27  0.443460  0.847870  0.503260  -0.257638
    C   C28  0.438950  0.767650  0.503500  -0.088612
    C   C29  0.513160  0.729150  0.499140  0.046997
    C   C30  0.592110  0.773200  0.494540  -0.157603
    H   H9   0.622660  0.264790  0.492930  0.016035
    H   H10  0.615530  0.125930  0.493290  0.144326
    H   H11  0.341490  0.114640  0.509320  0.104356
    H   H12  0.349730  0.254780  0.508890  0.116566
    H   H13  0.658530  0.885340  0.490690  0.098501
    H   H14  0.384490  0.874060  0.506720  0.164622
    H   H15  0.377350  0.735210  0.507090  0.096319
    H   H16  0.650270  0.745200  0.491130  0.134488
    C   C31  0.500000  0.500020  0.123720  -0.292564
    C   C32  0.551880  0.452350  0.055770  0.397579
    C   C33  0.448130  0.547660  0.061830  -0.145415
    C   C34  0.602550  0.405810  0.121400  -0.953166
    C   C35  0.655020  0.357590  0.057340  0.600016
    H   H17  0.601180  0.407090  0.209550  0.358508
    C   C36  0.500000  0.499970  0.876290  -0.260380
    C   C37  0.448130  0.547640  0.944240  -0.068659
    C   C38  0.551870  0.452330  0.938180  0.295561
    C   C39  0.602540  0.405760  0.866630  -0.874147
    C   C40  0.655020  0.357560  0.924560  0.568362
    H   H18  0.601170  0.407000  0.778640  0.328524
    H   H19  0.414290  0.578720  0.901090  0.103161
    H   H20  0.414300  0.578760  0.108940  0.127028
    H   H21  0.008780  0.364340  0.637220  0.368549
    H   H22  0.931040  0.436470  0.693400  0.431303
    N   N3   0.984700  0.421640  0.630060  -0.975710
    H   H23  0.988160  0.582560  0.275020  0.345996
    H   H24  0.072000  0.616640  0.394340  0.341569
    N   N4   0.015290  0.578360  0.369930  -0.823079
    H   H25  0.329330  0.008660  0.572230  0.357436
    H   H26  0.359650  0.935850  0.445970  0.329103
    N   N5   0.377600  0.985740  0.507160  -0.849078
    H   H27  0.670550  0.991190  0.552260  0.360287
    H   H28  0.640540  0.064260  0.429580  0.330496
    N   N6   0.622430  0.014240  0.492850  -0.881557
    O   O9   0.702010  0.314430  0.118560  -0.896534
    Li  Li1  0.716710  0.300970  0.276620  0.829369
    O   O10  0.702000  0.314380  0.857850  -0.870270
    Li  Li2  0.716690  0.300840  0.698070  0.815509
