# generated using pymatgen
data_VH2C4O7
_symmetry_space_group_name_H-M   'P 1'
_cell_length_a   6.81800000
_cell_length_b   9.69220000
_cell_length_c   17.23230000
_cell_angle_alpha   89.77990000
_cell_angle_beta   90.69160000
_cell_angle_gamma   118.13500000
_symmetry_Int_Tables_number   1
_chemical_formula_structural   VH2C4O7
_chemical_formula_sum   'V4 H8 C16 O28'
_cell_volume   1004.10540684
_cell_formula_units_Z   4
loop_
 _symmetry_equiv_pos_site_id
 _symmetry_equiv_pos_as_xyz
  1  'x, y, z'
loop_
 _atom_site_type_symbol
 _atom_site_label
 _atom_site_symmetry_multiplicity
 _atom_site_fract_x
 _atom_site_fract_y
 _atom_site_fract_z
 _atom_site_occupancy
  V  V1  1  0.00850000  0.48929000  0.49466000  1
  V  V2  1  0.52559000  0.51422000  0.50710000  1
  V  V3  1  0.83807000  0.48936000  0.99939000  1
  V  V4  1  0.35540000  0.51409000  0.99514000  1
  H  H1  1  0.11989000  0.83121000  0.49467000  1
  H  H2  1  0.85574000  0.17230000  0.50710000  1
  H  H3  1  0.89437000  0.48708000  0.66429000  1
  H  H4  1  0.42150000  0.50966000  0.83356000  1
  H  H5  1  0.40409000  0.51645000  0.33756000  1
  H  H6  1  0.89060000  0.49389000  0.16829000  1
  H  H7  1  0.94955000  0.83131000  0.99597000  1
  H  H8  1  0.68564000  0.17220000  0.99061000  1
  C  C1  1  0.24114000  0.50025000  0.64299000  1
  C  C2  1  0.73450000  0.50327000  0.35886000  1
  C  C3  1  0.54580000  0.21533000  0.50072000  1
  C  C4  1  0.42983000  0.78818000  0.50104000  1
  C  C5  1  0.25959000  0.78820000  0.99537000  1
  C  C6  1  0.37544000  0.21551000  0.00647000  1
  C  C7  1  0.56019000  0.50706000  0.14699000  1
  C  C8  1  0.07473000  0.49649000  0.85485000  1
  C  C9  1  0.43211000  0.04306000  0.49953000  1
  C  C10  1  0.54352000  0.96045000  0.50223000  1
  C  C11  1  0.07318000  0.49534000  0.76940000  1
  C  C12  1  0.24269000  0.50139000  0.72845000  1
  C  C13  1  0.56540000  0.50819000  0.23245000  1
  C  C14  1  0.72929000  0.50214000  0.27340000  1
  C  C15  1  0.26187000  0.04307000  0.99309000  1
  C  C16  1  0.37332000  0.96044000  0.99348000  1
  O  O1  1  0.21761000  0.71507000  0.49730000  1
  O  O2  1  0.07224000  0.49324000  0.60666000  1
  O  O3  1  0.41099000  0.50644000  0.61264000  1
  O  O4  1  0.43183000  0.28845000  0.50440000  1
  O  O5  1  0.89789000  0.49707000  0.38912000  1
  O  O6  1  0.75332000  0.27647000  0.49781000  1
  O  O7  1  0.55556000  0.72705000  0.50389000  1
  O  O8  1  0.57720000  0.51027000  0.39510000  1
  O  O9  1  0.78825000  0.56896000  0.53443000  1
  O  O10  1  0.19611000  0.43456000  0.46734000  1
  O  O11  1  0.90483000  0.49033000  0.88843000  1
  O  O12  1  0.04725000  0.71507000  0.99669000  1
  O  O13  1  0.38531000  0.72695000  0.99553000  1
  O  O14  1  0.40389000  0.51302000  0.10801000  1
  O  O15  1  0.58279000  0.27668000  0.01185000  1
  O  O16  1  0.72434000  0.50004000  0.11951000  1
  O  O17  1  0.24368000  0.50346000  0.88786000  1
  O  O18  1  0.26155000  0.28840000  0.99975000  1
  O  O19  1  0.61876000  0.56815000  0.97133000  1
  O  O20  1  0.02489000  0.43540000  0.03066000  1
  O  O21  1  0.18113000  0.95956000  0.49509000  1
  O  O22  1  0.79449000  0.04395000  0.50667000  1
  O  O23  1  0.87146000  0.48700000  0.72795000  1
  O  O24  1  0.44441000  0.50974000  0.76989000  1
  O  O25  1  0.37739000  0.51653000  0.27390000  1
  O  O26  1  0.91730000  0.49380000  0.23195000  1
  O  O27  1  0.01081000  0.95964000  0.99463000  1
  O  O28  1  0.62438000  0.04387000  0.99195000  1
