data_DB1-Cu2O8-ADC_A-DPAC_A_No1311_repeat
_audit_creation_date              2024-02-20
_audit_creation_method            'Materials Studio'
_symmetry_space_group_name_H-M    'P1'
_symmetry_Int_Tables_number       1
_symmetry_cell_setting            triclinic
loop_
_symmetry_equiv_pos_as_xyz
  x,y,z
_cell_length_a                    17.3722
_cell_length_b                    34.9964
_cell_length_c                    10.0000
_cell_angle_alpha                 90.0000
_cell_angle_beta                  90.0000
_cell_angle_gamma                 90.0963
loop_
_atom_site_label
_atom_site_type_symbol
_atom_site_fract_x
_atom_site_fract_y
_atom_site_fract_z
_atom_site_U_iso_or_equiv
_atom_site_adp_type
_atom_site_occupancy
Cu1    Cu    0.49999   0.50000   0.62726   0.00000  Uiso   1.00
Cu2    Cu    0.50001   0.50000   0.37274   0.00000  Uiso   1.00
O1     O     0.60008   0.49998   0.61870   0.00000  Uiso   1.00
O2     O     0.39971   0.49992   0.61866   0.00000  Uiso   1.00
O3     O     0.49978   0.45021   0.61868   0.00000  Uiso   1.00
O4     O     0.50001   0.54968   0.61868   0.00000  Uiso   1.00
O5     O     0.50020   0.54979   0.38132   0.00000  Uiso   1.00
O6     O     0.50003   0.45032   0.38132   0.00000  Uiso   1.00
O7     O     0.39984   0.49997   0.38130   0.00000  Uiso   1.00
O8     O     0.60030   0.50010   0.38134   0.00000  Uiso   1.00
C1     C     0.64437   0.50003   0.50002   0.00000  Uiso   1.00
C2     C     0.35564   0.49997   0.49997   0.00000  Uiso   1.00
C3     C     0.49990   0.42834   0.49999   0.00000  Uiso   1.00
C4     C     0.50011   0.57167   0.50000   0.00000  Uiso   1.00
Cu3    Cu    0.50031  -0.00000   0.28188   0.00000  Uiso   1.00
Cu4    Cu    0.49991   0.00001   0.53639   0.00000  Uiso   1.00
O9     O     0.60038   0.00019   0.29092   0.00000  Uiso   1.00
O10    O     0.40001   0.99992   0.28999   0.00000  Uiso   1.00
O11    O     0.50009   0.04979   0.29044   0.00000  Uiso   1.00
O12    O     0.50030   0.95032   0.29047   0.00000  Uiso   1.00
O13    O     0.50011   0.95021   0.52783   0.00000  Uiso   1.00
O14    O     0.49995   0.04968   0.52780   0.00000  Uiso   1.00
O15    O     0.39976   0.99987   0.52734   0.00000  Uiso   1.00
O16    O     0.60022   0.00007   0.52828   0.00000  Uiso   1.00
C5     C     0.64448   0.00021   0.40982   0.00000  Uiso   1.00
C6     C     0.35574   0.99980   0.40846   0.00000  Uiso   1.00
C7     C     0.50002   0.07167   0.40912   0.00000  Uiso   1.00
C8     C     0.50021   0.92834   0.40915   0.00000  Uiso   1.00
C9     C     0.50020   0.88566   0.40916   0.00000  Uiso   1.00
C10    C     0.50010   0.86506   0.53008   0.00000  Uiso   1.00
C11    C     0.50010   0.82503   0.53024   0.00000  Uiso   1.00
C12    C     0.50020   0.80443   0.40893   0.00000  Uiso   1.00
C13    C     0.50030   0.82510   0.28832   0.00000  Uiso   1.00
C14    C     0.50030   0.86509   0.28824   0.00000  Uiso   1.00
C15    C     0.50020   0.76182   0.40144   0.00000  Uiso   1.00
C16    C     0.50011   0.73818   0.50777   0.00000  Uiso   1.00
C17    C     0.50002   0.67490   0.62087   0.00000  Uiso   1.00
C18    C     0.50012   0.69557   0.50026   0.00000  Uiso   1.00
C19    C     0.50021   0.67498   0.37894   0.00000  Uiso   1.00
C20    C     0.50021   0.63495   0.37910   0.00000  Uiso   1.00
C21    C     0.50011   0.61434   0.50001   0.00000  Uiso   1.00
C22    C     0.50001   0.63491   0.62094   0.00000  Uiso   1.00
H1     H     0.50003   0.88015   0.62461   0.00000  Uiso   1.00
H2     H     0.50002   0.81085   0.62594   0.00000  Uiso   1.00
H3     H     0.50037   0.81024   0.19334   0.00000  Uiso   1.00
H4     H     0.49994   0.68976   0.71585   0.00000  Uiso   1.00
H5     H     0.50029   0.68916   0.28324   0.00000  Uiso   1.00
H6     H     0.50028   0.61986   0.28456   0.00000  Uiso   1.00
H7     H     0.50028   0.74990   0.30204   0.00000  Uiso   1.00
H8     H     0.50003   0.75010   0.60716   0.00000  Uiso   1.00
C23    C     0.50002   0.11434   0.40913   0.00000  Uiso   1.00
C24    C     0.49989   0.13495   0.53004   0.00000  Uiso   1.00
C25    C     0.49989   0.17498   0.53022   0.00000  Uiso   1.00
C26    C     0.50001   0.19557   0.40890   0.00000  Uiso   1.00
C27    C     0.50014   0.17491   0.28829   0.00000  Uiso   1.00
C28    C     0.50014   0.13492   0.28821   0.00000  Uiso   1.00
C29    C     0.50002   0.23818   0.40142   0.00000  Uiso   1.00
C30    C     0.49991   0.26182   0.50774   0.00000  Uiso   1.00
C31    C     0.49979   0.32510   0.62085   0.00000  Uiso   1.00
C32    C     0.49991   0.30443   0.50024   0.00000  Uiso   1.00
C33    C     0.50004   0.32503   0.37892   0.00000  Uiso   1.00
C34    C     0.50003   0.36505   0.37909   0.00000  Uiso   1.00
C35    C     0.49991   0.38566   0.50000   0.00000  Uiso   1.00
C36    C     0.49978   0.36509   0.62092   0.00000  Uiso   1.00
H9     H     0.49980   0.11985   0.62458   0.00000  Uiso   1.00
H10    H     0.49979   0.18916   0.62591   0.00000  Uiso   1.00
H11    H     0.50024   0.18977   0.19331   0.00000  Uiso   1.00
H12    H     0.49969   0.31024   0.71584   0.00000  Uiso   1.00
H13    H     0.50014   0.31085   0.28322   0.00000  Uiso   1.00
H14    H     0.50013   0.38015   0.28455   0.00000  Uiso   1.00
H15    H     0.50012   0.25010   0.30202   0.00000  Uiso   1.00
H16    H     0.49981   0.24990   0.60714   0.00000  Uiso   1.00
C37    C     0.27407   0.49997   0.49998   0.00000  Uiso   1.00
C38    C     0.23168   0.49992   0.62133   0.00000  Uiso   1.00
C39    C     0.15062   0.49993   0.62170   0.00000  Uiso   1.00
C40    C     0.10954   0.49998   0.50001   0.00000  Uiso   1.00
C41    C     0.15061   0.50004   0.37830   0.00000  Uiso   1.00
C42    C     0.23167   0.50003   0.37865   0.00000  Uiso   1.00
C43    C     0.03442   0.49999   0.50002   0.00000  Uiso   1.00
C44    C     0.96559   0.50000   0.50003   0.00000  Uiso   1.00
C45    C     0.89047   0.50000   0.50003   0.00000  Uiso   1.00
C46    C     0.84939   0.49994   0.62173   0.00000  Uiso   1.00
C47    C     0.76833   0.49995   0.62137   0.00000  Uiso   1.00
C48    C     0.72594   0.50002   0.50003   0.00000  Uiso   1.00
C49    C     0.76834   0.50008   0.37869   0.00000  Uiso   1.00
C50    C     0.84939   0.50007   0.37833   0.00000  Uiso   1.00
H17    H     0.25981   0.49988   0.71128   0.00000  Uiso   1.00
H18    H     0.25979   0.50007   0.28869   0.00000  Uiso   1.00
H19    H     0.74020   0.49990   0.71132   0.00000  Uiso   1.00
H20    H     0.74021   0.50013   0.28873   0.00000  Uiso   1.00
C51    C     0.27417   0.00129   0.41293   0.00000  Uiso   1.00
C52    C     0.23198   0.00127   0.29138   0.00000  Uiso   1.00
C53    C     0.15092   0.00114   0.29061   0.00000  Uiso   1.00
C54    C     0.10965   0.00102   0.41210   0.00000  Uiso   1.00
C55    C     0.15052   0.00103   0.53401   0.00000  Uiso   1.00
C56    C     0.23158   0.00117   0.53405   0.00000  Uiso   1.00
C57    C     0.03453   0.00089   0.41172   0.00000  Uiso   1.00
C58    C     0.96570   0.00077   0.41137   0.00000  Uiso   1.00
C59    C     0.89058   0.00064   0.41101   0.00000  Uiso   1.00
C60    C     0.84970   0.00063   0.28911   0.00000  Uiso   1.00
C61    C     0.76864   0.00049   0.28908   0.00000  Uiso   1.00
C62    C     0.72605   0.00035   0.41021   0.00000  Uiso   1.00
C63    C     0.76825   0.00037   0.53176   0.00000  Uiso   1.00
C64    C     0.84930   0.00051   0.53251   0.00000  Uiso   1.00
H21    H     0.26026   0.00136   0.20157   0.00000  Uiso   1.00
H22    H     0.25956   0.00118   0.62415   0.00000  Uiso   1.00
H23    H     0.74065   0.00049   0.19899   0.00000  Uiso   1.00
H24    H     0.73997   0.00027   0.62157   0.00000  Uiso   1.00
O17    O     0.50039   0.88315   0.17486   0.00000  Uiso   1.00
Li1    Li    0.50052   0.86815   0.01201   0.00000  Uiso   1.00
O18    O     0.49992   0.61685   0.73431   0.00000  Uiso   1.00
Li2    Li    0.49979   0.63185   0.89717   0.00000  Uiso   1.00
O19    O     0.50026   0.11686   0.17482   0.00000  Uiso   1.00
Li3    Li    0.50043   0.13186   0.01198   0.00000  Uiso   1.00
O20    O     0.49967   0.38315   0.73430   0.00000  Uiso   1.00
Li4    Li    0.49950   0.36815   0.89715   0.00000  Uiso   1.00
C65    C     0.10847   0.50010   0.24530   0.00000  Uiso   1.00
O21    O     0.04002   0.48341   0.23564   0.00000  Uiso   1.00
O22    O     0.13874   0.51471   0.14633   0.00000  Uiso   1.00
H25    H     0.02134   0.47733   0.32937   0.00000  Uiso   1.00
C66    C     0.10850   0.49987   0.75472   0.00000  Uiso   1.00
O23    O     0.04017   0.51656   0.76439   0.00000  Uiso   1.00
O24    O     0.13867   0.48525   0.85367   0.00000  Uiso   1.00
H26    H     0.02152   0.52265   0.67067   0.00000  Uiso   1.00
C67    C     0.89153   0.50014   0.24532   0.00000  Uiso   1.00
O25    O     0.95998   0.51683   0.23586   0.00000  Uiso   1.00
O26    O     0.86125   0.48562   0.14618   0.00000  Uiso   1.00
H27    H     0.97866   0.52282   0.32965   0.00000  Uiso   1.00
C68    C     0.89152   0.49986   0.75474   0.00000  Uiso   1.00
O27    O     0.95985   0.48316   0.76420   0.00000  Uiso   1.00
O28    O     0.86136   0.51438   0.85388   0.00000  Uiso   1.00
H28    H     0.97849   0.47716   0.67040   0.00000  Uiso   1.00
C69    C     0.10817   0.00091   0.66681   0.00000  Uiso   1.00
O29    O     0.03970   0.01748   0.67612   0.00000  Uiso   1.00
O30    O     0.13827   0.98634   0.76593   0.00000  Uiso   1.00
H29    H     0.02117   0.02353   0.58230   0.00000  Uiso   1.00
C70    C     0.10901   0.00112   0.15739   0.00000  Uiso   1.00
O31    O     0.04070   0.98432   0.14739   0.00000  Uiso   1.00
O32    O     0.13935   0.01579   0.05857   0.00000  Uiso   1.00
H30    H     0.02190   0.97820   0.24101   0.00000  Uiso   1.00
C71    C     0.89122   0.00051   0.66573   0.00000  Uiso   1.00
O33    O     0.95965   0.98393   0.67553   0.00000  Uiso   1.00
O34    O     0.86078   0.01498   0.76471   0.00000  Uiso   1.00
H31    H     0.97849   0.97797   0.58183   0.00000  Uiso   1.00
C72    C     0.89204   0.00078   0.15631   0.00000  Uiso   1.00
O35    O     0.96038   0.01759   0.14718   0.00000  Uiso   1.00
O36    O     0.86203   0.98620   0.05703   0.00000  Uiso   1.00
H32    H     0.97887   0.02362   0.24106   0.00000  Uiso   1.00
