# Generated by REPEAT Assigner based on pymatgen
data_DB1-Cu2N8-AZO_B-irmof7_B_No543
_audit_creation_date              2022-05-24
_audit_creation_method            REPEAT_Assigner
_cell_length_a                    13.291300
_cell_length_b                    19.686400
_cell_length_c                    7.052800
_cell_angle_alpha                 82.558800
_cell_angle_beta                  105.386000
_cell_angle_gamma                 67.225000
_cell_volume                      1583.594835
_symmetry_space_group_name_H-M    P1
_symmetry_Int_Tables_number       1
loop_
    _symmetry_equiv_pos_site_id
    _symmetry_equiv_pos_as_xyz
    1  x,y,z
loop_
    _atom_site_type_symbol
    _atom_site_label
    _atom_site_fract_x
    _atom_site_fract_y
    _atom_site_fract_z
    _atom_type_partial_charge
    Cu  Cu1  0.500000  0.500000  0.000000  0.280184
    Cu  Cu2  0.500000  0.500000  0.500000  0.291769
    N   N1   0.630630  0.499330  0.221750  0.112113
    N   N2   0.726590  0.500220  0.206110  -0.472060
    N   N3   0.500960  0.414260  0.375280  -0.037443
    N   N4   0.499570  0.351280  0.460650  -0.299287
    N   N5   0.369380  0.500670  0.590650  0.052327
    N   N6   0.273410  0.499780  0.479690  -0.540735
    N   N7   0.499040  0.585740  0.812330  -0.013298
    N   N8   0.500430  0.648720  0.853550  -0.473329
    N   N9   0.369380  0.500670  0.778250  0.038079
    N   N10  0.273410  0.499780  0.793890  -0.454999
    N   N11  0.499040  0.585740  0.624730  0.118120
    N   N12  0.500430  0.648720  0.539350  -0.651040
    N   N13  0.630630  0.499330  0.409350  0.096832
    N   N14  0.726590  0.500220  0.520310  -0.524322
    N   N15  0.500960  0.414260  0.187680  0.033169
    N   N16  0.499570  0.351280  0.146450  -0.417409
    C   C1   0.784230  0.500170  0.392050  0.657627
    C   C2   0.499620  0.313440  0.317250  0.722304
    C   C3   0.215770  0.499830  0.607950  0.758219
    C   C4   0.500380  0.686560  0.682750  0.980006
    C   C5   0.499710  0.236950  0.344940  -0.465736
    C   C6   0.499760  0.200000  0.530090  0.155081
    C   C7   0.499840  0.128160  0.555640  0.193668
    C   C8   0.499890  0.091820  0.396830  -0.105952
    C   C9   0.499840  0.128260  0.212650  0.087683
    C   C10  0.499760  0.200060  0.186450  0.270503
    N   N17  0.499980  0.018240  0.418400  -0.017777
    N   N18  0.500020  0.981760  0.581600  -0.018381
    C   C11  0.500160  0.871740  0.787360  0.086444
    C   C12  0.500110  0.908180  0.603170  -0.134074
    C   C13  0.500160  0.871840  0.444360  0.145092
    C   C14  0.500240  0.800010  0.469910  0.233945
    C   C15  0.500290  0.763040  0.655060  -0.637826
    C   C16  0.500250  0.799940  0.813550  0.271331
    C   C17  0.101840  0.499920  0.550950  -0.320702
    C   C18  0.015290  0.549370  0.612540  0.302446
    C   C19  0.081500  0.450550  0.435880  -0.039024
    C   C20  0.039420  0.597580  0.727070  -0.682993
    C   C21  0.955720  0.647600  0.791300  0.607345
    H   H1   0.112790  0.596220  0.761010  0.185084
    C   C22  0.898170  0.500080  0.449050  -0.267921
    C   C23  0.984710  0.450630  0.387460  0.014537
    C   C24  0.918500  0.549450  0.564120  0.212324
    C   C25  0.829700  0.597750  0.622150  -0.753740
    C   C26  0.846420  0.647690  0.736620  0.382148
    H   H2   0.758080  0.596510  0.583550  0.483024
    H   H3   0.969150  0.418440  0.311260  0.055967
    H   H4   0.140250  0.418300  0.396860  0.092965
    H   H5   0.442610  0.299600  0.914890  0.341347
    H   H6   0.556770  0.203770  0.909430  0.311477
    N   N19  0.499710  0.237810  0.985880  -0.675697
    H   H7   0.556990  0.027970  0.072800  0.274837
    H   H8   0.442830  0.123440  0.882270  0.343081
    N   N20  0.499890  0.089830  0.040720  -0.654372
    H   H9   0.556690  0.266500  0.741700  0.189504
    H   H10  0.442690  0.236580  0.792560  0.234651
    N   N21  0.499710  0.237690  0.703420  -0.483689
    H   H11  0.442910  0.060950  0.756470  0.283758
    H   H12  0.556910  0.090540  0.901470  0.291787
    N   N22  0.499890  0.089830  0.755510  -0.705817
    H   H13  0.557100  0.939060  0.996160  0.214978
    H   H14  0.443090  0.909520  0.048770  0.317607
    N   N23  0.500110  0.910170  0.959280  -0.623982
    H   H15  0.443310  0.733370  0.016150  0.196385
    H   H16  0.557310  0.763260  0.159530  0.163446
    N   N24  0.500290  0.762190  0.014120  -0.489152
    H   H17  0.443010  0.972020  0.174570  0.291923
    H   H18  0.557170  0.876500  0.167490  0.297223
    N   N25  0.500110  0.910170  0.244490  -0.700426
    H   H19  0.557390  0.700530  0.327260  0.311797
    H   H20  0.443230  0.796380  0.138480  0.225062
    N   N26  0.500290  0.762310  0.296580  -0.497146
    O   O1   0.978390  0.692320  0.897660  -1.043467
    Li  Li1  0.099820  0.706210  0.988130  0.898027
    O   O2   0.763780  0.692490  0.790300  -0.701708
    Li  Li2  0.755370  0.758940  0.927220  0.796278
