# Generated by REPEAT Assigner based on pymatgen
data_DB1-Zn2O8-AZO_A-irmof6_A_No169
_audit_creation_date              2022-05-24
_audit_creation_method            REPEAT_Assigner
_cell_length_a                    11.004900
_cell_length_b                    36.559400
_cell_length_c                    10.000000
_cell_angle_alpha                 90.000000
_cell_angle_beta                  90.000000
_cell_angle_gamma                 107.337000
_cell_volume                      3840.539960
_symmetry_space_group_name_H-M    P1
_symmetry_Int_Tables_number       1
loop_
    _symmetry_equiv_pos_site_id
    _symmetry_equiv_pos_as_xyz
    1  x,y,z
loop_
    _atom_site_type_symbol
    _atom_site_label
    _atom_site_fract_x
    _atom_site_fract_y
    _atom_site_fract_z
    _atom_type_partial_charge
    O   O1    0.325020  0.500340  0.635800  -0.456467
    O   O2    0.324820  0.499970  0.363990  -0.557222
    C   C1    0.263120  0.500100  0.499920  0.198769
    Zn  Zn1   0.500040  0.500110  0.665770  1.185734
    O   O3    0.555070  0.555160  0.363800  -0.395313
    O   O4    0.555290  0.555370  0.635620  -0.419502
    C   C2    0.574520  0.574740  0.499740  0.006482
    O   O5    0.675090  0.499730  0.364200  -0.556897
    O   O6    0.675150  0.499960  0.636010  -0.457382
    C   C3    0.736890  0.499870  0.500080  0.200336
    Zn  Zn2   0.500000  0.499890  0.334230  1.199631
    O   O7    0.444730  0.444840  0.636200  -0.422926
    O   O8    0.444960  0.444640  0.364380  -0.392196
    C   C4    0.425110  0.425260  0.500260  0.006650
    O   O9    0.820960  0.999790  0.266560  -0.455702
    O   O10   0.821530  0.000160  0.538360  -0.557482
    C   C5    0.759590  0.000070  0.402440  0.195422
    Zn  Zn3   0.996330  0.999910  0.236570  1.184794
    O   O11   0.942050  0.944860  0.538530  -0.394960
    O   O12   0.941840  0.944660  0.266720  -0.419619
    C   C6    0.922600  0.925280  0.402590  0.010855
    O   O13   0.172050  0.000180  0.538120  -0.555857
    O   O14   0.171620  0.999950  0.266310  -0.455581
    C   C7    0.233520  0.000000  0.402220  0.192622
    Zn  Zn4   0.996750  0.000130  0.568100  1.199781
    O   O15   0.050770  0.055180  0.266140  -0.423752
    O   O16   0.051450  0.055380  0.537950  -0.394410
    C   C8    0.070050  0.074760  0.402070  0.017768
    C   C9    0.880130  0.882510  0.402520  0.533889
    C   C10   0.859600  0.861830  0.523640  -0.199455
    C   C11   0.819720  0.821660  0.523250  -0.012202
    C   C12   0.799550  0.801360  0.401930  0.426017
    C   C13   0.819790  0.821750  0.281370  -0.269270
    C   C14   0.859660  0.861900  0.281290  -0.080338
    N   N1    0.758690  0.760220  0.398290  -0.149040
    N   N2    0.738430  0.739800  0.504050  -0.152888
    C   C15   0.677330  0.678270  0.620970  -0.278500
    C   C16   0.697570  0.698660  0.500410  0.435553
    C   C17   0.677410  0.678360  0.379080  -0.018993
    C   C18   0.637520  0.638190  0.378700  -0.198641
    C   C19   0.616990  0.617510  0.499810  0.536431
    C   C20   0.637460  0.638120  0.621040  -0.074478
    C   C21   0.113400  0.117520  0.402130  0.516039
    C   C22   0.134130  0.138180  0.523300  -0.186874
    C   C23   0.174830  0.178340  0.523040  -0.022205
    C   C24   0.195630  0.198670  0.401780  0.438457
    C   C25   0.175200  0.178310  0.281150  -0.287354
    C   C26   0.134510  0.138170  0.280960  -0.060137
    N   N3    0.237340  0.239820  0.398260  -0.152071
    N   N4    0.257820  0.260200  0.504080  -0.147628
    C   C27   0.319960  0.321710  0.621180  -0.278236
    C   C28   0.299530  0.301350  0.500560  0.429191
    C   C29   0.320330  0.321680  0.379300  -0.012304
    C   C30   0.361030  0.361840  0.379030  -0.203971
    C   C31   0.381760  0.382500  0.500210  0.539035
    C   C32   0.360650  0.361850  0.621380  -0.074370
    C   C33   0.132740  0.500040  0.499960  0.430033
    C   C34   0.867270  0.499930  0.500040  0.425145
    C   C35   0.066140  0.499920  0.394360  -0.145806
    C   C36   0.933870  0.500050  0.605640  -0.108647
    C   C37   0.933640  0.499870  0.394410  -0.140228
    C   C38   0.066370  0.500100  0.605600  -0.113020
    C   C39   0.063150  0.499800  0.244160  -0.000516
    C   C40   0.936300  0.499740  0.244200  -0.006495
    H   H1    0.083130  0.474640  0.200230  0.051437
    H   H2    0.133300  0.524900  0.200520  0.046127
    H   H3    0.916210  0.524830  0.199780  0.053123
    H   H4    0.866060  0.474560  0.201110  0.047029
    C   C41   0.628790  0.999600  0.402300  0.433339
    C   C42   0.363710  0.999870  0.402250  0.436538
    C   C43   0.562480  0.999750  0.507910  -0.143536
    C   C44   0.430030  0.999710  0.296640  -0.114405
    C   C45   0.430170  0.999890  0.507880  -0.146537
    C   C46   0.562330  0.999570  0.296670  -0.113553
    C   C47   0.559770  0.999880  0.658110  -0.004526
    C   C48   0.433090  0.000010  0.658090  -0.004894
    H   H5    0.629690  0.025010  0.702040  0.046080
    H   H6    0.580030  0.974750  0.701740  0.054258
    H   H7    0.363220  0.974960  0.702510  0.045981
    H   H8    0.412890  0.025220  0.701180  0.054419
    Cl  Cl1   0.884100  0.886520  0.127690  -0.013931
    Cl  Cl2   0.794930  0.796720  0.128560  0.071544
    Cl  Cl3   0.883990  0.886380  0.677380  0.007573
    Cl  Cl4   0.794900  0.796660  0.676100  -0.085557
    Cl  Cl5   0.702190  0.703300  0.773770  0.073037
    Cl  Cl6   0.613020  0.613500  0.774650  -0.014860
    Cl  Cl7   0.702220  0.703360  0.226230  -0.085097
    Cl  Cl8   0.613140  0.613640  0.224950  0.008958
    Cl  Cl9   0.109850  0.113580  0.127280  -0.017445
    Cl  Cl10  0.200850  0.203370  0.128430  0.074634
    Cl  Cl11  0.108960  0.113590  0.676980  0.007094
    Cl  Cl12  0.199880  0.203300  0.675960  -0.086934
    Cl  Cl13  0.294310  0.296650  0.773910  0.073684
    Cl  Cl14  0.385310  0.386440  0.775050  -0.015164
    Cl  Cl15  0.295280  0.296720  0.226370  -0.086467
    Cl  Cl16  0.386200  0.386430  0.225360  0.009440
    Cl  Cl17  0.866810  0.500160  0.765360  -0.070996
    Cl  Cl18  0.133760  0.500240  0.765280  -0.070068
    Cl  Cl19  0.362760  0.999640  0.136930  -0.069770
    Cl  Cl20  0.629400  0.999400  0.136980  -0.070254
