# Generated by REPEAT Assigner based on pymatgen
data_DB1-Cu2O8N2-irmof20_A-irmof6_A_No149
_audit_creation_date              2022-05-24
_audit_creation_method            REPEAT_Assigner
_cell_length_a                    12.501100
_cell_length_b                    23.305700
_cell_length_c                    10.828700
_cell_angle_alpha                 89.999300
_cell_angle_beta                  89.999100
_cell_angle_gamma                 89.884900
_cell_volume                      3154.901661
_symmetry_space_group_name_H-M    P1
_symmetry_Int_Tables_number       1
loop_
    _symmetry_equiv_pos_site_id
    _symmetry_equiv_pos_as_xyz
    1  x,y,z
loop_
    _atom_site_type_symbol
    _atom_site_label
    _atom_site_fract_x
    _atom_site_fract_y
    _atom_site_fract_z
    _atom_type_partial_charge
    Cu  Cu1  0.499990  0.500000  0.382480  0.838084
    Cu  Cu2  0.499990  0.500010  0.617520  0.869356
    O   O1   0.499980  0.574610  0.390400  -0.519962
    O   O2   0.500320  0.425250  0.390410  -0.523352
    O   O3   0.639380  0.499860  0.390400  -0.413285
    O   O4   0.360920  0.499990  0.390410  -0.483924
    O   O5   0.360610  0.500130  0.609600  -0.478232
    O   O6   0.639070  0.500030  0.609590  -0.531810
    O   O7   0.500150  0.425330  0.609600  -0.326956
    O   O8   0.499630  0.574760  0.609590  -0.540809
    C   C1   0.499790  0.607620  0.500000  0.808808
    C   C2   0.500200  0.392390  0.500010  0.411448
    C   C3   0.700620  0.499960  0.500000  0.484117
    C   C4   0.299370  0.500050  0.500010  0.520428
    Cu  Cu3  0.499360  0.963610  0.617560  0.825674
    Cu  Cu4  0.500110  0.963610  0.382520  1.103990
    O   O9   0.499460  0.889000  0.609640  -0.495408
    O   O10  0.499630  0.038370  0.609630  -0.567700
    O   O11  0.638770  0.963500  0.610230  -0.391953
    O   O12  0.360310  0.963880  0.609040  -0.490429
    O   O13  0.360700  0.963740  0.389850  -0.541753
    O   O14  0.639160  0.963320  0.391040  -0.464541
    O   O15  0.500170  0.038280  0.390440  -0.591789
    O   O16  0.499810  0.888850  0.390440  -0.604299
    C   C5   0.499650  0.856000  0.500040  0.689395
    C   C6   0.499820  0.071220  0.500030  0.569212
    C   C7   0.700360  0.963290  0.500890  0.412022
    C   C8   0.299120  0.963930  0.499180  0.552655
    C   C9   0.439920  0.532210  0.872250  0.039381
    S   S1   0.586690  0.453530  0.866540  0.247343
    C   C10  0.560070  0.467800  0.127750  -0.008659
    H   H1   0.610320  0.440860  0.153620  0.179948
    S   S2   0.413300  0.546480  0.133460  0.114933
    N   N1   0.499990  0.500000  0.792180  -0.140493
    N   N2   0.499990  0.500000  0.207820  -0.053755
    C   C11  0.538700  0.479250  0.000000  0.002977
    C   C12  0.461290  0.520760  0.000000  -0.146360
    C   C13  0.889340  0.499910  0.402050  -0.180081
    S   S3   0.884380  0.500100  0.641360  0.055901
    C   C14  0.110650  0.500100  0.597960  -0.264696
    H   H2   0.133060  0.500170  0.679900  0.233545
    S   S4   0.115600  0.499910  0.358640  0.033472
    C   C15  0.819980  0.499980  0.500000  -0.099061
    C   C16  0.180010  0.500030  0.500000  -0.071016
    C   C17  0.999990  0.500060  0.563120  0.158492
    C   C18  -0.000000  0.499960  0.436880  -0.004567
    C   C19  0.499690  0.794460  0.500030  -0.123718
    C   C20  0.499750  0.669160  0.500010  -0.549839
    C   C21  0.499860  0.763080  0.402490  -0.003041
    C   C22  0.499580  0.700530  0.597550  0.678136
    C   C23  0.499890  0.700540  0.402480  0.225842
    C   C24  0.499550  0.763070  0.597560  -0.304145
    C   C25  0.500080  0.761750  0.263780  0.087436
    C   C26  0.500120  0.701880  0.263770  -0.233459
    H   H3   0.499340  0.782670  0.688640  0.114115
    H   H4   0.429950  0.782970  0.222840  0.045620
    H   H5   0.570270  0.783130  0.223880  -0.008372
    H   H6   0.570380  0.680660  0.223120  0.073139
    H   H7   0.430060  0.680500  0.223570  0.058173
    C   C27  0.500010  0.291160  0.597970  -0.200353
    S   S5   0.500190  0.293810  0.358650  0.065751
    C   C28  0.500020  0.172450  0.402070  -0.209201
    H   H8   0.500060  0.160430  0.320130  0.183977
    S   S6   0.499830  0.169800  0.641390  0.039857
    C   C29  0.500120  0.328370  0.500010  -0.083424
    C   C30  0.499900  0.135250  0.500030  -0.123740
    C   C31  0.500060  0.231810  0.436900  0.120800
    C   C32  0.499960  0.231810  0.563140  0.000911
    C   C33  0.440900  0.931510  0.127530  0.105762
    S   S7   0.587560  0.009930  0.133870  0.173650
    C   C34  0.561790  0.995700  0.872550  -0.037143
    H   H9   0.612100  0.022550  0.846890  0.190692
    S   S8   0.415130  0.917290  0.866210  0.128533
    N   N3   0.500680  0.963610  0.207860  -0.227301
    N   N4   0.502010  0.963610  0.792230  -0.057333
    C   C35  0.540030  0.984290  0.000210  0.042954
    C   C36  0.462660  0.942930  0.999880  -0.156320
    C   C37  0.888770  0.962990  0.599640  -0.167276
    S   S9   0.884580  0.962810  0.360310  0.063864
    C   C38  0.110700  0.962390  0.404680  -0.251089
    H   H10  0.133370  0.962280  0.322830  0.217935
    S   S10  0.114890  0.962570  0.644010  0.037793
    C   C39  0.819720  0.963050  0.501400  -0.097372
    C   C40  0.179750  0.962330  0.502920  -0.090284
    C   C41  0.999940  0.962640  0.439040  0.145122
    C   C42  0.999530  0.962740  0.565280  -0.002841
    C   C43  0.357930  0.576170  0.830040  0.561010
    O   O17  0.338510  0.621980  0.899380  -0.475287
    O   O18  0.311900  0.569930  0.730400  -0.393246
    H   H11  0.373820  0.615870  0.982690  0.348299
    C   C44  0.852780  0.499800  0.268350  0.677453
    O   O19  0.912950  0.474680  0.182970  -0.480750
    O   O20  0.766370  0.521650  0.240210  -0.471742
    H   H12  0.985160  0.465640  0.221110  0.304010
    C   C45  0.499930  0.310780  0.731660  0.665077
    O   O21  0.546560  0.278490  0.817190  -0.463931
    O   O22  0.459160  0.357130  0.759680  -0.478344
    H   H13  0.563460  0.239760  0.779100  0.297200
    C   C46  0.358820  0.887700  0.169400  0.494965
    O   O23  0.339670  0.841920  0.099970  -0.433298
    O   O24  0.312470  0.894030  0.268840  -0.347890
    H   H14  0.375250  0.847970  0.016810  0.318832
    C   C47  0.851780  0.963170  0.733180  0.660777
    O   O25  0.911650  0.988180  0.818820  -0.464213
    O   O26  0.765300  0.941470  0.760960  -0.463871
    H   H15  0.983960  0.997080  0.780990  0.289977
    H   H16  0.446930  0.635980  0.743200  0.409128
    H   H17  0.551770  0.690600  0.797960  0.351548
    N   N5   0.499410  0.673300  0.724080  -0.995807
