data_DB1-Zn2O8-ADC_A-irmof7_A_No1250_repeat
_audit_creation_date              2024-02-24
_audit_creation_method            'Materials Studio'
_symmetry_space_group_name_H-M    'P1'
_symmetry_Int_Tables_number       1
_symmetry_cell_setting            triclinic
loop_
_symmetry_equiv_pos_as_xyz
  x,y,z
_cell_length_a                    10.7435
_cell_length_b                    36.9595
_cell_length_c                    10.0000
_cell_angle_alpha                 90.0000
_cell_angle_beta                  90.0000
_cell_angle_gamma                 106.7180
loop_
_atom_site_label
_atom_site_type_symbol
_atom_site_fract_x
_atom_site_fract_y
_atom_site_fract_z
_atom_site_U_iso_or_equiv
_atom_site_adp_type
_atom_site_occupancy
O1     O     0.32074   0.50033   0.63580   0.00000  Uiso   1.00
O2     O     0.32056   0.49996   0.36399   0.00000  Uiso   1.00
C1     C     0.25734   0.50009   0.49992   0.00000  Uiso   1.00
Zn1    Zn    0.50003   0.50011   0.66577   0.00000  Uiso   1.00
O3     O     0.55428   0.55438   0.36380   0.00000  Uiso   1.00
O4     O     0.55450   0.55458   0.63562   0.00000  Uiso   1.00
C2     C     0.57345   0.57369   0.49974   0.00000  Uiso   1.00
O5     O     0.67936   0.49974   0.36420   0.00000  Uiso   1.00
O6     O     0.67941   0.49997   0.63601   0.00000  Uiso   1.00
C3     C     0.74266   0.49988   0.50008   0.00000  Uiso   1.00
Zn2    Zn    0.50000   0.49989   0.33423   0.00000  Uiso   1.00
O7     O     0.44550   0.44562   0.63620   0.00000  Uiso   1.00
O8     O     0.44575   0.44542   0.36438   0.00000  Uiso   1.00
C4     C     0.42616   0.42632   0.50026   0.00000  Uiso   1.00
O9     O     0.81652   0.99978   0.27342   0.00000  Uiso   1.00
O10    O     0.81710   0.00016   0.54523   0.00000  Uiso   1.00
C5     C     0.75365   0.00006   0.40931   0.00000  Uiso   1.00
Zn3    Zn    0.99615   0.99991   0.24343   0.00000  Uiso   1.00
O11    O     0.94269   0.94564   0.54541   0.00000  Uiso   1.00
O12    O     0.94246   0.94543   0.27359   0.00000  Uiso   1.00
C6     C     0.92351   0.92633   0.40948   0.00000  Uiso   1.00
O13    O     0.17615   0.00018   0.54497   0.00000  Uiso   1.00
O14    O     0.17572   0.99995   0.27317   0.00000  Uiso   1.00
C7     C     0.23912   0.00000   0.40908   0.00000  Uiso   1.00
Zn4    Zn    0.99659   0.00013   0.57496   0.00000  Uiso   1.00
O15    O     0.04980   0.05439   0.27298   0.00000  Uiso   1.00
O16    O     0.05049   0.05460   0.54480   0.00000  Uiso   1.00
C8     C     0.06880   0.07370   0.40891   0.00000  Uiso   1.00
C9     C     0.88163   0.88414   0.40941   0.00000  Uiso   1.00
C10    C     0.86139   0.86375   0.53029   0.00000  Uiso   1.00
C11    C     0.82211   0.82418   0.53040   0.00000  Uiso   1.00
C12    C     0.80190   0.80383   0.40905   0.00000  Uiso   1.00
C13    C     0.82220   0.82428   0.28847   0.00000  Uiso   1.00
C14    C     0.86145   0.86382   0.28845   0.00000  Uiso   1.00
C15    C     0.76008   0.76170   0.40149   0.00000  Uiso   1.00
C16    C     0.73688   0.73832   0.50778   0.00000  Uiso   1.00
C17    C     0.67476   0.67574   0.62078   0.00000  Uiso   1.00
C18    C     0.69506   0.69619   0.50020   0.00000  Uiso   1.00
C19    C     0.67486   0.67585   0.37885   0.00000  Uiso   1.00
C20    C     0.63557   0.63627   0.37894   0.00000  Uiso   1.00
C21    C     0.61534   0.61588   0.49982   0.00000  Uiso   1.00
C22    C     0.63552   0.63620   0.62078   0.00000  Uiso   1.00
H1     H     0.87620   0.87866   0.62485   0.00000  Uiso   1.00
H2     H     0.80819   0.81014   0.62607   0.00000  Uiso   1.00
H3     H     0.80762   0.80959   0.19347   0.00000  Uiso   1.00
H4     H     0.87624   0.87872   0.19390   0.00000  Uiso   1.00
H5     H     0.68934   0.69042   0.71579   0.00000  Uiso   1.00
H6     H     0.68878   0.68988   0.28317   0.00000  Uiso   1.00
H7     H     0.62077   0.62136   0.28438   0.00000  Uiso   1.00
H8     H     0.62073   0.62130   0.71533   0.00000  Uiso   1.00
C23    C     0.11157   0.11589   0.40898   0.00000  Uiso   1.00
C24    C     0.13202   0.13625   0.52992   0.00000  Uiso   1.00
C25    C     0.17214   0.17583   0.53015   0.00000  Uiso   1.00
C26    C     0.19300   0.19620   0.40886   0.00000  Uiso   1.00
C27    C     0.17250   0.17578   0.28822   0.00000  Uiso   1.00
C28    C     0.13241   0.13625   0.28808   0.00000  Uiso   1.00
C29    C     0.23573   0.23833   0.40143   0.00000  Uiso   1.00
C30    C     0.25923   0.26169   0.50779   0.00000  Uiso   1.00
C31    C     0.32246   0.32424   0.62098   0.00000  Uiso   1.00
C32    C     0.30196   0.30382   0.50035   0.00000  Uiso   1.00
C33    C     0.32282   0.32419   0.37905   0.00000  Uiso   1.00
C34    C     0.36294   0.36376   0.37927   0.00000  Uiso   1.00
C35    C     0.38338   0.38413   0.50021   0.00000  Uiso   1.00
C36    C     0.36254   0.36378   0.62111   0.00000  Uiso   1.00
H9     H     0.11672   0.12132   0.62443   0.00000  Uiso   1.00
H10    H     0.18618   0.18984   0.62586   0.00000  Uiso   1.00
H11    H     0.18757   0.19049   0.19326   0.00000  Uiso   1.00
H12    H     0.11749   0.12137   0.19348   0.00000  Uiso   1.00
H13    H     0.30739   0.30953   0.71595   0.00000  Uiso   1.00
H14    H     0.30877   0.31018   0.28333   0.00000  Uiso   1.00
H15    H     0.37823   0.37869   0.28475   0.00000  Uiso   1.00
H16    H     0.37748   0.37866   0.71570   0.00000  Uiso   1.00
C37    C     0.12146   0.50004   0.49996   0.00000  Uiso   1.00
C38    C     0.08172   0.52439   0.41316   0.00000  Uiso   1.00
C39    C     0.03373   0.47563   0.58681   0.00000  Uiso   1.00
C40    C     0.17250   0.54824   0.32833   0.00000  Uiso   1.00
C41    C     0.13690   0.57288   0.24052   0.00000  Uiso   1.00
H17    H     0.25833   0.54763   0.33060   0.00000  Uiso   1.00
C42    C     0.87855   0.49994   0.50004   0.00000  Uiso   1.00
C43    C     0.91828   0.47558   0.58684   0.00000  Uiso   1.00
C44    C     0.96628   0.52435   0.41320   0.00000  Uiso   1.00
C45    C     0.92238   0.54814   0.32841   0.00000  Uiso   1.00
C46    C     0.00654   0.57283   0.24057   0.00000  Uiso   1.00
H18    H     0.83528   0.54746   0.33073   0.00000  Uiso   1.00
H19    H     0.85832   0.45966   0.64349   0.00000  Uiso   1.00
H20    H     0.06239   0.45974   0.64342   0.00000  Uiso   1.00
C47    C     0.61739   0.99963   0.40915   0.00000  Uiso   1.00
C48    C     0.52935   0.97531   0.49597   0.00000  Uiso   1.00
C49    C     0.57815   0.02408   0.32231   0.00000  Uiso   1.00
C50    C     0.57276   0.95143   0.58080   0.00000  Uiso   1.00
C51    C     0.48827   0.92683   0.66862   0.00000  Uiso   1.00
H21    H     0.65974   0.95199   0.57852   0.00000  Uiso   1.00
C52    C     0.37482   0.99987   0.40911   0.00000  Uiso   1.00
C53    C     0.46286   0.02419   0.32229   0.00000  Uiso   1.00
C54    C     0.41406   0.97543   0.49595   0.00000  Uiso   1.00
C55    C     0.32298   0.95168   0.58075   0.00000  Uiso   1.00
C56    C     0.35810   0.92695   0.66860   0.00000  Uiso   1.00
H22    H     0.23728   0.95240   0.57844   0.00000  Uiso   1.00
H23    H     0.43453   0.04013   0.26565   0.00000  Uiso   1.00
H24    H     0.63831   0.03994   0.26569   0.00000  Uiso   1.00
O17    O     0.74371   0.74521   0.26223   0.00000  Uiso   1.00
H25    H     0.76676   0.76844   0.18766   0.00000  Uiso   1.00
O18    O     0.75325   0.75481   0.64704   0.00000  Uiso   1.00
H26    H     0.73020   0.73158   0.72160   0.00000  Uiso   1.00
O19    O     0.25271   0.25485   0.26222   0.00000  Uiso   1.00
H27    H     0.22930   0.23164   0.18759   0.00000  Uiso   1.00
O20    O     0.24225   0.24517   0.64700   0.00000  Uiso   1.00
H28    H     0.26566   0.26838   0.72163   0.00000  Uiso   1.00
O21    O     0.22144   0.59500   0.16185   0.00000  Uiso   1.00
Li1    Li    0.38425   0.60197   0.13721   0.00000  Uiso   1.00
O22    O     0.96548   0.59489   0.16193   0.00000  Uiso   1.00
Li2    Li    0.81626   0.60173   0.13739   0.00000  Uiso   1.00
O23    O     0.52888   0.90468   0.74729   0.00000  Uiso   1.00
Li3    Li    0.67777   0.89762   0.77192   0.00000  Uiso   1.00
O24    O     0.27328   0.90493   0.74724   0.00000  Uiso   1.00
Li4    Li    0.11057   0.89817   0.77181   0.00000  Uiso   1.00
