# generated using pymatgen
data_ZnH7C16BrClO4
_symmetry_space_group_name_H-M   'P 1'
_cell_length_a   17.57240000
_cell_length_b   39.46000000
_cell_length_c   10.00000000
_cell_angle_alpha   90.00000000
_cell_angle_beta   90.00000000
_cell_angle_gamma   116.22800000
_symmetry_Int_Tables_number   1
_chemical_formula_structural   ZnH7C16BrClO4
_chemical_formula_sum   'Zn4 H28 C64 Br4 Cl4 O16'
_cell_volume   6220.15464123
_cell_formula_units_Z   4
loop_
 _symmetry_equiv_pos_site_id
 _symmetry_equiv_pos_as_xyz
  1  'x, y, z'
loop_
 _atom_site_type_symbol
 _atom_site_label
 _atom_site_symmetry_multiplicity
 _atom_site_fract_x
 _atom_site_fract_y
 _atom_site_fract_z
 _atom_site_occupancy
  Zn  Zn1  1  0.50005000  0.50011000  0.66577000  1
  Zn  Zn2  1  0.49998000  0.49989000  0.33423000  1
  Zn  Zn3  1  0.99764000  0.99991000  0.24343000  1
  Zn  Zn4  1  0.99796000  0.00013000  0.57496000  1
  H  H1  1  0.87715000  0.87866000  0.62485000  1
  H  H2  1  0.80894000  0.81014000  0.62607000  1
  H  H3  1  0.80842000  0.80959000  0.19347000  1
  H  H4  1  0.68974000  0.69042000  0.71579000  1
  H  H5  1  0.68923000  0.68988000  0.28317000  1
  H  H6  1  0.62102000  0.62136000  0.28438000  1
  H  H7  1  0.74901000  0.74993000  0.30207000  1
  H  H8  1  0.74915000  0.75009000  0.60719000  1
  H  H9  1  0.11850000  0.12132000  0.62443000  1
  H  H10  1  0.18759000  0.18984000  0.62586000  1
  H  H11  1  0.18873000  0.19049000  0.19326000  1
  H  H12  1  0.30821000  0.30953000  0.71595000  1
  H  H13  1  0.30934000  0.31018000  0.28333000  1
  H  H14  1  0.37843000  0.37869000  0.28475000  1
  H  H15  1  0.24875000  0.25013000  0.30205000  1
  H  H16  1  0.24818000  0.24990000  0.60717000  1
  H  H17  1  0.25716000  0.50029000  0.71121000  1
  H  H18  1  0.12104000  0.50022000  0.71147000  1
  H  H19  1  0.12059000  0.49983000  0.28848000  1
  H  H20  1  0.87935000  0.50010000  0.71156000  1
  H  H21  1  0.74285000  0.49969000  0.28881000  1
  H  H22  1  0.87897000  0.49975000  0.28857000  1
  H  H23  1  0.75325000  0.99857000  0.19826000  1
  H  H24  1  0.61745000  0.99884000  0.19795000  1
  H  H25  1  0.61775000  0.99924000  0.62094000  1
  H  H26  1  0.37639000  0.99934000  0.19778000  1
  H  H27  1  0.24086000  0.99996000  0.62047000  1
  H  H28  1  0.37666000  0.99970000  0.62076000  1
  C  C1  1  0.35173000  0.50014000  0.49988000  1
  C  C2  1  0.57355000  0.57369000  0.49974000  1
  C  C3  1  0.64827000  0.49983000  0.50013000  1
  C  C4  1  0.42622000  0.42632000  0.50026000  1
  C  C5  1  0.84947000  0.00011000  0.40926000  1
  C  C6  1  0.92462000  0.92633000  0.40948000  1
  C  C7  1  0.14616000  0.99996000  0.40912000  1
  C  C8  1  0.07071000  0.07370000  0.40891000  1
  C  C9  1  0.88262000  0.88414000  0.40941000  1
  C  C10  1  0.86231000  0.86375000  0.53029000  1
  C  C11  1  0.82291000  0.82417000  0.53040000  1
  C  C12  1  0.80266000  0.80383000  0.40905000  1
  C  C13  1  0.82303000  0.82428000  0.28847000  1
  C  C14  1  0.86239000  0.86381000  0.28845000  1
  C  C15  1  0.76072000  0.76170000  0.40149000  1
  C  C16  1  0.73744000  0.73832000  0.50778000  1
  C  C17  1  0.67513000  0.67574000  0.62078000  1
  C  C18  1  0.69550000  0.69619000  0.50020000  1
  C  C19  1  0.67525000  0.67584000  0.37885000  1
  C  C20  1  0.63586000  0.63627000  0.37894000  1
  C  C21  1  0.61555000  0.61588000  0.49982000  1
  C  C22  1  0.63577000  0.63620000  0.62078000  1
  C  C23  1  0.11326000  0.11589000  0.40898000  1
  C  C24  1  0.13366000  0.13625000  0.52992000  1
  C  C25  1  0.17357000  0.17583000  0.53015000  1
  C  C26  1  0.19426000  0.19620000  0.40886000  1
  C  C27  1  0.17380000  0.17578000  0.28822000  1
  C  C28  1  0.13392000  0.13625000  0.28808000  1
  C  C29  1  0.23675000  0.23833000  0.40143000  1
  C  C30  1  0.26018000  0.26169000  0.50779000  1
  C  C31  1  0.32314000  0.32424000  0.62098000  1
  C  C32  1  0.30268000  0.30382000  0.50034000  1
  C  C33  1  0.32336000  0.32419000  0.37905000  1
  C  C34  1  0.36327000  0.36376000  0.37927000  1
  C  C35  1  0.38367000  0.38413000  0.50021000  1
  C  C36  1  0.36301000  0.36378000  0.62111000  1
  C  C37  1  0.27105000  0.50010000  0.49991000  1
  C  C38  1  0.22924000  0.50019000  0.62127000  1
  C  C39  1  0.14907000  0.50015000  0.62166000  1
  C  C40  1  0.10832000  0.50002000  0.49998000  1
  C  C41  1  0.14882000  0.49993000  0.37827000  1
  C  C42  1  0.22899000  0.49997000  0.37859000  1
  C  C43  1  0.03402000  0.49999000  0.50002000  1
  C  C44  1  0.96595000  0.49996000  0.50005000  1
  C  C45  1  0.89166000  0.49993000  0.50006000  1
  C  C46  1  0.85114000  0.50001000  0.62177000  1
  C  C47  1  0.77097000  0.49998000  0.62143000  1
  C  C48  1  0.72894000  0.49986000  0.50011000  1
  C  C49  1  0.77076000  0.49978000  0.37876000  1
  C  C50  1  0.85092000  0.49981000  0.37838000  1
  C  C51  1  0.76746000  0.99874000  0.40956000  1
  C  C52  1  0.72555000  0.99871000  0.28819000  1
  C  C53  1  0.64558000  0.99887000  0.28777000  1
  C  C54  1  0.60514000  0.99906000  0.40944000  1
  C  C55  1  0.64575000  0.99910000  0.53117000  1
  C  C56  1  0.72572000  0.99894000  0.53087000  1
  C  C57  1  0.53102000  0.99921000  0.40937000  1
  C  C58  1  0.46310000  0.99934000  0.40932000  1
  C  C59  1  0.38898000  0.99949000  0.40928000  1
  C  C60  1  0.34838000  0.99947000  0.28755000  1
  C  C61  1  0.26840000  0.99962000  0.28786000  1
  C  C62  1  0.22665000  0.99980000  0.40917000  1
  C  C63  1  0.26855000  0.99983000  0.53054000  1
  C  C64  1  0.34854000  0.99967000  0.53095000  1
  Br  Br1  1  0.28525000  0.49982000  0.19605000  1
  Br  Br2  1  0.71469000  0.50011000  0.80397000  1
  Br  Br3  1  0.78216000  0.99900000  0.71343000  1
  Br  Br4  1  0.21196000  0.99958000  0.10531000  1
  Cl  Cl1  1  0.88652000  0.88804000  0.13476000  1
  Cl  Cl2  1  0.61164000  0.61197000  0.77447000  1
  Cl  Cl3  1  0.10970000  0.11206000  0.13432000  1
  Cl  Cl4  1  0.38724000  0.38797000  0.77487000  1
  O  O1  1  0.39056000  0.50037000  0.63577000  1
  O  O2  1  0.39032000  0.50000000  0.36396000  1
  O  O3  1  0.55434000  0.55438000  0.36380000  1
  O  O4  1  0.55452000  0.55458000  0.63562000  1
  O  O5  1  0.60954000  0.49971000  0.36423000  1
  O  O6  1  0.60963000  0.49993000  0.63604000  1
  O  O7  1  0.44554000  0.44562000  0.63620000  1
  O  O8  1  0.44564000  0.44542000  0.36438000  1
  O  O9  1  0.88780000  0.99982000  0.27339000  1
  O  O10  1  0.88827000  0.00019000  0.54519000  1
  O  O11  1  0.94383000  0.94564000  0.54541000  1
  O  O12  1  0.94364000  0.94543000  0.27359000  1
  O  O13  1  0.10773000  0.00015000  0.54501000  1
  O  O14  1  0.10740000  0.99991000  0.27320000  1
  O  O15  1  0.05161000  0.05440000  0.27298000  1
  O  O16  1  0.05208000  0.05460000  0.54480000  1
