data_DB1-Cu2O8-ADC_A-irmof7_A_No973_repeat
_audit_creation_date              2024-02-23
_audit_creation_method            'Materials Studio'
_symmetry_space_group_name_H-M    'P1'
_symmetry_Int_Tables_number       1
_symmetry_cell_setting            triclinic
loop_
_symmetry_equiv_pos_as_xyz
  x,y,z
_cell_length_a                    10.5432
_cell_length_b                    34.9964
_cell_length_c                    10.0000
_cell_angle_alpha                 90.0000
_cell_angle_beta                  90.0000
_cell_angle_gamma                 90.0933
loop_
_atom_site_label
_atom_site_type_symbol
_atom_site_fract_x
_atom_site_fract_y
_atom_site_fract_z
_atom_site_U_iso_or_equiv
_atom_site_adp_type
_atom_site_occupancy
Cu1    Cu    0.50000   0.50000   0.62726   0.00000  Uiso   1.00
Cu2    Cu    0.50001   0.50000   0.37274   0.00000  Uiso   1.00
O1     O     0.66492   0.49997   0.61869   0.00000  Uiso   1.00
O2     O     0.33475   0.49992   0.61867   0.00000  Uiso   1.00
O3     O     0.49964   0.45021   0.61868   0.00000  Uiso   1.00
O4     O     0.50002   0.54968   0.61868   0.00000  Uiso   1.00
O5     O     0.50032   0.54979   0.38132   0.00000  Uiso   1.00
O6     O     0.50003   0.45033   0.38132   0.00000  Uiso   1.00
O7     O     0.33496   0.49998   0.38131   0.00000  Uiso   1.00
O8     O     0.66526   0.50010   0.38133   0.00000  Uiso   1.00
C1     C     0.73788   0.50003   0.50001   0.00000  Uiso   1.00
C2     C     0.26213   0.49997   0.49999   0.00000  Uiso   1.00
C3     C     0.49984   0.42834   0.49999   0.00000  Uiso   1.00
C4     C     0.50017   0.57167   0.50000   0.00000  Uiso   1.00
Cu3    Cu    0.50050   0.00000   0.28188   0.00000  Uiso   1.00
Cu4    Cu    0.49986   0.00001   0.53639   0.00000  Uiso   1.00
O9     O     0.66539   0.00019   0.29091   0.00000  Uiso   1.00
O10    O     0.33522   0.99993   0.29000   0.00000  Uiso   1.00
O11    O     0.50013   0.04979   0.29044   0.00000  Uiso   1.00
O12    O     0.50048   0.95032   0.29047   0.00000  Uiso   1.00
O13    O     0.50018   0.95021   0.52783   0.00000  Uiso   1.00
O14    O     0.49992   0.04968   0.52780   0.00000  Uiso   1.00
O15    O     0.33483   0.99987   0.52735   0.00000  Uiso   1.00
O16    O     0.66514   0.00007   0.52827   0.00000  Uiso   1.00
C5     C     0.73806   0.00020   0.40980   0.00000  Uiso   1.00
C6     C     0.26230   0.99980   0.40848   0.00000  Uiso   1.00
C7     C     0.50003   0.07167   0.40912   0.00000  Uiso   1.00
C8     C     0.50033   0.92834   0.40915   0.00000  Uiso   1.00
C9     C     0.50033   0.88566   0.40916   0.00000  Uiso   1.00
C10    C     0.50017   0.86506   0.53008   0.00000  Uiso   1.00
C11    C     0.50016   0.82503   0.53024   0.00000  Uiso   1.00
C12    C     0.50032   0.80443   0.40893   0.00000  Uiso   1.00
C13    C     0.50047   0.82510   0.28832   0.00000  Uiso   1.00
C14    C     0.50048   0.86509   0.28824   0.00000  Uiso   1.00
C15    C     0.50032   0.76182   0.40144   0.00000  Uiso   1.00
C16    C     0.50018   0.73818   0.50777   0.00000  Uiso   1.00
C17    C     0.50003   0.67490   0.62087   0.00000  Uiso   1.00
C18    C     0.50019   0.69557   0.50026   0.00000  Uiso   1.00
C19    C     0.50034   0.67498   0.37894   0.00000  Uiso   1.00
C20    C     0.50033   0.63495   0.37910   0.00000  Uiso   1.00
C21    C     0.50018   0.61434   0.50001   0.00000  Uiso   1.00
C22    C     0.50003   0.63491   0.62094   0.00000  Uiso   1.00
H1     H     0.50005   0.88015   0.62461   0.00000  Uiso   1.00
H2     H     0.50004   0.81085   0.62594   0.00000  Uiso   1.00
H3     H     0.50059   0.81023   0.19334   0.00000  Uiso   1.00
H4     H     0.49991   0.68976   0.71585   0.00000  Uiso   1.00
H5     H     0.50046   0.68916   0.28324   0.00000  Uiso   1.00
H6     H     0.50045   0.61986   0.28456   0.00000  Uiso   1.00
H7     H     0.50045   0.74990   0.30204   0.00000  Uiso   1.00
H8     H     0.50006   0.75010   0.60716   0.00000  Uiso   1.00
C23    C     0.50003   0.11434   0.40913   0.00000  Uiso   1.00
C24    C     0.49982   0.13495   0.53004   0.00000  Uiso   1.00
C25    C     0.49982   0.17498   0.53022   0.00000  Uiso   1.00
C26    C     0.50002   0.19557   0.40890   0.00000  Uiso   1.00
C27    C     0.50022   0.17491   0.28829   0.00000  Uiso   1.00
C28    C     0.50022   0.13492   0.28821   0.00000  Uiso   1.00
C29    C     0.50002   0.23819   0.40142   0.00000  Uiso   1.00
C30    C     0.49985   0.26182   0.50774   0.00000  Uiso   1.00
C31    C     0.49965   0.32510   0.62085   0.00000  Uiso   1.00
C32    C     0.49985   0.30443   0.50024   0.00000  Uiso   1.00
C33    C     0.50005   0.32503   0.37892   0.00000  Uiso   1.00
C34    C     0.50005   0.36505   0.37909   0.00000  Uiso   1.00
C35    C     0.49985   0.38566   0.50000   0.00000  Uiso   1.00
C36    C     0.49965   0.36509   0.62092   0.00000  Uiso   1.00
H9     H     0.49967   0.11986   0.62458   0.00000  Uiso   1.00
H10    H     0.49966   0.18916   0.62591   0.00000  Uiso   1.00
H11    H     0.50037   0.18977   0.19331   0.00000  Uiso   1.00
H12    H     0.49950   0.31024   0.71584   0.00000  Uiso   1.00
H13    H     0.50021   0.31085   0.28322   0.00000  Uiso   1.00
H14    H     0.50020   0.38015   0.28455   0.00000  Uiso   1.00
H15    H     0.50019   0.25010   0.30202   0.00000  Uiso   1.00
H16    H     0.49969   0.24990   0.60714   0.00000  Uiso   1.00
C37    C     0.12372   0.49999   0.49999   0.00000  Uiso   1.00
C38    C     0.05896   0.52478   0.41359   0.00000  Uiso   1.00
C39    C     0.05864   0.47521   0.58640   0.00000  Uiso   1.00
C40    C     0.12771   0.54898   0.32919   0.00000  Uiso   1.00
C41    C     0.06687   0.57406   0.24178   0.00000  Uiso   1.00
H17    H     0.21577   0.54832   0.33146   0.00000  Uiso   1.00
H18    H     0.11278   0.59013   0.18572   0.00000  Uiso   1.00
C42    C     0.87629   0.50001   0.50000   0.00000  Uiso   1.00
C43    C     0.94105   0.47523   0.58640   0.00000  Uiso   1.00
C44    C     0.94137   0.52479   0.41359   0.00000  Uiso   1.00
C45    C     0.87293   0.54900   0.32920   0.00000  Uiso   1.00
C46    C     0.93409   0.57407   0.24179   0.00000  Uiso   1.00
H19    H     0.78486   0.54836   0.33148   0.00000  Uiso   1.00
H20    H     0.88839   0.59015   0.18573   0.00000  Uiso   1.00
C47    C     0.12389   0.00062   0.41090   0.00000  Uiso   1.00
C48    C     0.05890   0.97577   0.49713   0.00000  Uiso   1.00
C49    C     0.05904   0.02533   0.32431   0.00000  Uiso   1.00
C50    C     0.12743   0.95163   0.58174   0.00000  Uiso   1.00
C51    C     0.06637   0.92650   0.66898   0.00000  Uiso   1.00
H21    H     0.21550   0.95238   0.57971   0.00000  Uiso   1.00
H22    H     0.11213   0.91047   0.72517   0.00000  Uiso   1.00
C52    C     0.87647   0.00035   0.41020   0.00000  Uiso   1.00
C53    C     0.94145   0.02520   0.32397   0.00000  Uiso   1.00
C54    C     0.94132   0.97564   0.49679   0.00000  Uiso   1.00
C55    C     0.87266   0.95136   0.58101   0.00000  Uiso   1.00
C56    C     0.93359   0.92636   0.66860   0.00000  Uiso   1.00
H23    H     0.78459   0.95192   0.57847   0.00000  Uiso   1.00
H24    H     0.88774   0.91023   0.72452   0.00000  Uiso   1.00
H25    H     0.56290   0.91138   0.14215   0.00000  Uiso   1.00
H26    H     0.43852   0.87625   0.07357   0.00000  Uiso   1.00
N1     N     0.50065   0.88610   0.15634   0.00000  Uiso   1.00
H27    H     0.56207   0.58868   0.76719   0.00000  Uiso   1.00
H28    H     0.43752   0.62369   0.83543   0.00000  Uiso   1.00
N2     N     0.49986   0.61390   0.75283   0.00000  Uiso   1.00
H29    H     0.43824   0.08862   0.14191   0.00000  Uiso   1.00
H30    H     0.56280   0.12376   0.07374   0.00000  Uiso   1.00
N3     N     0.50044   0.11391   0.15631   0.00000  Uiso   1.00
H31    H     0.43718   0.41132   0.76698   0.00000  Uiso   1.00
H32    H     0.56153   0.37631   0.83562   0.00000  Uiso   1.00
N4     N     0.49943   0.38610   0.75282   0.00000  Uiso   1.00
H33    H     0.78327   0.43338   0.63975   0.00000  Uiso   1.00
H34    H     0.89784   0.44527   0.78347   0.00000  Uiso   1.00
N5     N     0.86757   0.44898   0.67796   0.00000  Uiso   1.00
H35    H     0.21605   0.45980   0.73269   0.00000  Uiso   1.00
H36    H     0.10130   0.41879   0.69050   0.00000  Uiso   1.00
N6     N     0.13179   0.44895   0.67795   0.00000  Uiso   1.00
H37    H     0.78381   0.06689   0.27017   0.00000  Uiso   1.00
H38    H     0.89875   0.05511   0.12677   0.00000  Uiso   1.00
N7     N     0.86820   0.05138   0.23220   0.00000  Uiso   1.00
H39    H     0.21683   0.04089   0.17846   0.00000  Uiso   1.00
H40    H     0.10197   0.08179   0.22031   0.00000  Uiso   1.00
N8     N     0.13242   0.05166   0.23296   0.00000  Uiso   1.00
