# generated using pymatgen
data_Zn2H12C33Br3O10
_symmetry_space_group_name_H-M   'P 1'
_cell_length_a   30.19520000
_cell_length_b   25.84080000
_cell_length_c   10.00000000
_cell_angle_alpha   90.00000000
_cell_angle_beta   90.00000000
_cell_angle_gamma   89.71280000
_symmetry_Int_Tables_number   1
_chemical_formula_structural   Zn2H12C33Br3O10
_chemical_formula_sum   'Zn8 H48 C132 Br12 O40'
_cell_volume   7802.58321666
_cell_formula_units_Z   4
loop_
 _symmetry_equiv_pos_site_id
 _symmetry_equiv_pos_as_xyz
  1  'x, y, z'
loop_
 _atom_site_type_symbol
 _atom_site_label
 _atom_site_symmetry_multiplicity
 _atom_site_fract_x
 _atom_site_fract_y
 _atom_site_fract_z
 _atom_site_occupancy
  Zn  Zn1  1  0.50012000  0.49996000  0.33423000  1
  Zn  Zn2  1  0.49988000  0.50005000  0.66577000  1
  Zn  Zn3  1  0.99989000  0.49874000  0.66575000  1
  Zn  Zn4  1  0.00013000  0.49882000  0.33422000  1
  Zn  Zn5  1  0.49959000  0.91581000  0.66567000  1
  Zn  Zn6  1  0.49998000  0.91572000  0.33414000  1
  Zn  Zn7  1  0.99835000  0.91458000  0.33425000  1
  Zn  Zn8  1  0.99796000  0.91450000  0.66578000  1
  H  H1  1  0.64050000  0.49978000  0.70146000  1
  H  H2  1  0.71237000  0.49961000  0.81172000  1
  H  H3  1  0.64043000  0.49978000  0.29886000  1
  H  H4  1  0.85951000  0.49924000  0.29853000  1
  H  H5  1  0.78764000  0.49942000  0.18827000  1
  H  H6  1  0.85957000  0.49924000  0.70112000  1
  H  H7  1  0.35957000  0.49980000  0.70113000  1
  H  H8  1  0.28774000  0.49951000  0.81160000  1
  H  H9  1  0.35951000  0.49950000  0.29854000  1
  H  H10  1  0.14044000  0.49839000  0.29886000  1
  H  H11  1  0.21227000  0.49868000  0.18838000  1
  H  H12  1  0.14050000  0.49869000  0.70145000  1
  H  H13  1  0.44383000  0.79609000  0.33067000  1
  H  H14  1  0.44392000  0.62028000  0.33057000  1
  H  H15  1  0.49991000  0.33586000  0.70135000  1
  H  H16  1  0.49966000  0.25189000  0.81165000  1
  H  H17  1  0.50054000  0.33590000  0.29876000  1
  H  H18  1  0.50032000  0.07991000  0.29856000  1
  H  H19  1  0.50057000  0.16388000  0.18826000  1
  H  H20  1  0.49969000  0.07987000  0.70115000  1
  H  H21  1  0.05471000  0.79459000  0.66927000  1
  H  H22  1  0.05549000  0.61878000  0.66939000  1
  H  H23  1  0.00092000  0.33462000  0.29866000  1
  H  H24  1  0.00158000  0.25065000  0.18837000  1
  H  H25  1  0.00029000  0.33467000  0.70125000  1
  H  H26  1  0.00178000  0.07868000  0.70148000  1
  H  H27  1  0.00111000  0.16265000  0.81178000  1
  H  H28  1  0.00241000  0.07863000  0.29890000  1
  H  H29  1  0.64067000  0.91454000  0.30090000  1
  H  H30  1  0.71274000  0.91398000  0.19189000  1
  H  H31  1  0.63983000  0.91455000  0.70348000  1
  H  H32  1  0.85890000  0.91284000  0.70763000  1
  H  H33  1  0.78682000  0.91340000  0.81664000  1
  H  H34  1  0.85974000  0.91283000  0.30505000  1
  H  H35  1  0.35974000  0.91742000  0.29634000  1
  H  H36  1  0.28812000  0.91844000  0.18461000  1
  H  H37  1  0.35890000  0.91772000  0.69892000  1
  H  H38  1  0.13984000  0.92108000  0.69479000  1
  H  H39  1  0.21146000  0.92006000  0.80651000  1
  H  H40  1  0.14067000  0.92078000  0.29220000  1
  H  H41  1  0.55347000  0.61158000  0.66324000  1
  H  H42  1  0.55337000  0.80362000  0.66335000  1
  H  H43  1  0.38934000  0.80797000  0.16522000  1
  H  H44  1  0.38945000  0.60899000  0.16511000  1
  H  H45  1  0.94599000  0.61061000  0.33673000  1
  H  H46  1  0.94513000  0.80265000  0.33660000  1
  H  H47  1  0.10914000  0.80620000  0.83472000  1
  H  H48  1  0.11002000  0.60723000  0.83485000  1
  C  C1  1  0.50028000  0.39908000  0.50010000  1
  C  C2  1  0.58638000  0.49991000  0.50024000  1
  C  C3  1  0.49969000  0.60094000  0.49989000  1
  C  C4  1  0.41362000  0.49992000  0.49976000  1
  C  C5  1  0.00023000  0.39784000  0.49990000  1
  C  C6  1  0.91363000  0.49911000  0.49974000  1
  C  C7  1  0.99982000  0.59971000  0.50008000  1
  C  C8  1  0.08639000  0.49827000  0.50023000  1
  C  C9  1  0.49995000  0.01669000  0.49981000  1
  C  C10  1  0.58616000  0.91497000  0.50117000  1
  C  C11  1  0.49957000  0.81483000  0.50001000  1
  C  C12  1  0.41340000  0.91674000  0.49865000  1
  C  C13  1  0.99749000  0.01547000  0.50010000  1
  C  C14  1  0.91178000  0.91417000  0.49876000  1
  C  C15  1  0.99887000  0.81361000  0.49993000  1
  C  C16  1  0.08454000  0.91509000  0.50128000  1
  C  C17  1  0.65495000  0.49975000  0.61926000  1
  C  C18  1  0.70129000  0.49963000  0.61336000  1
  C  C19  1  0.72693000  0.49957000  0.72952000  1
  C  C20  1  0.65491000  0.49975000  0.38101000  1
  C  C21  1  0.70125000  0.49963000  0.38678000  1
  C  C22  1  0.72685000  0.49957000  0.27053000  1
  C  C23  1  0.84506000  0.49928000  0.38072000  1
  C  C24  1  0.79872000  0.49939000  0.38663000  1
  C  C25  1  0.77308000  0.49945000  0.27046000  1
  C  C26  1  0.84510000  0.49928000  0.61897000  1
  C  C27  1  0.79876000  0.49939000  0.61321000  1
  C  C28  1  0.77316000  0.49946000  0.72945000  1
  C  C29  1  0.63068000  0.49981000  0.50017000  1
  C  C30  1  0.72814000  0.49957000  0.50003000  1
  C  C31  1  0.86933000  0.49922000  0.49981000  1
  C  C32  1  0.77187000  0.49946000  0.49996000  1
  C  C33  1  0.34510000  0.49966000  0.61898000  1
  C  C34  1  0.29875000  0.49942000  0.61321000  1
  C  C35  1  0.27315000  0.49938000  0.72945000  1
  C  C36  1  0.34506000  0.49949000  0.38073000  1
  C  C37  1  0.29872000  0.49926000  0.38663000  1
  C  C38  1  0.27308000  0.49904000  0.27046000  1
  C  C39  1  0.15492000  0.49853000  0.38101000  1
  C  C40  1  0.20126000  0.49876000  0.38677000  1
  C  C41  1  0.22686000  0.49881000  0.27053000  1
  C  C42  1  0.15495000  0.49870000  0.61925000  1
  C  C43  1  0.20129000  0.49893000  0.61335000  1
  C  C44  1  0.22693000  0.49914000  0.72952000  1
  C  C45  1  0.36933000  0.49970000  0.49982000  1
  C  C46  1  0.27187000  0.49920000  0.49996000  1
  C  C47  1  0.13068000  0.49849000  0.50016000  1
  C  C48  1  0.22814000  0.49898000  0.50002000  1
  C  C49  1  0.49960000  0.75836000  0.49998000  1
  C  C50  1  0.47103000  0.73203000  0.41315000  1
  C  C51  1  0.52821000  0.73172000  0.58678000  1
  C  C52  1  0.44309000  0.76017000  0.32836000  1
  C  C53  1  0.41419000  0.73543000  0.24052000  1
  C  C54  1  0.49966000  0.65741000  0.49992000  1
  C  C55  1  0.52823000  0.68375000  0.58675000  1
  C  C56  1  0.47106000  0.68405000  0.41312000  1
  C  C57  1  0.44315000  0.65622000  0.32831000  1
  C  C58  1  0.41422000  0.68126000  0.24049000  1
  C  C59  1  0.50002000  0.31897000  0.61916000  1
  C  C60  1  0.49999000  0.26482000  0.61329000  1
  C  C61  1  0.49978000  0.23487000  0.72947000  1
  C  C62  1  0.50040000  0.31899000  0.38092000  1
  C  C63  1  0.50034000  0.26484000  0.38671000  1
  C  C64  1  0.50050000  0.23492000  0.27048000  1
  C  C65  1  0.50021000  0.09680000  0.38075000  1
  C  C66  1  0.50024000  0.15095000  0.38662000  1
  C  C67  1  0.50045000  0.18090000  0.27044000  1
  C  C68  1  0.49984000  0.09678000  0.61899000  1
  C  C69  1  0.49989000  0.15093000  0.61320000  1
  C  C70  1  0.49973000  0.18085000  0.72943000  1
  C  C71  1  0.50023000  0.34732000  0.50006000  1
  C  C72  1  0.50014000  0.23343000  0.49998000  1
  C  C73  1  0.50000000  0.06845000  0.49985000  1
  C  C74  1  0.50009000  0.18234000  0.49994000  1
  C  C75  1  0.99912000  0.75713000  0.49997000  1
  C  C76  1  0.02782000  0.73066000  0.58680000  1
  C  C77  1  0.97065000  0.73063000  0.41317000  1
  C  C78  1  0.05562000  0.75866000  0.67159000  1
  C  C79  1  0.08465000  0.73379000  0.75943000  1
  C  C80  1  0.99957000  0.65618000  0.50004000  1
  C  C81  1  0.97087000  0.68265000  0.41320000  1
  C  C82  1  0.02804000  0.68268000  0.58684000  1
  C  C83  1  0.05609000  0.65471000  0.67166000  1
  C  C84  1  0.08489000  0.67962000  0.75946000  1
  C  C85  1  0.00089000  0.31773000  0.38085000  1
  C  C86  1  0.00119000  0.26358000  0.38673000  1
  C  C87  1  0.00155000  0.23363000  0.27055000  1
  C  C88  1  0.00051000  0.31776000  0.61909000  1
  C  C89  1  0.00084000  0.26361000  0.61331000  1
  C  C90  1  0.00083000  0.23369000  0.72954000  1
  C  C91  1  0.00181000  0.09557000  0.61930000  1
  C  C92  1  0.00150000  0.14972000  0.61341000  1
  C  C93  1  0.00114000  0.17967000  0.72959000  1
  C  C94  1  0.00218000  0.09554000  0.38105000  1
  C  C95  1  0.00186000  0.14969000  0.38684000  1
  C  C96  1  0.00186000  0.17961000  0.27060000  1
  C  C97  1  0.00054000  0.34609000  0.49995000  1
  C  C98  1  0.00120000  0.23220000  0.50005000  1
  C  C99  1  0.00216000  0.06721000  0.50020000  1
  C  C100  1  0.00150000  0.18110000  0.50010000  1
  C  C101  1  0.65496000  0.91443000  0.38334000  1
  C  C102  1  0.70128000  0.91407000  0.39006000  1
  C  C103  1  0.72715000  0.91386000  0.27434000  1
  C  C104  1  0.65446000  0.91444000  0.62159000  1
  C  C105  1  0.70081000  0.91407000  0.61663000  1
  C  C106  1  0.72619000  0.91388000  0.73332000  1
  C  C107  1  0.84461000  0.91295000  0.62519000  1
  C  C108  1  0.79828000  0.91331000  0.61848000  1
  C  C109  1  0.77242000  0.91351000  0.73420000  1
  C  C110  1  0.84510000  0.91294000  0.38695000  1
  C  C111  1  0.79875000  0.91331000  0.39190000  1
  C  C112  1  0.77337000  0.91350000  0.27521000  1
  C  C113  1  0.63046000  0.91462000  0.50201000  1
  C  C114  1  0.72792000  0.91386000  0.50385000  1
  C  C115  1  0.86911000  0.91276000  0.50653000  1
  C  C116  1  0.77164000  0.91352000  0.50468000  1
  C  C117  1  0.34511000  0.91770000  0.37823000  1
  C  C118  1  0.29875000  0.91842000  0.38319000  1
  C  C119  1  0.27338000  0.91872000  0.26651000  1
  C  C120  1  0.34461000  0.91788000  0.61648000  1
  C  C121  1  0.29829000  0.91858000  0.60977000  1
  C  C122  1  0.27243000  0.91906000  0.72549000  1
  C  C123  1  0.15447000  0.92079000  0.61289000  1
  C  C124  1  0.20082000  0.92008000  0.60793000  1
  C  C125  1  0.22620000  0.91977000  0.72462000  1
  C  C126  1  0.15496000  0.92062000  0.37465000  1
  C  C127  1  0.20129000  0.91991000  0.38135000  1
  C  C128  1  0.22715000  0.91943000  0.26563000  1
  C  C129  1  0.36911000  0.91742000  0.49781000  1
  C  C130  1  0.27165000  0.91891000  0.49597000  1
  C  C131  1  0.13047000  0.92108000  0.49331000  1
  C  C132  1  0.22793000  0.91958000  0.49515000  1
  Br  Br1  1  0.80567000  0.49938000  0.91251000  1
  Br  Br2  1  0.69434000  0.49964000  0.08747000  1
  Br  Br3  1  0.19448000  0.49911000  0.91268000  1
  Br  Br4  1  0.30553000  0.49907000  0.08731000  1
  Br  Br5  1  0.49941000  0.14288000  0.91251000  1
  Br  Br6  1  0.50082000  0.27289000  0.08741000  1
  Br  Br7  1  0.00237000  0.14164000  0.08753000  1
  Br  Br8  1  0.00032000  0.27167000  0.91261000  1
  Br  Br9  1  0.80623000  0.91325000  0.09272000  1
  Br  Br10  1  0.69333000  0.91413000  0.91581000  1
  Br  Br11  1  0.19505000  0.91979000  0.08192000  1
  Br  Br12  1  0.30453000  0.91870000  0.90921000  1
  O  O1  1  0.50051000  0.42533000  0.36422000  1
  O  O2  1  0.50009000  0.42541000  0.63602000  1
  O  O3  1  0.56375000  0.49997000  0.63618000  1
  O  O4  1  0.56399000  0.49997000  0.36437000  1
  O  O5  1  0.49957000  0.57469000  0.63578000  1
  O  O6  1  0.49983000  0.57460000  0.36398000  1
  O  O7  1  0.43625000  0.49994000  0.36382000  1
  O  O8  1  0.43602000  0.50013000  0.63563000  1
  O  O9  1  0.99987000  0.42410000  0.63578000  1
  O  O10  1  0.00029000  0.42418000  0.36397000  1
  O  O11  1  0.93625000  0.49905000  0.36380000  1
  O  O12  1  0.93602000  0.49906000  0.63562000  1
  O  O13  1  0.00007000  0.57345000  0.36419000  1
  O  O14  1  0.99981000  0.57337000  0.63600000  1
  O  O15  1  0.06376000  0.49840000  0.63617000  1
  O  O16  1  0.06399000  0.49859000  0.36435000  1
  O  O17  1  0.49996000  0.99044000  0.63569000  1
  O  O18  1  0.50005000  0.99036000  0.36388000  1
  O  O19  1  0.56379000  0.91514000  0.36483000  1
  O  O20  1  0.56351000  0.91515000  0.63665000  1
  O  O21  1  0.49969000  0.84109000  0.36412000  1
  O  O22  1  0.49943000  0.84117000  0.63593000  1
  O  O23  1  0.43577000  0.91649000  0.63498000  1
  O  O24  1  0.43606000  0.91629000  0.36316000  1
  O  O25  1  0.99761000  0.98921000  0.36422000  1
  O  O26  1  0.99752000  0.98914000  0.63603000  1
  O  O27  1  0.93415000  0.91423000  0.63509000  1
  O  O28  1  0.93444000  0.91423000  0.36328000  1
  O  O29  1  0.99862000  0.83986000  0.63582000  1
  O  O30  1  0.99888000  0.83994000  0.36401000  1
  O  O31  1  0.06217000  0.91495000  0.36495000  1
  O  O32  1  0.06188000  0.91476000  0.63676000  1
  O  O33  1  0.55853000  0.65367000  0.67872000  1
  O  O34  1  0.55848000  0.76147000  0.67878000  1
  O  O35  1  0.38405000  0.76596000  0.14905000  1
  O  O36  1  0.38411000  0.65106000  0.14899000  1
  O  O37  1  0.94071000  0.65272000  0.32124000  1
  O  O38  1  0.94023000  0.76053000  0.32117000  1
  O  O39  1  0.11464000  0.76417000  0.85090000  1
  O  O40  1  0.11515000  0.64927000  0.85097000  1
