data_DB1-Cu2O8-BTC_A-DPAC_A_No29_repeat
_audit_creation_date              2024-02-20
_audit_creation_method            'Materials Studio'
_symmetry_space_group_name_H-M    'P1'
_symmetry_Int_Tables_number       1
_symmetry_cell_setting            triclinic
loop_
_symmetry_equiv_pos_as_xyz
  x,y,z
_cell_length_a                    18.8387
_cell_length_b                    18.8387
_cell_length_c                    34.7444
_cell_angle_alpha                 90.0790
_cell_angle_beta                  90.1594
_cell_angle_gamma                 60.0000
loop_
_atom_site_label
_atom_site_type_symbol
_atom_site_fract_x
_atom_site_fract_y
_atom_site_fract_z
_atom_site_U_iso_or_equiv
_atom_site_adp_type
_atom_site_occupancy
Cu1    Cu    0.56755   0.43245   0.50005   0.00000  Uiso   1.00
Cu2    Cu    0.43245   0.56756   0.49995   0.00000  Uiso   1.00
O1     O     0.56301   0.43702   0.55009   0.00000  Uiso   1.00
O2     O     0.56287   0.43687   0.44990   0.00000  Uiso   1.00
O3     O     0.50960   0.38360   0.49994   0.00000  Uiso   1.00
O4     O     0.61628   0.49029   0.50006   0.00000  Uiso   1.00
O5     O     0.49041   0.61640   0.50005   0.00000  Uiso   1.00
O6     O     0.38372   0.50972   0.49996   0.00000  Uiso   1.00
O7     O     0.43694   0.56293   0.44987   0.00000  Uiso   1.00
O8     O     0.43715   0.56315   0.55010   0.00000  Uiso   1.00
C1     C     0.50009   0.50009   0.57219   0.00000  Uiso   1.00
C2     C     0.49991   0.49992   0.42782   0.00000  Uiso   1.00
C3     C     0.42314   0.42314   0.49995   0.00000  Uiso   1.00
C4     C     0.57687   0.57687   0.50005   0.00000  Uiso   1.00
Cu3    Cu    0.00000   0.56757   0.50007   0.00000  Uiso   1.00
Cu4    Cu    0.00000   0.43246   0.49997   0.00000  Uiso   1.00
O9     O     0.00047   0.56279   0.55011   0.00000  Uiso   1.00
O10    O     0.99976   0.56312   0.44992   0.00000  Uiso   1.00
O11    O     0.10680   0.50961   0.49996   0.00000  Uiso   1.00
O12    O     0.89344   0.61629   0.50006   0.00000  Uiso   1.00
O13    O     0.89319   0.49042   0.50007   0.00000  Uiso   1.00
O14    O     0.10656   0.38374   0.49999   0.00000  Uiso   1.00
O15    O     0.99964   0.43719   0.44989   0.00000  Uiso   1.00
O16    O     0.00020   0.43693   0.55012   0.00000  Uiso   1.00
C5     C     0.00054   0.49976   0.57220   0.00000  Uiso   1.00
C6     C     0.99946   0.50027   0.42784   0.00000  Uiso   1.00
C7     C     0.15372   0.42315   0.49998   0.00000  Uiso   1.00
C8     C     0.84627   0.57688   0.50006   0.00000  Uiso   1.00
Cu5    Cu    0.43244   0.00001   0.50004   0.00000  Uiso   1.00
Cu6    Cu    0.56754   0.00001   0.49995   0.00000  Uiso   1.00
O17    O     0.43724   0.00025   0.55008   0.00000  Uiso   1.00
O18    O     0.43662   0.00001   0.44989   0.00000  Uiso   1.00
O19    O     0.38359   0.10681   0.49992   0.00000  Uiso   1.00
O20    O     0.49027   0.89345   0.50004   0.00000  Uiso   1.00
O21    O     0.61639   0.89321   0.50005   0.00000  Uiso   1.00
O22    O     0.50971   0.10657   0.49995   0.00000  Uiso   1.00
O23    O     0.56268   0.99989   0.44986   0.00000  Uiso   1.00
O24    O     0.56337   0.99998   0.55010   0.00000  Uiso   1.00
C9     C     0.50043   0.00021   0.57218   0.00000  Uiso   1.00
C10    C     0.49956   0.99981   0.42781   0.00000  Uiso   1.00
C11    C     0.42313   0.15373   0.49994   0.00000  Uiso   1.00
C12    C     0.57686   0.84629   0.50005   0.00000  Uiso   1.00
Cu7    Cu    0.43276   0.56785   0.99995   0.00000  Uiso   1.00
Cu8    Cu    0.56761   0.43249   0.00005   0.00000  Uiso   1.00
O25    O     0.43727   0.56328   0.94991   0.00000  Uiso   1.00
O26    O     0.43722   0.56318   0.05010   0.00000  Uiso   1.00
O27    O     0.38360   0.51019   0.99986   0.00000  Uiso   1.00
O28    O     0.49088   0.61627   0.00016   0.00000  Uiso   1.00
O29    O     0.61677   0.49016   0.00016   0.00000  Uiso   1.00
O30    O     0.50948   0.38408   0.99983   0.00000  Uiso   1.00
O31    O     0.56304   0.43701   0.05013   0.00000  Uiso   1.00
O32    O     0.56316   0.43718   0.94990   0.00000  Uiso   1.00
C13    C     0.50021   0.50022   0.92782   0.00000  Uiso   1.00
C14    C     0.50016   0.50012   0.07219   0.00000  Uiso   1.00
C15    C     0.42289   0.42374   0.99975   0.00000  Uiso   1.00
C16    C     0.57748   0.57660   0.00025   0.00000  Uiso   1.00
Cu9    Cu    0.00440   0.43037   0.99998   0.00000  Uiso   1.00
Cu10   Cu    0.00490   0.56522   0.00006   0.00000  Uiso   1.00
O33    O     0.00396   0.43512   0.94994   0.00000  Uiso   1.00
O34    O     0.00511   0.43459   0.05013   0.00000  Uiso   1.00
O35    O     0.11122   0.38122   0.99989   0.00000  Uiso   1.00
O36    O     0.89786   0.48850   0.00018   0.00000  Uiso   1.00
O37    O     0.89809   0.61438   0.00017   0.00000  Uiso   1.00
O38    O     0.11145   0.50710   0.99985   0.00000  Uiso   1.00
O39    O     0.00546   0.56041   0.05015   0.00000  Uiso   1.00
O40    O     0.00416   0.56102   0.94991   0.00000  Uiso   1.00
C17    C     0.00385   0.49817   0.92784   0.00000  Uiso   1.00
C18    C     0.00545   0.49743   0.07221   0.00000  Uiso   1.00
C19    C     0.15837   0.42050   0.99978   0.00000  Uiso   1.00
C20    C     0.85093   0.57509   0.00026   0.00000  Uiso   1.00
Cu11   Cu    0.57023   0.00202   0.99995   0.00000  Uiso   1.00
Cu12   Cu    0.43488   0.00252   0.00003   0.00000  Uiso   1.00
O41    O     0.56542   0.00182   0.94991   0.00000  Uiso   1.00
O42    O     0.56580   0.00249   0.05010   0.00000  Uiso   1.00
O43    O     0.51257   0.10884   0.99985   0.00000  Uiso   1.00
O44    O     0.61865   0.89548   0.00016   0.00000  Uiso   1.00
O45    O     0.49254   0.89571   0.00015   0.00000  Uiso   1.00
O46    O     0.38646   0.10907   0.99981   0.00000  Uiso   1.00
O47    O     0.43964   0.00284   0.05012   0.00000  Uiso   1.00
O48    O     0.43932   0.00202   0.94988   0.00000  Uiso   1.00
C21    C     0.50226   0.00181   0.92781   0.00000  Uiso   1.00
C22    C     0.50285   0.00273   0.07218   0.00000  Uiso   1.00
C23    C     0.42612   0.15599   0.99974   0.00000  Uiso   1.00
C24    C     0.57899   0.84855   0.00025   0.00000  Uiso   1.00
C25    C     0.75396   0.62303   0.50006   0.00000  Uiso   1.00
C26    C     0.70960   0.58082   0.50006   0.00000  Uiso   1.00
C27    C     0.62302   0.62303   0.50005   0.00000  Uiso   1.00
C28    C     0.58081   0.70960   0.50005   0.00000  Uiso   1.00
C29    C     0.62301   0.75397   0.50005   0.00000  Uiso   1.00
C30    C     0.70959   0.70961   0.50005   0.00000  Uiso   1.00
H1     H     0.74278   0.51446   0.50006   0.00000  Uiso   1.00
H2     H     0.74277   0.74279   0.50006   0.00000  Uiso   1.00
H3     H     0.51445   0.74278   0.50005   0.00000  Uiso   1.00
C31    C     0.37697   0.24605   0.49995   0.00000  Uiso   1.00
C32    C     0.41919   0.29041   0.49995   0.00000  Uiso   1.00
C33    C     0.37698   0.37699   0.49995   0.00000  Uiso   1.00
C34    C     0.29040   0.41920   0.49997   0.00000  Uiso   1.00
C35    C     0.24603   0.37699   0.49997   0.00000  Uiso   1.00
C36    C     0.29040   0.29042   0.49996   0.00000  Uiso   1.00
H4     H     0.48555   0.25723   0.49994   0.00000  Uiso   1.00
H5     H     0.25722   0.25724   0.49996   0.00000  Uiso   1.00
H6     H     0.25722   0.48556   0.49997   0.00000  Uiso   1.00
C37    C     0.50020   0.50022   0.88703   0.00000  Uiso   1.00
C38    C     0.43584   0.56468   0.86579   0.00000  Uiso   1.00
C39    C     0.43563   0.56486   0.82526   0.00000  Uiso   1.00
C40    C     0.50017   0.50020   0.80477   0.00000  Uiso   1.00
C41    C     0.56472   0.43554   0.82535   0.00000  Uiso   1.00
C42    C     0.56454   0.43575   0.86588   0.00000  Uiso   1.00
C43    C     0.50015   0.50019   0.76721   0.00000  Uiso   1.00
C44    C     0.50014   0.50018   0.73279   0.00000  Uiso   1.00
C45    C     0.50013   0.50016   0.69523   0.00000  Uiso   1.00
C46    C     0.43560   0.56482   0.67465   0.00000  Uiso   1.00
C47    C     0.43577   0.56461   0.63412   0.00000  Uiso   1.00
C48    C     0.50011   0.50012   0.61297   0.00000  Uiso   1.00
C49    C     0.56445   0.43565   0.63422   0.00000  Uiso   1.00
C50    C     0.56465   0.43548   0.67475   0.00000  Uiso   1.00
H7     H     0.38801   0.61256   0.81100   0.00000  Uiso   1.00
H8     H     0.61234   0.38783   0.81117   0.00000  Uiso   1.00
H9     H     0.38799   0.61255   0.68883   0.00000  Uiso   1.00
H10    H     0.61227   0.38777   0.68901   0.00000  Uiso   1.00
C51    C     0.50012   0.50009   0.11297   0.00000  Uiso   1.00
C52    C     0.43574   0.56453   0.13412   0.00000  Uiso   1.00
C53    C     0.43552   0.56470   0.17465   0.00000  Uiso   1.00
C54    C     0.50006   0.50005   0.19523   0.00000  Uiso   1.00
C55    C     0.56463   0.43541   0.17475   0.00000  Uiso   1.00
C56    C     0.56447   0.43563   0.13422   0.00000  Uiso   1.00
C57    C     0.50002   0.50003   0.23279   0.00000  Uiso   1.00
C58    C     0.50000   0.50001   0.26721   0.00000  Uiso   1.00
C59    C     0.49998   0.49999   0.30477   0.00000  Uiso   1.00
C60    C     0.43539   0.56460   0.32526   0.00000  Uiso   1.00
C61    C     0.43556   0.56439   0.36579   0.00000  Uiso   1.00
C62    C     0.49993   0.49994   0.38703   0.00000  Uiso   1.00
C63    C     0.56432   0.43551   0.36588   0.00000  Uiso   1.00
C64    C     0.56453   0.43534   0.32535   0.00000  Uiso   1.00
H11    H     0.38787   0.61239   0.18883   0.00000  Uiso   1.00
H12    H     0.61225   0.38771   0.18901   0.00000  Uiso   1.00
H13    H     0.38776   0.61230   0.31100   0.00000  Uiso   1.00
H14    H     0.61218   0.38766   0.31117   0.00000  Uiso   1.00
C65    C     0.00346   0.49835   0.88705   0.00000  Uiso   1.00
C66    C     0.00314   0.43410   0.86581   0.00000  Uiso   1.00
C67    C     0.00276   0.43409   0.82528   0.00000  Uiso   1.00
C68    C     0.00269   0.49872   0.80479   0.00000  Uiso   1.00
C69    C     0.00299   0.56317   0.82537   0.00000  Uiso   1.00
C70    C     0.00338   0.56280   0.86590   0.00000  Uiso   1.00
C71    C     0.00233   0.49888   0.76723   0.00000  Uiso   1.00
C72    C     0.00201   0.49903   0.73281   0.00000  Uiso   1.00
C73    C     0.00167   0.49921   0.69525   0.00000  Uiso   1.00
C74    C     0.00133   0.43477   0.67467   0.00000  Uiso   1.00
C75    C     0.00096   0.43514   0.63414   0.00000  Uiso   1.00
C76    C     0.00091   0.49958   0.61299   0.00000  Uiso   1.00
C77    C     0.00124   0.56382   0.63423   0.00000  Uiso   1.00
C78    C     0.00162   0.56383   0.67476   0.00000  Uiso   1.00
H15    H     0.00254   0.38653   0.81103   0.00000  Uiso   1.00
H16    H     0.00294   0.61086   0.81118   0.00000  Uiso   1.00
H17    H     0.00136   0.38709   0.68886   0.00000  Uiso   1.00
H18    H     0.00185   0.61138   0.68902   0.00000  Uiso   1.00
C79    C     0.99591   0.50199   0.11299   0.00000  Uiso   1.00
C80    C     0.99607   0.43751   0.13414   0.00000  Uiso   1.00
C81    C     0.99653   0.43709   0.17467   0.00000  Uiso   1.00
C82    C     0.99685   0.50153   0.19525   0.00000  Uiso   1.00
C83    C     0.99671   0.56620   0.17476   0.00000  Uiso   1.00
C84    C     0.99624   0.56624   0.13423   0.00000  Uiso   1.00
C85    C     0.99728   0.50132   0.23281   0.00000  Uiso   1.00
C86    C     0.99766   0.50112   0.26723   0.00000  Uiso   1.00
C87    C     0.99809   0.50092   0.30479   0.00000  Uiso   1.00
C88    C     0.99826   0.43624   0.32528   0.00000  Uiso   1.00
C89    C     0.99871   0.43622   0.36581   0.00000  Uiso   1.00
C90    C     0.99901   0.50048   0.38705   0.00000  Uiso   1.00
C91    C     0.99883   0.56497   0.36590   0.00000  Uiso   1.00
C92    C     0.99838   0.56538   0.32537   0.00000  Uiso   1.00
H19    H     0.99663   0.38938   0.18886   0.00000  Uiso   1.00
H20    H     0.99693   0.61375   0.18902   0.00000  Uiso   1.00
H21    H     0.99805   0.38868   0.31103   0.00000  Uiso   1.00
H22    H     0.99827   0.61310   0.31118   0.00000  Uiso   1.00
C93    C     0.50206   0.00162   0.88702   0.00000  Uiso   1.00
C94    C     0.56642   0.00141   0.86578   0.00000  Uiso   1.00
C95    C     0.56640   0.00122   0.82525   0.00000  Uiso   1.00
C96    C     0.50164   0.00124   0.80476   0.00000  Uiso   1.00
C97    C     0.43709   0.00145   0.82534   0.00000  Uiso   1.00
C98    C     0.43749   0.00164   0.86587   0.00000  Uiso   1.00
C99    C     0.50146   0.00107   0.76720   0.00000  Uiso   1.00
C100   C     0.50128   0.00091   0.73278   0.00000  Uiso   1.00
C101   C     0.50108   0.00074   0.69522   0.00000  Uiso   1.00
C102   C     0.56565   0.00051   0.67464   0.00000  Uiso   1.00
C103   C     0.56524   0.00033   0.63411   0.00000  Uiso   1.00
C104   C     0.50065   0.00038   0.61296   0.00000  Uiso   1.00
C105   C     0.43628   0.00061   0.63420   0.00000  Uiso   1.00
C106   C     0.43630   0.00079   0.67473   0.00000  Uiso   1.00
H23    H     0.61404   0.00107   0.81100   0.00000  Uiso   1.00
H24    H     0.38931   0.00147   0.81115   0.00000  Uiso   1.00
H25    H     0.61344   0.00047   0.68883   0.00000  Uiso   1.00
H26    H     0.38866   0.00096   0.68899   0.00000  Uiso   1.00
C107   C     0.49823   0.99778   0.11296   0.00000  Uiso   1.00
C108   C     0.56277   0.99783   0.13411   0.00000  Uiso   1.00
C109   C     0.56313   0.99810   0.17464   0.00000  Uiso   1.00
C110   C     0.49857   0.99832   0.19522   0.00000  Uiso   1.00
C111   C     0.43384   0.99827   0.17473   0.00000  Uiso   1.00
C112   C     0.43386   0.99801   0.13420   0.00000  Uiso   1.00
C113   C     0.49874   0.99857   0.23279   0.00000  Uiso   1.00
C114   C     0.49889   0.99879   0.26720   0.00000  Uiso   1.00
C115   C     0.49904   0.99903   0.30476   0.00000  Uiso   1.00
C116   C     0.56376   0.99910   0.32525   0.00000  Uiso   1.00
C117   C     0.56373   0.99936   0.36578   0.00000  Uiso   1.00
C118   C     0.49938   0.99956   0.38702   0.00000  Uiso   1.00
C119   C     0.43485   0.99949   0.36587   0.00000  Uiso   1.00
C120   C     0.43449   0.99923   0.32534   0.00000  Uiso   1.00
H27    H     0.61089   0.99813   0.18883   0.00000  Uiso   1.00
H28    H     0.38621   0.99843   0.18899   0.00000  Uiso   1.00
H29    H     0.61138   0.99897   0.31100   0.00000  Uiso   1.00
H30    H     0.38675   0.99919   0.31115   0.00000  Uiso   1.00
C121   C     0.62440   0.75319   0.00069   0.00000  Uiso   1.00
C122   C     0.58194   0.70907   0.00052   0.00000  Uiso   1.00
C123   C     0.62390   0.62249   0.00043   0.00000  Uiso   1.00
C124   C     0.71048   0.58004   0.00052   0.00000  Uiso   1.00
C125   C     0.75509   0.62200   0.00069   0.00000  Uiso   1.00
C126   C     0.71097   0.70858   0.00077   0.00000  Uiso   1.00
H31    H     0.51558   0.74244   0.00045   0.00000  Uiso   1.00
H32    H     0.74434   0.74157   0.00090   0.00000  Uiso   1.00
H33    H     0.74347   0.51368   0.00045   0.00000  Uiso   1.00
C127   C     0.24529   0.37833   0.99932   0.00000  Uiso   1.00
C128   C     0.28989   0.42029   0.99949   0.00000  Uiso   1.00
C129   C     0.37647   0.37784   0.99957   0.00000  Uiso   1.00
C130   C     0.41844   0.29127   0.99947   0.00000  Uiso   1.00
C131   C     0.37599   0.24714   0.99930   0.00000  Uiso   1.00
C132   C     0.28942   0.29175   0.99923   0.00000  Uiso   1.00
H34    H     0.25690   0.48666   0.99957   0.00000  Uiso   1.00
H35    H     0.25605   0.25876   0.99909   0.00000  Uiso   1.00
H36    H     0.48480   0.25791   0.99952   0.00000  Uiso   1.00
O49    O     0.37536   0.62528   0.88358   0.00000  Uiso   1.00
Li1    Li    0.28929   0.71149   0.86790   0.00000  Uiso   1.00
O50    O     0.62504   0.37515   0.88376   0.00000  Uiso   1.00
Li2    Li    0.71109   0.28894   0.86821   0.00000  Uiso   1.00
O51    O     0.37529   0.62521   0.61624   0.00000  Uiso   1.00
Li3    Li    0.28925   0.71145   0.63178   0.00000  Uiso   1.00
O52    O     0.62492   0.37503   0.61643   0.00000  Uiso   1.00
Li4    Li    0.71097   0.28881   0.63212   0.00000  Uiso   1.00
O53    O     0.37525   0.62513   0.11623   0.00000  Uiso   1.00
Li5    Li    0.28916   0.71131   0.13178   0.00000  Uiso   1.00
O54    O     0.62499   0.37505   0.11643   0.00000  Uiso   1.00
Li6    Li    0.71105   0.28885   0.13212   0.00000  Uiso   1.00
O55    O     0.37504   0.62495   0.38358   0.00000  Uiso   1.00
Li7    Li    0.28895   0.71114   0.36790   0.00000  Uiso   1.00
O56    O     0.62482   0.37492   0.38376   0.00000  Uiso   1.00
Li8    Li    0.71093   0.28875   0.36821   0.00000  Uiso   1.00
O57    O     0.00321   0.37353   0.88361   0.00000  Uiso   1.00
Li9    Li    0.00290   0.28754   0.86793   0.00000  Uiso   1.00
O58    O     0.00365   0.62321   0.88377   0.00000  Uiso   1.00
Li10   Li    0.00366   0.70934   0.86822   0.00000  Uiso   1.00
O59    O     0.00066   0.37475   0.61626   0.00000  Uiso   1.00
Li11   Li    0.00062   0.28863   0.63182   0.00000  Uiso   1.00
O60    O     0.00121   0.62438   0.61644   0.00000  Uiso   1.00
Li12   Li    0.00154   0.71035   0.63212   0.00000  Uiso   1.00
O61    O     0.99578   0.37711   0.11626   0.00000  Uiso   1.00
Li13   Li    0.99584   0.29094   0.13181   0.00000  Uiso   1.00
O62    O     0.99612   0.62684   0.11644   0.00000  Uiso   1.00
Li14   Li    0.99642   0.71283   0.13212   0.00000  Uiso   1.00
O63    O     0.99885   0.37561   0.38360   0.00000  Uiso   1.00
Li15   Li    0.99859   0.28960   0.36793   0.00000  Uiso   1.00
O64    O     0.99909   0.62539   0.38377   0.00000  Uiso   1.00
Li16   Li    0.99900   0.71157   0.36822   0.00000  Uiso   1.00
O65    O     0.62710   0.00138   0.88358   0.00000  Uiso   1.00
Li17   Li    0.71324   0.00115   0.86791   0.00000  Uiso   1.00
O66    O     0.37698   0.00183   0.88374   0.00000  Uiso   1.00
Li18   Li    0.29069   0.00191   0.86818   0.00000  Uiso   1.00
O67    O     0.62575   0.00012   0.61624   0.00000  Uiso   1.00
Li19   Li    0.71207   0.00000   0.63179   0.00000  Uiso   1.00
O68    O     0.37558   0.00066   0.61641   0.00000  Uiso   1.00
Li20   Li    0.28943   0.00092   0.63209   0.00000  Uiso   1.00
O69    O     0.62328   0.99763   0.11624   0.00000  Uiso   1.00
Li21   Li    0.70954   0.99762   0.13179   0.00000  Uiso   1.00
O70    O     0.37320   0.99797   0.11641   0.00000  Uiso   1.00
Li22   Li    0.28707   0.99819   0.13209   0.00000  Uiso   1.00
O71    O     0.62438   0.99942   0.38358   0.00000  Uiso   1.00
Li23   Li    0.71049   0.99924   0.36791   0.00000  Uiso   1.00
O72    O     0.37436   0.99966   0.38374   0.00000  Uiso   1.00
Li24   Li    0.28811   0.99965   0.36818   0.00000  Uiso   1.00
