# Generated by REPEAT Assigner based on pymatgen
data_DB1-Cu2N8-ADC_B-irmof7_B_No108
_audit_creation_date              2022-05-24
_audit_creation_method            REPEAT_Assigner
_cell_length_a                    25.630000
_cell_length_b                    13.547700
_cell_length_c                    7.052800
_cell_angle_alpha                 90.000000
_cell_angle_beta                  90.000000
_cell_angle_gamma                 58.090000
_cell_volume                      2078.843344
_symmetry_space_group_name_H-M    P1
_symmetry_Int_Tables_number       1
loop_
    _symmetry_equiv_pos_site_id
    _symmetry_equiv_pos_as_xyz
    1  x,y,z
loop_
    _atom_site_type_symbol
    _atom_site_label
    _atom_site_fract_x
    _atom_site_fract_y
    _atom_site_fract_z
    _atom_type_partial_charge
    Cu  Cu1  0.500000  0.500000  0.000000  0.276753
    Cu  Cu2  0.500000  0.500000  0.500000  0.319282
    N   N1   0.564800  0.369370  0.156200  0.140983
    N   N2   0.613460  0.273410  0.092900  -0.590989
    N   N3   0.435200  0.498980  0.343800  0.054651
    N   N4   0.386540  0.500330  0.407100  -0.533629
    N   N5   0.435200  0.630620  0.656200  0.031891
    N   N6   0.386540  0.726580  0.592900  -0.539822
    N   N7   0.564800  0.501020  0.843800  0.032553
    N   N8   0.613460  0.499660  0.907100  -0.517776
    N   N9   0.435200  0.630620  0.843800  0.148080
    N   N10  0.386540  0.726580  0.907100  -0.637277
    N   N11  0.564800  0.501020  0.656200  0.141088
    N   N12  0.613460  0.499660  0.592900  -0.651861
    N   N13  0.564800  0.369370  0.343800  0.056707
    N   N14  0.613460  0.273410  0.407100  -0.578761
    N   N15  0.435200  0.498980  0.156200  0.112064
    N   N16  0.386540  0.500330  0.092900  -0.609639
    C   C1   0.642250  0.215770  0.250000  1.000087
    C   C2   0.357750  0.500260  0.250000  1.050477
    C   C3   0.357750  0.784230  0.750000  1.053301
    C   C4   0.642250  0.499730  0.750000  1.026737
    Cu  Cu3  0.000000  0.500000  0.000000  0.284789
    Cu  Cu4  0.000000  0.500000  0.500000  0.319934
    N   N17  0.935190  0.630620  0.156200  0.155060
    N   N18  0.886540  0.726580  0.092900  -0.657086
    N   N19  0.064800  0.501020  0.343800  0.098964
    N   N20  0.113460  0.499660  0.407100  -0.618384
    N   N21  0.064800  0.369370  0.656200  0.054448
    N   N22  0.113460  0.273410  0.592900  -0.585546
    N   N23  0.935200  0.498980  0.843800  0.071866
    N   N24  0.886540  0.500330  0.907100  -0.579080
    N   N25  0.064800  0.369370  0.843800  0.106802
    N   N26  0.113460  0.273410  0.907100  -0.551554
    N   N27  0.935200  0.498980  0.656200  0.141539
    N   N28  0.886540  0.500330  0.592900  -0.602793
    N   N29  0.935190  0.630620  0.343800  0.028973
    N   N30  0.886540  0.726580  0.407100  -0.533419
    N   N31  0.064800  0.501020  0.156200  0.081781
    N   N32  0.113460  0.499660  0.092900  -0.558542
    C   C5   0.857750  0.784230  0.250000  1.050643
    C   C6   0.142250  0.499730  0.250000  0.999299
    C   C7   0.142250  0.215770  0.750000  0.991741
    C   C8   0.857750  0.500260  0.750000  1.010625
    C   C9   0.800850  0.500120  0.750000  -0.717019
    C   C10  0.753100  0.575330  0.872740  0.625919
    C   C11  0.795240  0.424780  0.627260  0.437783
    C   C12  0.760720  0.648930  0.992640  -0.921448
    C   C13  0.714330  0.725010  0.116800  0.463097
    H   H1   0.797470  0.647030  0.989400  0.484964
    C   C14  0.699140  0.499870  0.750000  -0.466097
    C   C15  0.746900  0.424670  0.627260  0.156552
    C   C16  0.704760  0.575210  0.872740  0.180737
    C   C17  0.655980  0.648670  0.992640  -0.547573
    C   C18  0.659750  0.724880  0.116800  0.324079
    H   H2   0.620340  0.646600  0.989400  0.214960
    C   C19  0.199140  0.499870  0.250000  -0.577779
    C   C20  0.246900  0.424670  0.372740  0.448978
    C   C21  0.204760  0.575210  0.127260  0.221796
    C   C22  0.239280  0.351070  0.492640  -0.864121
    C   C23  0.285670  0.274980  0.616800  0.409764
    H   H3   0.202520  0.352970  0.489400  0.432175
    C   C24  0.300850  0.500120  0.250000  -0.707568
    C   C25  0.253100  0.575330  0.127260  0.422577
    C   C26  0.295240  0.424780  0.372740  0.428386
    C   C27  0.344010  0.351330  0.492640  -0.577320
    C   C28  0.340250  0.275120  0.616800  0.308030
    H   H4   0.379660  0.353400  0.489400  0.229800
    C   C29  0.800850  0.898160  0.250000  -0.484342
    C   C30  0.795240  0.984740  0.372740  0.168336
    C   C31  0.753100  0.918460  0.127260  0.177471
    C   C32  0.844010  0.960640  0.492640  -0.513859
    C   C33  0.840250  0.044370  0.616800  0.281787
    H   H5   0.879660  0.887270  0.489400  0.214601
    C   C34  0.699140  0.101840  0.250000  -0.717137
    C   C35  0.704760  0.015260  0.127260  0.427941
    C   C36  0.746900  0.081530  0.372740  0.638863
    C   C37  0.739280  0.170360  0.492640  -0.936950
    C   C38  0.785670  0.153670  0.616800  0.488449
    H   H6   0.702520  0.241980  0.489400  0.488886
    C   C39  0.199140  0.101840  0.750000  -0.592026
    C   C40  0.246900  0.081530  0.627260  0.462722
    C   C41  0.204760  0.015260  0.872740  0.237091
    C   C42  0.239280  0.170360  0.507360  -0.852212
    C   C43  0.285670  0.153670  0.383200  0.405429
    H   H7   0.202520  0.241980  0.510600  0.403366
    C   C44  0.300850  0.898160  0.750000  -0.689754
    C   C45  0.253100  0.918460  0.872740  0.407668
    C   C46  0.295240  0.984740  0.627260  0.408862
    C   C47  0.344010  0.960640  0.507360  -0.568561
    C   C48  0.340250  0.044370  0.383200  0.306928
    H   H8   0.379660  0.887270  0.510600  0.226973
    O   O1   0.739080  0.344840  0.497210  -0.342497
    H   H9   0.692900  0.358130  0.519060  0.215463
    O   O2   0.847700  0.345100  0.497210  -0.450596
    H   H10  0.886380  0.358610  0.519060  0.309342
    O   O3   0.722720  0.804410  0.246150  -0.428172
    H   H11  0.768990  0.790520  0.223320  0.231528
    O   O4   0.606950  0.804130  0.246150  -0.526309
    H   H12  0.568520  0.790020  0.223320  0.371473
    O   O5   0.260920  0.655160  0.997210  -0.431140
    H   H13  0.307100  0.641860  0.019060  0.279034
    O   O6   0.152300  0.654890  0.997210  -0.443493
    H   H14  0.113620  0.641390  0.019060  0.311462
    O   O7   0.277280  0.195580  0.746150  -0.364014
    H   H15  0.231010  0.209480  0.723320  0.226841
    O   O8   0.393050  0.195870  0.746150  -0.482417
    H   H16  0.431480  0.209970  0.723320  0.367375
    O   O9   0.652300  0.040500  0.997210  -0.453824
    H   H17  0.613620  0.131370  0.019060  0.306129
    O   O10  0.760910  0.823000  0.997210  -0.346086
    H   H18  0.807100  0.743930  0.019060  0.207963
    O   O11  0.893050  0.018040  0.746150  -0.503613
    H   H19  0.931480  0.927060  0.723320  0.374373
    O   O12  0.777280  0.249850  0.746150  -0.432800
    H   H20  0.731010  0.328500  0.723320  0.232084
    O   O13  0.260910  0.823000  0.002790  -0.429888
    H   H21  0.307100  0.743930  0.980940  0.294489
    O   O14  0.152300  0.040500  0.002790  -0.445554
    H   H22  0.113620  0.131370  0.980940  0.313885
    O   O15  0.277280  0.249850  0.253850  -0.360862
    H   H23  0.231010  0.328500  0.276680  0.227693
    O   O16  0.393050  0.018040  0.253850  -0.474185
    H   H24  0.431480  0.927060  0.276680  0.350153
