# generated using pymatgen
data_LiCuH9C17O5
_symmetry_space_group_name_H-M   'P 1'
_cell_length_a   29.89150000
_cell_length_b   59.08510000
_cell_length_c   21.00970000
_cell_angle_alpha   122.34500000
_cell_angle_beta   45.16780000
_cell_angle_gamma   139.36800000
_symmetry_Int_Tables_number   1
_chemical_formula_structural   LiCuH9C17O5
_chemical_formula_sum   'Li8 Cu8 H72 C136 O40'
_cell_volume   17136.09626919
_cell_formula_units_Z   8
loop_
 _symmetry_equiv_pos_site_id
 _symmetry_equiv_pos_as_xyz
  1  'x, y, z'
loop_
 _atom_site_type_symbol
 _atom_site_label
 _atom_site_symmetry_multiplicity
 _atom_site_fract_x
 _atom_site_fract_y
 _atom_site_fract_z
 _atom_site_occupancy
  Li  Li1  1  0.51900000  0.49996000  0.76576000  1
  Li  Li2  1  0.98087000  0.49994000  0.23422000  1
  Li  Li3  1  0.21768000  0.50009000  0.76576000  1
  Li  Li4  1  0.28245000  0.49999000  0.23422000  1
  Li  Li5  1  0.76799000  0.00003000  0.19508000  1
  Li  Li6  1  0.22971000  0.99981000  0.79884000  1
  Li  Li7  1  0.46716000  0.00005000  0.79996000  1
  Li  Li8  1  0.53315000  0.00011000  0.20015000  1
  Cu  Cu1  1  0.45761000  0.49996000  0.58541000  1
  Cu  Cu2  1  0.54239000  0.50004000  0.41459000  1
  Cu  Cu3  1  0.04226000  0.49995000  0.41456000  1
  Cu  Cu4  1  0.95774000  0.50003000  0.58539000  1
  Cu  Cu5  1  0.70717000  0.00006000  0.49819000  1
  Cu  Cu6  1  0.79181000  0.99993000  0.49882000  1
  Cu  Cu7  1  0.29345000  0.99991000  0.50152000  1
  Cu  Cu8  1  0.20850000  0.00009000  0.50169000  1
  H  H1  1  0.65041000  0.49995000  0.63727000  1
  H  H2  1  0.84946000  0.49995000  0.36271000  1
  H  H3  1  0.79273000  0.49995000  0.63628000  1
  H  H4  1  0.71342000  0.49995000  0.63726000  1
  H  H5  1  0.70713000  0.49995000  0.36369000  1
  H  H6  1  0.78645000  0.49995000  0.36271000  1
  H  H7  1  0.21357000  0.50006000  0.63727000  1
  H  H8  1  0.28655000  0.50001000  0.36271000  1
  H  H9  1  0.07221000  0.50006000  0.63628000  1
  H  H10  1  0.15056000  0.50006000  0.63726000  1
  H  H11  1  0.42792000  0.50002000  0.36369000  1
  H  H12  1  0.34956000  0.50002000  0.36271000  1
  H  H13  1  0.83762000  0.10532000  0.49847000  1
  H  H14  1  0.93257000  0.16860000  0.49867000  1
  H  H15  1  0.97733000  0.10510000  0.49899000  1
  H  H16  1  0.07236000  0.16839000  0.49919000  1
  H  H17  1  0.07756000  0.21845000  0.59922000  1
  H  H18  1  0.07773000  0.21871000  0.39897000  1
  H  H19  1  0.41210000  0.39485000  0.35895000  1
  H  H20  1  0.31714000  0.33157000  0.35866000  1
  H  H21  1  0.27215000  0.39471000  0.64039000  1
  H  H22  1  0.17712000  0.33142000  0.64026000  1
  H  H23  1  0.17204000  0.28154000  0.39918000  1
  H  H24  1  0.17187000  0.28128000  0.59942000  1
  H  H25  1  0.16281000  0.89463000  0.50129000  1
  H  H26  1  0.06778000  0.83134000  0.50111000  1
  H  H27  1  0.02312000  0.89494000  0.50105000  1
  H  H28  1  0.92800000  0.83166000  0.50086000  1
  H  H29  1  0.82341000  0.78148000  0.60068000  1
  H  H30  1  0.02188000  0.78135000  0.40099000  1
  H  H31  1  0.72783000  0.60528000  0.35960000  1
  H  H32  1  0.82294000  0.66857000  0.35970000  1
  H  H33  1  0.58804000  0.60515000  0.64103000  1
  H  H34  1  0.68308000  0.66843000  0.64130000  1
  H  H35  1  0.92749000  0.71852000  0.40080000  1
  H  H36  1  0.72901000  0.71865000  0.60050000  1
  H  H37  1  0.47811000  0.10531000  0.50175000  1
  H  H38  1  0.57305000  0.16859000  0.50151000  1
  H  H39  1  0.33777000  0.10510000  0.50123000  1
  H  H40  1  0.43263000  0.16838000  0.50098000  1
  H  H41  1  0.57765000  0.21844000  0.40093000  1
  H  H42  1  0.57825000  0.21870000  0.60117000  1
  H  H43  1  0.77242000  0.39485000  0.64109000  1
  H  H44  1  0.67748000  0.33156000  0.64142000  1
  H  H45  1  0.91191000  0.39470000  0.35965000  1
  H  H46  1  0.81705000  0.33141000  0.35981000  1
  H  H47  1  0.67246000  0.28153000  0.60093000  1
  H  H48  1  0.67186000  0.28127000  0.40069000  1
  H  H49  1  0.52130000  0.89462000  0.49844000  1
  H  H50  1  0.42644000  0.83134000  0.49866000  1
  H  H51  1  0.66193000  0.89493000  0.49868000  1
  H  H52  1  0.56715000  0.83165000  0.49891000  1
  H  H53  1  0.52119000  0.78147000  0.39912000  1
  H  H54  1  0.32234000  0.78135000  0.59881000  1
  H  H55  1  0.08809000  0.60528000  0.64031000  1
  H  H56  1  0.18287000  0.66856000  0.64017000  1
  H  H57  1  0.22746000  0.60514000  0.35888000  1
  H  H58  1  0.32232000  0.66842000  0.35857000  1
  H  H59  1  0.22820000  0.71852000  0.59904000  1
  H  H60  1  0.42706000  0.71864000  0.39934000  1
  H  H61  1  0.89931000  0.99997000  0.05965000  1
  H  H62  1  0.09839000  0.99987000  0.93427000  1
  H  H63  1  0.04124000  0.99990000  0.77509000  1
  H  H64  1  0.96214000  0.99994000  0.93324000  1
  H  H65  1  0.95646000  0.99994000  0.21883000  1
  H  H66  1  0.03556000  0.99990000  0.06068000  1
  H  H67  1  0.46340000  0.00007000  0.93635000  1
  H  H68  1  0.53690000  0.00008000  0.06376000  1
  H  H69  1  0.32247000  0.00015000  0.22091000  1
  H  H70  1  0.40058000  0.00010000  0.06275000  1
  H  H71  1  0.67784000  0.00001000  0.77920000  1
  H  H72  1  0.59972000  0.00005000  0.93736000  1
  C  C1  1  0.40221000  0.43481000  0.49980000  1
  C  C2  1  0.59779000  0.56518000  0.50020000  1
  C  C3  1  0.41616000  0.50004000  0.50000000  1
  C  C4  1  0.58384000  0.49995000  0.50000000  1
  C  C5  1  0.90220000  0.43481000  0.50022000  1
  C  C6  1  0.09780000  0.56517000  0.49974000  1
  C  C7  1  0.08396000  0.50003000  0.49998000  1
  C  C8  1  0.91603000  0.49995000  0.49998000  1
  C  C9  1  0.84738000  0.06518000  0.49860000  1
  C  C10  1  0.65159000  0.93481000  0.49842000  1
  C  C11  1  0.66576000  0.99999000  0.66683000  1
  C  C12  1  0.83322000  0.00000000  0.33018000  1
  C  C13  1  0.15311000  0.93482000  0.50129000  1
  C  C14  1  0.34883000  0.06518000  0.50192000  1
  C  C15  1  0.16740000  0.99984000  0.66993000  1
  C  C16  1  0.33455000  0.00016000  0.33328000  1
  C  C17  1  0.63206000  0.49995000  0.49999000  1
  C  C18  1  0.86781000  0.49995000  0.49998000  1
  C  C19  1  0.61576000  0.49995000  0.58049000  1
  C  C20  1  0.66231000  0.49995000  0.58124000  1
  C  C21  1  0.88410000  0.49995000  0.41948000  1
  C  C22  1  0.83756000  0.49995000  0.41874000  1
  C  C23  1  0.80433000  0.49995000  0.58048000  1
  C  C24  1  0.75704000  0.49995000  0.58123000  1
  C  C25  1  0.69554000  0.49995000  0.41949000  1
  C  C26  1  0.74283000  0.49995000  0.41874000  1
  C  C27  1  0.72630000  0.49995000  0.49999000  1
  C  C28  1  0.77357000  0.49995000  0.49999000  1
  C  C29  1  0.36794000  0.50004000  0.49999000  1
  C  C30  1  0.13219000  0.50003000  0.49998000  1
  C  C31  1  0.30448000  0.50005000  0.58049000  1
  C  C32  1  0.25719000  0.50005000  0.58124000  1
  C  C33  1  0.19565000  0.50002000  0.41948000  1
  C  C34  1  0.24294000  0.50002000  0.41874000  1
  C  C35  1  0.11591000  0.50005000  0.58048000  1
  C  C36  1  0.16246000  0.50005000  0.58123000  1
  C  C37  1  0.38422000  0.50003000  0.41949000  1
  C  C38  1  0.33767000  0.50002000  0.41874000  1
  C  C39  1  0.27370000  0.50004000  0.49999000  1
  C  C40  1  0.22643000  0.50004000  0.49999000  1
  C  C41  1  0.90121000  0.10103000  0.49871000  1
  C  C42  1  0.88747000  0.11886000  0.49862000  1
  C  C43  1  0.94206000  0.15516000  0.49874000  1
  C  C44  1  0.96827000  0.11873000  0.49892000  1
  C  C45  1  0.02266000  0.15504000  0.49904000  1
  C  C46  1  0.01003000  0.17353000  0.49895000  1
  C  C47  1  0.06955000  0.21319000  0.49908000  1
  C  C48  1  0.09734000  0.23166000  0.55677000  1
  C  C49  1  0.09743000  0.23181000  0.44151000  1
  C  C50  1  0.34839000  0.39896000  0.49968000  1
  C  C51  1  0.36220000  0.38124000  0.41824000  1
  C  C52  1  0.30761000  0.34493000  0.41832000  1
  C  C53  1  0.28126000  0.38115000  0.58101000  1
  C  C54  1  0.22687000  0.34485000  0.58069000  1
  C  C55  1  0.23957000  0.32646000  0.49945000  1
  C  C56  1  0.18005000  0.28680000  0.49932000  1
  C  C57  1  0.15226000  0.26833000  0.44163000  1
  C  C58  1  0.15216000  0.26819000  0.55689000  1
  C  C59  1  0.09924000  0.89896000  0.50118000  1
  C  C60  1  0.11295000  0.88111000  0.50120000  1
  C  C61  1  0.05831000  0.84480000  0.50109000  1
  C  C62  1  0.03216000  0.88129000  0.50106000  1
  C  C63  1  0.97772000  0.84499000  0.50095000  1
  C  C64  1  0.99032000  0.82646000  0.50097000  1
  C  C65  1  0.93075000  0.78681000  0.50085000  1
  C  C66  1  0.84577000  0.76830000  0.55827000  1
  C  C67  1  0.96001000  0.76823000  0.44332000  1
  C  C68  1  0.65166000  0.60104000  0.50030000  1
  C  C69  1  0.71877000  0.61884000  0.41897000  1
  C  C70  1  0.77321000  0.65514000  0.41928000  1
  C  C71  1  0.63792000  0.61876000  0.58174000  1
  C  C72  1  0.69256000  0.65507000  0.58165000  1
  C  C73  1  0.76058000  0.67354000  0.50052000  1
  C  C74  1  0.82015000  0.71319000  0.50063000  1
  C  C75  1  0.90513000  0.73170000  0.44322000  1
  C  C76  1  0.79089000  0.73177000  0.55816000  1
  C  C77  1  0.40168000  0.10103000  0.50151000  1
  C  C78  1  0.46890000  0.11885000  0.50159000  1
  C  C79  1  0.52324000  0.15515000  0.50145000  1
  C  C80  1  0.38773000  0.11873000  0.50129000  1
  C  C81  1  0.44227000  0.15503000  0.50115000  1
  C  C82  1  0.51039000  0.17352000  0.50123000  1
  C  C83  1  0.56986000  0.21318000  0.50107000  1
  C  C84  1  0.59749000  0.23165000  0.44337000  1
  C  C85  1  0.59784000  0.23180000  0.55863000  1
  C  C86  1  0.84843000  0.39895000  0.50035000  1
  C  C87  1  0.78145000  0.38123000  0.58181000  1
  C  C88  1  0.72712000  0.34493000  0.58175000  1
  C  C89  1  0.86213000  0.38114000  0.41904000  1
  C  C90  1  0.80759000  0.34484000  0.41938000  1
  C  C91  1  0.73971000  0.32645000  0.50064000  1
  C  C92  1  0.68025000  0.28679000  0.50079000  1
  C  C93  1  0.65261000  0.26833000  0.55849000  1
  C  C94  1  0.65227000  0.26818000  0.44323000  1
  C  C95  1  0.59787000  0.89895000  0.49855000  1
  C  C96  1  0.53059000  0.88110000  0.49854000  1
  C  C97  1  0.47630000  0.84480000  0.49867000  1
  C  C98  1  0.61193000  0.88128000  0.49868000  1
  C  C99  1  0.55743000  0.84498000  0.49881000  1
  C  C100  1  0.48925000  0.82646000  0.49880000  1
  C  C101  1  0.42984000  0.78680000  0.49895000  1
  C  C102  1  0.45929000  0.76829000  0.44154000  1
  C  C103  1  0.34483000  0.76822000  0.55648000  1
  C  C104  1  0.15152000  0.60103000  0.49961000  1
  C  C105  1  0.13783000  0.61883000  0.58093000  1
  C  C106  1  0.19232000  0.65514000  0.58060000  1
  C  C107  1  0.21844000  0.61875000  0.41816000  1
  C  C108  1  0.27273000  0.65506000  0.41823000  1
  C  C109  1  0.26014000  0.67353000  0.49935000  1
  C  C110  1  0.31955000  0.71318000  0.49921000  1
  C  C111  1  0.29010000  0.73169000  0.55662000  1
  C  C112  1  0.40456000  0.73176000  0.44167000  1
  C  C113  1  0.88131000  0.99998000  0.23343000  1
  C  C114  1  0.11639000  0.99986000  0.76048000  1
  C  C115  1  0.86488000  0.99998000  0.18580000  1
  C  C116  1  0.91130000  0.99996000  0.09168000  1
  C  C117  1  0.13281000  0.99986000  0.80811000  1
  C  C118  1  0.08640000  0.99988000  0.90224000  1
  C  C119  1  0.05292000  0.99989000  0.80751000  1
  C  C120  1  0.00576000  0.99992000  0.90163000  1
  C  C121  1  0.94478000  0.99994000  0.18641000  1
  C  C122  1  0.99194000  0.99992000  0.09229000  1
  C  C123  1  0.97528000  0.99993000  0.04438000  1
  C  C124  1  0.02242000  0.99991000  0.94954000  1
  C  C125  1  0.61768000  0.00002000  0.76358000  1
  C  C126  1  0.38263000  0.00014000  0.23653000  1
  C  C127  1  0.55419000  0.00003000  0.81061000  1
  C  C128  1  0.50704000  0.00006000  0.90473000  1
  C  C129  1  0.44612000  0.00012000  0.18950000  1
  C  C130  1  0.49327000  0.00010000  0.09538000  1
  C  C131  1  0.36618000  0.00013000  0.18891000  1
  C  C132  1  0.41259000  0.00011000  0.09478000  1
  C  C133  1  0.63412000  0.00002000  0.81120000  1
  C  C134  1  0.58772000  0.00005000  0.90533000  1
  C  C135  1  0.52372000  0.00006000  0.95263000  1
  C  C136  1  0.47659000  0.00009000  0.04748000  1
  O  O1  1  0.39262000  0.45477000  0.57952000  1
  O  O2  1  0.52833000  0.54524000  0.57979000  1
  O  O3  1  0.40232000  0.50006000  0.57965000  1
  O  O4  1  0.51862000  0.49995000  0.57965000  1
  O  O5  1  0.59770000  0.49995000  0.42035000  1
  O  O6  1  0.48136000  0.50003000  0.42035000  1
  O  O7  1  0.60737000  0.54527000  0.42048000  1
  O  O8  1  0.47169000  0.45475000  0.42021000  1
  O  O9  1  0.97166000  0.45476000  0.42049000  1
  O  O10  1  0.10743000  0.54523000  0.42016000  1
  O  O11  1  0.09785000  0.50004000  0.42032000  1
  O  O12  1  0.98124000  0.49995000  0.42032000  1
  O  O13  1  0.90217000  0.49995000  0.57963000  1
  O  O14  1  0.01874000  0.50002000  0.57963000  1
  O  O15  1  0.02846000  0.54526000  0.57946000  1
  O  O16  1  0.89256000  0.45475000  0.57979000  1
  O  O17  1  0.77783000  0.04524000  0.49838000  1
  O  O18  1  0.64194000  0.95477000  0.49830000  1
  O  O19  1  0.65175000  0.99998000  0.61516000  1
  O  O20  1  0.76802000  0.00003000  0.38153000  1
  O  O21  1  0.84721000  0.99999000  0.38185000  1
  O  O22  1  0.73097000  0.99997000  0.61549000  1
  O  O23  1  0.72102000  0.95471000  0.49876000  1
  O  O24  1  0.85705000  0.04522000  0.49868000  1
  O  O25  1  0.22269000  0.95473000  0.50142000  1
  O  O26  1  0.35849000  0.04520000  0.50190000  1
  O  O27  1  0.23262000  0.99987000  0.61847000  1
  O  O28  1  0.34856000  0.00005000  0.38484000  1
  O  O29  1  0.26934000  0.00015000  0.38473000  1
  O  O30  1  0.15337000  0.99994000  0.61837000  1
  O  O31  1  0.27925000  0.04532000  0.50192000  1
  O  O32  1  0.14347000  0.95481000  0.50128000  1
  O  O33  1  0.55667000  0.49995000  0.65594000  1
  O  O34  1  0.94320000  0.49995000  0.34403000  1
  O  O35  1  0.28881000  0.50007000  0.65594000  1
  O  O36  1  0.21131000  0.50001000  0.34403000  1
  O  O37  1  0.80580000  0.00001000  0.22907000  1
  O  O38  1  0.19190000  0.99983000  0.76484000  1
  O  O39  1  0.53837000  0.00003000  0.76678000  1
  O  O40  1  0.46193000  0.00013000  0.23333000  1
