data_DB1-Cu2O8N2-irmof10_A-irmof8_A_No374_repeat
_audit_creation_date              2024-02-23
_audit_creation_method            'Materials Studio'
_symmetry_space_group_name_H-M    'P1'
_symmetry_Int_Tables_number       1
_symmetry_cell_setting            triclinic
loop_
_symmetry_equiv_pos_as_xyz
  x,y,z
_cell_length_a                    12.9902
_cell_length_b                    27.9360
_cell_length_c                    13.3747
_cell_angle_alpha                 90.0003
_cell_angle_beta                  89.9971
_cell_angle_gamma                 89.9024
loop_
_atom_site_label
_atom_site_type_symbol
_atom_site_fract_x
_atom_site_fract_y
_atom_site_fract_z
_atom_site_U_iso_or_equiv
_atom_site_adp_type
_atom_site_occupancy
Cu1    Cu    0.50001   0.50000   0.40485   0.00000  Uiso   1.00
Cu2    Cu    0.50001   0.50000   0.59515   0.00000  Uiso   1.00
O1     O     0.63386   0.50003   0.41126   0.00000  Uiso   1.00
O2     O     0.36589   0.50011   0.41127   0.00000  Uiso   1.00
O3     O     0.49972   0.56237   0.41127   0.00000  Uiso   1.00
O4     O     0.50003   0.43776   0.41126   0.00000  Uiso   1.00
O5     O     0.50026   0.43762   0.58873   0.00000  Uiso   1.00
O6     O     0.50003   0.56223   0.58873   0.00000  Uiso   1.00
O7     O     0.36605   0.50003   0.58874   0.00000  Uiso   1.00
O8     O     0.63413   0.49987   0.58872   0.00000  Uiso   1.00
C1     C     0.69308   0.49996   0.49999   0.00000  Uiso   1.00
C2     C     0.30694   0.50004   0.50001   0.00000  Uiso   1.00
C3     C     0.49987   0.58977   0.50000   0.00000  Uiso   1.00
C4     C     0.50015   0.41022   0.50000   0.00000  Uiso   1.00
Cu3    Cu    0.50036   0.96500   0.59517   0.00000  Uiso   1.00
Cu4    Cu    0.49970   0.96500   0.40487   0.00000  Uiso   1.00
O9     O     0.63419   0.96475   0.58831   0.00000  Uiso   1.00
O10    O     0.36622   0.96510   0.58920   0.00000  Uiso   1.00
O11    O     0.50004   0.90262   0.58876   0.00000  Uiso   1.00
O12    O     0.50037   0.02723   0.58876   0.00000  Uiso   1.00
O13    O     0.49999   0.02737   0.41129   0.00000  Uiso   1.00
O14    O     0.49974   0.90276   0.41129   0.00000  Uiso   1.00
O15    O     0.36576   0.96518   0.41174   0.00000  Uiso   1.00
O16    O     0.63385   0.96491   0.41085   0.00000  Uiso   1.00
C5     C     0.69310   0.96473   0.49938   0.00000  Uiso   1.00
C6     C     0.30697   0.96527   0.50066   0.00000  Uiso   1.00
C7     C     0.49989   0.87522   0.50002   0.00000  Uiso   1.00
C8     C     0.50018   0.05477   0.50002   0.00000  Uiso   1.00
N1     N     0.50001   0.50000   0.73656   0.00000  Uiso   1.00
N2     N     0.50001   0.50000   0.26343   0.00000  Uiso   1.00
C9     C     0.56536   0.46962   0.78928   0.00000  Uiso   1.00
C10    C     0.56597   0.46934   0.89414   0.00000  Uiso   1.00
C11    C     0.43465   0.53038   0.21072   0.00000  Uiso   1.00
C12    C     0.43405   0.53066   0.10586   0.00000  Uiso   1.00
C13    C     0.56536   0.46962   0.21071   0.00000  Uiso   1.00
C14    C     0.56597   0.46933   0.10585   0.00000  Uiso   1.00
C15    C     0.43466   0.53038   0.78929   0.00000  Uiso   1.00
C16    C     0.43405   0.53066   0.89415   0.00000  Uiso   1.00
C17    C     0.50001   0.50000   0.94717   0.00000  Uiso   1.00
C18    C     0.50001   0.50000   0.05283   0.00000  Uiso   1.00
H1     H     0.61067   0.44856   0.75340   0.00000  Uiso   1.00
H2     H     0.38935   0.55144   0.24660   0.00000  Uiso   1.00
H3     H     0.61067   0.44856   0.24659   0.00000  Uiso   1.00
H4     H     0.61146   0.44819   0.07040   0.00000  Uiso   1.00
H5     H     0.38935   0.55144   0.75341   0.00000  Uiso   1.00
H6     H     0.38856   0.55181   0.92960   0.00000  Uiso   1.00
C19    C     0.50001   0.78991   0.57320   0.00000  Uiso   1.00
C20    C     0.49971   0.80779   0.39820   0.00000  Uiso   1.00
C21    C     0.49966   0.75921   0.37115   0.00000  Uiso   1.00
C22    C     0.49979   0.72496   0.44942   0.00000  Uiso   1.00
C23    C     0.49975   0.67509   0.42683   0.00000  Uiso   1.00
C24    C     0.50005   0.65720   0.60182   0.00000  Uiso   1.00
C25    C     0.50010   0.70578   0.62887   0.00000  Uiso   1.00
C26    C     0.49997   0.74004   0.55060   0.00000  Uiso   1.00
C27    C     0.49989   0.82222   0.50002   0.00000  Uiso   1.00
C28    C     0.49988   0.64277   0.50000   0.00000  Uiso   1.00
H7     H     0.49962   0.83490   0.34052   0.00000  Uiso   1.00
H8     H     0.50015   0.63009   0.65949   0.00000  Uiso   1.00
C29    C     0.50015   0.35862   0.50000   0.00000  Uiso   1.00
C30    C     0.50018   0.10637   0.50002   0.00000  Uiso   1.00
C31    C     0.50004   0.33338   0.41033   0.00000  Uiso   1.00
C32    C     0.50004   0.28318   0.40950   0.00000  Uiso   1.00
C33    C     0.50029   0.13162   0.58969   0.00000  Uiso   1.00
C34    C     0.50029   0.18182   0.59052   0.00000  Uiso   1.00
C35    C     0.50005   0.13162   0.41034   0.00000  Uiso   1.00
C36    C     0.50005   0.18182   0.40950   0.00000  Uiso   1.00
C37    C     0.50027   0.33338   0.58968   0.00000  Uiso   1.00
C38    C     0.50028   0.28318   0.59052   0.00000  Uiso   1.00
C39    C     0.50016   0.25779   0.50001   0.00000  Uiso   1.00
C40    C     0.50017   0.20721   0.50001   0.00000  Uiso   1.00
H9     H     0.49995   0.35056   0.34816   0.00000  Uiso   1.00
H10    H     0.50038   0.11444   0.65186   0.00000  Uiso   1.00
H11    H     0.49997   0.11443   0.34818   0.00000  Uiso   1.00
H12    H     0.49996   0.19879   0.34708   0.00000  Uiso   1.00
H13    H     0.50036   0.35056   0.65184   0.00000  Uiso   1.00
H14    H     0.50037   0.26621   0.65294   0.00000  Uiso   1.00
C41    C     0.12348   0.50008   0.42682   0.00000  Uiso   1.00
C42    C     0.16192   0.49993   0.60182   0.00000  Uiso   1.00
C43    C     0.05745   0.49989   0.62887   0.00000  Uiso   1.00
C44    C     0.98379   0.49995   0.55059   0.00000  Uiso   1.00
C45    C     0.87654   0.49992   0.57318   0.00000  Uiso   1.00
C46    C     0.83810   0.50007   0.39818   0.00000  Uiso   1.00
C47    C     0.94257   0.50010   0.37114   0.00000  Uiso   1.00
C48    C     0.01623   0.50004   0.44941   0.00000  Uiso   1.00
C49    C     0.19297   0.50002   0.50001   0.00000  Uiso   1.00
C50    C     0.80705   0.49997   0.50000   0.00000  Uiso   1.00
H15    H     0.22021   0.49989   0.65951   0.00000  Uiso   1.00
H16    H     0.77980   0.50011   0.34050   0.00000  Uiso   1.00
N3     N     0.49921   0.96500   0.26346   0.00000  Uiso   1.00
N4     N     0.49739   0.96500   0.73659   0.00000  Uiso   1.00
C51    C     0.56439   0.99527   0.21052   0.00000  Uiso   1.00
C52    C     0.56463   0.99556   0.10566   0.00000  Uiso   1.00
C53    C     0.43221   0.93472   0.78953   0.00000  Uiso   1.00
C54    C     0.43197   0.93444   0.89439   0.00000  Uiso   1.00
C55    C     0.56293   0.99527   0.78910   0.00000  Uiso   1.00
C56    C     0.56390   0.99556   0.89395   0.00000  Uiso   1.00
C57    C     0.43367   0.93472   0.21095   0.00000  Uiso   1.00
C58    C     0.43270   0.93444   0.10610   0.00000  Uiso   1.00
C59    C     0.49848   0.96500   0.05285   0.00000  Uiso   1.00
C60    C     0.49812   0.96500   0.94720   0.00000  Uiso   1.00
H17    H     0.60982   0.01626   0.24625   0.00000  Uiso   1.00
H18    H     0.38678   0.91374   0.75380   0.00000  Uiso   1.00
H19    H     0.60811   0.01626   0.75306   0.00000  Uiso   1.00
H20    H     0.60951   0.01663   0.92925   0.00000  Uiso   1.00
H21    H     0.38849   0.91374   0.24699   0.00000  Uiso   1.00
H22    H     0.38709   0.91337   0.07080   0.00000  Uiso   1.00
C61    C     0.12376   0.96391   0.57110   0.00000  Uiso   1.00
C62    C     0.16159   0.96400   0.39597   0.00000  Uiso   1.00
C63    C     0.05702   0.96421   0.36928   0.00000  Uiso   1.00
C64    C     0.98364   0.96427   0.44780   0.00000  Uiso   1.00
C65    C     0.87630   0.96447   0.42557   0.00000  Uiso   1.00
C66    C     0.83847   0.96438   0.60070   0.00000  Uiso   1.00
C67    C     0.94304   0.96418   0.62739   0.00000  Uiso   1.00
C68    C     0.01642   0.96412   0.54887   0.00000  Uiso   1.00
C69    C     0.19299   0.96386   0.49768   0.00000  Uiso   1.00
C70    C     0.80707   0.96453   0.49899   0.00000  Uiso   1.00
H23    H     0.21968   0.96395   0.33808   0.00000  Uiso   1.00
H24    H     0.78037   0.96444   0.65857   0.00000  Uiso   1.00
O17    O     0.62747   0.44075   0.94206   0.00000  Uiso   1.00
Li1    Li    0.71643   0.39939   0.90378   0.00000  Uiso   1.00
O18    O     0.37254   0.55925   0.05794   0.00000  Uiso   1.00
Li2    Li    0.28358   0.60060   0.09621   0.00000  Uiso   1.00
O19    O     0.49993   0.26023   0.32511   0.00000  Uiso   1.00
Li3    Li    0.49976   0.27855   0.20304   0.00000  Uiso   1.00
O20    O     0.50040   0.20477   0.67491   0.00000  Uiso   1.00
Li4    Li    0.50056   0.18644   0.79698   0.00000  Uiso   1.00
O21    O     0.62597   0.02405   0.05753   0.00000  Uiso   1.00
Li5    Li    0.71507   0.06526   0.09551   0.00000  Uiso   1.00
O22    O     0.37063   0.90595   0.94252   0.00000  Uiso   1.00
Li6    Li    0.28153   0.86474   0.90454   0.00000  Uiso   1.00
O23    O     0.50029   0.72169   0.73677   0.00000  Uiso   1.00
H25    H     0.50030   0.76139   0.74018   0.00000  Uiso   1.00
O24    O     0.50023   0.80539   0.68137   0.00000  Uiso   1.00
H26    H     0.50025   0.84507   0.68546   0.00000  Uiso   1.00
O25    O     0.49948   0.74331   0.26325   0.00000  Uiso   1.00
H27    H     0.49948   0.70361   0.25984   0.00000  Uiso   1.00
O26    O     0.49953   0.65961   0.31866   0.00000  Uiso   1.00
H28    H     0.49950   0.61992   0.31457   0.00000  Uiso   1.00
O27    O     0.97679   0.50021   0.26324   0.00000  Uiso   1.00
H29    H     0.06216   0.50022   0.25984   0.00000  Uiso   1.00
O28    O     0.15678   0.50019   0.31866   0.00000  Uiso   1.00
H30    H     0.24212   0.50021   0.31457   0.00000  Uiso   1.00
O29    O     0.02323   0.49980   0.73677   0.00000  Uiso   1.00
H31    H     0.93787   0.49979   0.74017   0.00000  Uiso   1.00
O30    O     0.84323   0.49980   0.68135   0.00000  Uiso   1.00
H32    H     0.75789   0.49978   0.68543   0.00000  Uiso   1.00
O31    O     0.97763   0.96402   0.73517   0.00000  Uiso   1.00
H33    H     0.06301   0.96387   0.73829   0.00000  Uiso   1.00
O32    O     0.15743   0.96375   0.67915   0.00000  Uiso   1.00
H34    H     0.24278   0.96359   0.68295   0.00000  Uiso   1.00
O33    O     0.02243   0.96436   0.26149   0.00000  Uiso   1.00
H35    H     0.93705   0.96451   0.25838   0.00000  Uiso   1.00
O34    O     0.84263   0.96464   0.31752   0.00000  Uiso   1.00
H36    H     0.75727   0.96480   0.31372   0.00000  Uiso   1.00
