data_DB1-Cu2O8-AZO_A-irmof8_A_No361_repeat
_audit_creation_date              2024-02-23
_audit_creation_method            'Materials Studio'
_symmetry_space_group_name_H-M    'P1'
_symmetry_Int_Tables_number       1
_symmetry_cell_setting            triclinic
loop_
_symmetry_equiv_pos_as_xyz
  x,y,z
_cell_length_a                    12.9902
_cell_length_b                    34.4976
_cell_length_c                    10.0000
_cell_angle_alpha                 90.0000
_cell_angle_beta                  90.0000
_cell_angle_gamma                 90.0971
loop_
_atom_site_label
_atom_site_type_symbol
_atom_site_fract_x
_atom_site_fract_y
_atom_site_fract_z
_atom_site_U_iso_or_equiv
_atom_site_adp_type
_atom_site_occupancy
Cu1    Cu    0.50000   0.50000   0.62726   0.00000  Uiso   1.00
Cu2    Cu    0.50001   0.50000   0.37274   0.00000  Uiso   1.00
O1     O     0.63385   0.49998   0.61869   0.00000  Uiso   1.00
O2     O     0.36588   0.49991   0.61867   0.00000  Uiso   1.00
O3     O     0.49971   0.44949   0.61868   0.00000  Uiso   1.00
O4     O     0.50002   0.55040   0.61868   0.00000  Uiso   1.00
O5     O     0.50027   0.55051   0.38132   0.00000  Uiso   1.00
O6     O     0.50003   0.44961   0.38132   0.00000  Uiso   1.00
O7     O     0.36605   0.49997   0.38131   0.00000  Uiso   1.00
O8     O     0.63414   0.50010   0.38133   0.00000  Uiso   1.00
C1     C     0.69308   0.50003   0.50001   0.00000  Uiso   1.00
C2     C     0.30694   0.49997   0.49999   0.00000  Uiso   1.00
C3     C     0.49987   0.42730   0.50000   0.00000  Uiso   1.00
C4     C     0.50015   0.57270   0.50000   0.00000  Uiso   1.00
Cu3    Cu    0.50041   0.00000   0.27502   0.00000  Uiso   1.00
Cu4    Cu    0.49990   0.00000   0.52953   0.00000  Uiso   1.00
O9     O     0.63425   0.00020   0.28405   0.00000  Uiso   1.00
O10    O     0.36627   0.99992   0.28314   0.00000  Uiso   1.00
O11    O     0.50012   0.05051   0.28359   0.00000  Uiso   1.00
O12    O     0.50041   0.94961   0.28359   0.00000  Uiso   1.00
O13    O     0.50016   0.94949   0.52095   0.00000  Uiso   1.00
O14    O     0.49994   0.05040   0.52096   0.00000  Uiso   1.00
O15    O     0.36595   0.99986   0.52049   0.00000  Uiso   1.00
O16    O     0.63404   0.00007   0.52141   0.00000  Uiso   1.00
C5     C     0.69322   0.00021   0.40294   0.00000  Uiso   1.00
C6     C     0.30709   0.99979   0.40161   0.00000  Uiso   1.00
C7     C     0.50004   0.07270   0.40228   0.00000  Uiso   1.00
C8     C     0.50028   0.92730   0.40228   0.00000  Uiso   1.00
C9     C     0.50028   0.88404   0.40227   0.00000  Uiso   1.00
C10    C     0.50015   0.86313   0.52342   0.00000  Uiso   1.00
C11    C     0.50015   0.82250   0.52310   0.00000  Uiso   1.00
C12    C     0.50027   0.80194   0.40182   0.00000  Uiso   1.00
C13    C     0.50040   0.82255   0.28122   0.00000  Uiso   1.00
C14    C     0.50040   0.86317   0.28108   0.00000  Uiso   1.00
N1     N     0.50027   0.76032   0.39824   0.00000  Uiso   1.00
N2     N     0.50016   0.73968   0.50403   0.00000  Uiso   1.00
C15    C     0.50003   0.67745   0.62106   0.00000  Uiso   1.00
C16    C     0.50016   0.69806   0.50046   0.00000  Uiso   1.00
C17    C     0.50028   0.67751   0.37917   0.00000  Uiso   1.00
C18    C     0.50028   0.63687   0.37885   0.00000  Uiso   1.00
C19    C     0.50015   0.61597   0.50000   0.00000  Uiso   1.00
C20    C     0.50002   0.63684   0.62120   0.00000  Uiso   1.00
H1     H     0.50005   0.87842   0.61799   0.00000  Uiso   1.00
H2     H     0.50005   0.80698   0.61703   0.00000  Uiso   1.00
H3     H     0.49993   0.69303   0.71497   0.00000  Uiso   1.00
H4     H     0.50038   0.69303   0.28525   0.00000  Uiso   1.00
C21    C     0.50003   0.11597   0.40227   0.00000  Uiso   1.00
C22    C     0.49987   0.13687   0.52342   0.00000  Uiso   1.00
C23    C     0.49987   0.17751   0.52310   0.00000  Uiso   1.00
C24    C     0.50002   0.19806   0.40182   0.00000  Uiso   1.00
C25    C     0.50019   0.17745   0.28122   0.00000  Uiso   1.00
C26    C     0.50019   0.13684   0.28108   0.00000  Uiso   1.00
N3     N     0.50003   0.23968   0.39824   0.00000  Uiso   1.00
N4     N     0.49988   0.26032   0.50403   0.00000  Uiso   1.00
C27    C     0.49972   0.32255   0.62105   0.00000  Uiso   1.00
C28    C     0.49988   0.30194   0.50046   0.00000  Uiso   1.00
C29    C     0.50004   0.32250   0.37917   0.00000  Uiso   1.00
C30    C     0.50004   0.36313   0.37885   0.00000  Uiso   1.00
C31    C     0.49988   0.38404   0.50000   0.00000  Uiso   1.00
C32    C     0.49972   0.36317   0.62120   0.00000  Uiso   1.00
H5     H     0.49974   0.12158   0.61799   0.00000  Uiso   1.00
H6     H     0.49974   0.19303   0.61703   0.00000  Uiso   1.00
H7     H     0.49960   0.30698   0.71497   0.00000  Uiso   1.00
H8     H     0.50017   0.30698   0.28525   0.00000  Uiso   1.00
C33    C     0.12348   0.49994   0.59787   0.00000  Uiso   1.00
C34    C     0.16193   0.50006   0.36381   0.00000  Uiso   1.00
C35    C     0.05745   0.50009   0.32764   0.00000  Uiso   1.00
C36    C     0.98379   0.50004   0.43233   0.00000  Uiso   1.00
C37    C     0.87654   0.50007   0.40212   0.00000  Uiso   1.00
C38    C     0.83809   0.49995   0.63618   0.00000  Uiso   1.00
C39    C     0.94256   0.49992   0.67235   0.00000  Uiso   1.00
C40    C     0.01622   0.49996   0.56766   0.00000  Uiso   1.00
C41    C     0.19297   0.49998   0.49999   0.00000  Uiso   1.00
C42    C     0.80705   0.50002   0.50001   0.00000  Uiso   1.00
H9     H     0.14756   0.49987   0.70252   0.00000  Uiso   1.00
H10    H     0.22022   0.50009   0.28666   0.00000  Uiso   1.00
H11    H     0.85245   0.50014   0.29748   0.00000  Uiso   1.00
H12    H     0.77979   0.49991   0.71332   0.00000  Uiso   1.00
C43    C     0.12382   0.00085   0.30659   0.00000  Uiso   1.00
C44    C     0.16179   0.00077   0.54078   0.00000  Uiso   1.00
C45    C     0.05724   0.00061   0.57658   0.00000  Uiso   1.00
C46    C     0.98380   0.00057   0.47163   0.00000  Uiso   1.00
C47    C     0.87648   0.00041   0.50147   0.00000  Uiso   1.00
C48    C     0.83852   0.00048   0.26728   0.00000  Uiso   1.00
C49    C     0.94307   0.00064   0.23147   0.00000  Uiso   1.00
C50    C     0.01651   0.00069   0.33642   0.00000  Uiso   1.00
C51    C     0.19311   0.00089   0.40471   0.00000  Uiso   1.00
C52    C     0.80719   0.00037   0.40335   0.00000  Uiso   1.00
H13    H     0.14812   0.00094   0.20202   0.00000  Uiso   1.00
H14    H     0.21992   0.00081   0.61814   0.00000  Uiso   1.00
H15    H     0.85218   0.00031   0.60603   0.00000  Uiso   1.00
H16    H     0.78038   0.00044   0.18993   0.00000  Uiso   1.00
O17    O     0.50052   0.88152   0.16777   0.00000  Uiso   1.00
Li1    Li    0.50069   0.86635   0.00486   0.00000  Uiso   1.00
O18    O     0.50051   0.80387   0.16856   0.00000  Uiso   1.00
Li2    Li    0.50055   0.75558   0.12942   0.00000  Uiso   1.00
O19    O     0.49991   0.61848   0.73451   0.00000  Uiso   1.00
Li3    Li    0.49974   0.63365   0.89741   0.00000  Uiso   1.00
O20    O     0.50039   0.61854   0.26550   0.00000  Uiso   1.00
Li4    Li    0.50056   0.63375   0.10263   0.00000  Uiso   1.00
O21    O     0.50034   0.11849   0.16777   0.00000  Uiso   1.00
Li5    Li    0.50056   0.13365   0.00486   0.00000  Uiso   1.00
O22    O     0.50034   0.19614   0.16856   0.00000  Uiso   1.00
Li6    Li    0.50038   0.24442   0.12942   0.00000  Uiso   1.00
O23    O     0.49956   0.38152   0.73451   0.00000  Uiso   1.00
Li7    Li    0.49935   0.36635   0.89741   0.00000  Uiso   1.00
O24    O     0.50019   0.38146   0.26549   0.00000  Uiso   1.00
Li8    Li    0.50041   0.36626   0.10263   0.00000  Uiso   1.00
Cl1    Cl    0.98244   0.49982   0.84055   0.00000  Uiso   1.00
Cl2    Cl    0.01758   0.50018   0.15944   0.00000  Uiso   1.00
Cl3    Cl    0.98330   0.00079   0.06341   0.00000  Uiso   1.00
Cl4    Cl    0.01702   0.00047   0.74465   0.00000  Uiso   1.00
