data_DB1-Cu2O8-ADC_A-irmof20_A_No575_repeat
_audit_creation_date              2024-02-23
_audit_creation_method            'Materials Studio'
_symmetry_space_group_name_H-M    'P1'
_symmetry_Int_Tables_number       1
_symmetry_cell_setting            triclinic
loop_
_symmetry_equiv_pos_as_xyz
  x,y,z
_cell_length_a                    12.5011
_cell_length_b                    34.9964
_cell_length_c                    10.0000
_cell_angle_alpha                 90.0000
_cell_angle_beta                  90.0000
_cell_angle_gamma                 90.0964
loop_
_atom_site_label
_atom_site_type_symbol
_atom_site_fract_x
_atom_site_fract_y
_atom_site_fract_z
_atom_site_U_iso_or_equiv
_atom_site_adp_type
_atom_site_occupancy
Cu1    Cu    0.50000   0.50000   0.62726   0.00000  Uiso   1.00
Cu2    Cu    0.50001   0.50000   0.37274   0.00000  Uiso   1.00
O1     O     0.63909   0.49998   0.61869   0.00000  Uiso   1.00
O2     O     0.36063   0.49991   0.61867   0.00000  Uiso   1.00
O3     O     0.49970   0.45021   0.61868   0.00000  Uiso   1.00
O4     O     0.50002   0.54968   0.61868   0.00000  Uiso   1.00
O5     O     0.50027   0.54979   0.38132   0.00000  Uiso   1.00
O6     O     0.50003   0.45032   0.38132   0.00000  Uiso   1.00
O7     O     0.36081   0.49997   0.38131   0.00000  Uiso   1.00
O8     O     0.63938   0.50010   0.38133   0.00000  Uiso   1.00
C1     C     0.70063   0.50003   0.50001   0.00000  Uiso   1.00
C2     C     0.29938   0.49997   0.49999   0.00000  Uiso   1.00
C3     C     0.49987   0.42834   0.49999   0.00000  Uiso   1.00
C4     C     0.50015   0.57167   0.50000   0.00000  Uiso   1.00
Cu3    Cu    0.50042   0.00000   0.28188   0.00000  Uiso   1.00
Cu4    Cu    0.49988   0.00001   0.53639   0.00000  Uiso   1.00
O9     O     0.63949   0.00019   0.29091   0.00000  Uiso   1.00
O10    O     0.36103   0.99992   0.29000   0.00000  Uiso   1.00
O11    O     0.50011   0.04979   0.29044   0.00000  Uiso   1.00
O12    O     0.50041   0.95032   0.29047   0.00000  Uiso   1.00
O13    O     0.50015   0.95021   0.52783   0.00000  Uiso   1.00
O14    O     0.49993   0.04968   0.52780   0.00000  Uiso   1.00
O15    O     0.36070   0.99987   0.52735   0.00000  Uiso   1.00
O16    O     0.63927   0.00007   0.52827   0.00000  Uiso   1.00
C5     C     0.70078   0.00021   0.40980   0.00000  Uiso   1.00
C6     C     0.29953   0.99980   0.40847   0.00000  Uiso   1.00
C7     C     0.50003   0.07167   0.40912   0.00000  Uiso   1.00
C8     C     0.50028   0.92834   0.40915   0.00000  Uiso   1.00
C9     C     0.50028   0.88566   0.40916   0.00000  Uiso   1.00
C10    C     0.50014   0.86506   0.53008   0.00000  Uiso   1.00
C11    C     0.50014   0.82503   0.53024   0.00000  Uiso   1.00
C12    C     0.50027   0.80443   0.40893   0.00000  Uiso   1.00
C13    C     0.50040   0.82510   0.28832   0.00000  Uiso   1.00
C14    C     0.50040   0.86509   0.28824   0.00000  Uiso   1.00
C15    C     0.50027   0.76182   0.40144   0.00000  Uiso   1.00
C16    C     0.50016   0.73818   0.50777   0.00000  Uiso   1.00
C17    C     0.50003   0.67490   0.62087   0.00000  Uiso   1.00
C18    C     0.50016   0.69557   0.50026   0.00000  Uiso   1.00
C19    C     0.50029   0.67498   0.37894   0.00000  Uiso   1.00
C20    C     0.50029   0.63495   0.37910   0.00000  Uiso   1.00
C21    C     0.50015   0.61434   0.50001   0.00000  Uiso   1.00
C22    C     0.50002   0.63491   0.62094   0.00000  Uiso   1.00
H1     H     0.50004   0.88015   0.62461   0.00000  Uiso   1.00
H2     H     0.50004   0.81085   0.62594   0.00000  Uiso   1.00
H3     H     0.50050   0.81024   0.19334   0.00000  Uiso   1.00
H4     H     0.49993   0.68976   0.71585   0.00000  Uiso   1.00
H5     H     0.50039   0.68916   0.28324   0.00000  Uiso   1.00
H6     H     0.50039   0.61986   0.28456   0.00000  Uiso   1.00
H7     H     0.50038   0.74990   0.30204   0.00000  Uiso   1.00
H8     H     0.50005   0.75010   0.60716   0.00000  Uiso   1.00
C23    C     0.50002   0.11434   0.40913   0.00000  Uiso   1.00
C24    C     0.49985   0.13495   0.53004   0.00000  Uiso   1.00
C25    C     0.49985   0.17498   0.53022   0.00000  Uiso   1.00
C26    C     0.50002   0.19557   0.40890   0.00000  Uiso   1.00
C27    C     0.50019   0.17491   0.28829   0.00000  Uiso   1.00
C28    C     0.50019   0.13492   0.28821   0.00000  Uiso   1.00
C29    C     0.50002   0.23818   0.40142   0.00000  Uiso   1.00
C30    C     0.49987   0.26182   0.50774   0.00000  Uiso   1.00
C31    C     0.49971   0.32510   0.62085   0.00000  Uiso   1.00
C32    C     0.49988   0.30443   0.50024   0.00000  Uiso   1.00
C33    C     0.50005   0.32503   0.37892   0.00000  Uiso   1.00
C34    C     0.50004   0.36505   0.37909   0.00000  Uiso   1.00
C35    C     0.49987   0.38566   0.50000   0.00000  Uiso   1.00
C36    C     0.49971   0.36509   0.62092   0.00000  Uiso   1.00
H9     H     0.49972   0.11985   0.62458   0.00000  Uiso   1.00
H10    H     0.49971   0.18916   0.62591   0.00000  Uiso   1.00
H11    H     0.50032   0.18977   0.19331   0.00000  Uiso   1.00
H12    H     0.49958   0.31024   0.71584   0.00000  Uiso   1.00
H13    H     0.50018   0.31085   0.28322   0.00000  Uiso   1.00
H14    H     0.50017   0.38015   0.28455   0.00000  Uiso   1.00
H15    H     0.50016   0.25010   0.30202   0.00000  Uiso   1.00
H16    H     0.49974   0.24990   0.60714   0.00000  Uiso   1.00
C37    C     0.88935   0.49996   0.60607   0.00000  Uiso   1.00
S1     S     0.88440   0.50010   0.34692   0.00000  Uiso   1.00
C38    C     0.11066   0.50005   0.39392   0.00000  Uiso   1.00
H17    H     0.13307   0.50009   0.30519   0.00000  Uiso   1.00
S2     S     0.11561   0.49991   0.65307   0.00000  Uiso   1.00
C39    C     0.81999   0.50002   0.50000   0.00000  Uiso   1.00
C40    C     0.18002   0.49998   0.49999   0.00000  Uiso   1.00
C41    C     0.00000   0.50004   0.43165   0.00000  Uiso   1.00
C42    C     0.00001   0.49997   0.56834   0.00000  Uiso   1.00
C43    C     0.88973   0.00050   0.30437   0.00000  Uiso   1.00
S3     S     0.88421   0.00037   0.56350   0.00000  Uiso   1.00
C44    C     0.11057   0.00068   0.51727   0.00000  Uiso   1.00
H18    H     0.13279   0.00066   0.60608   0.00000  Uiso   1.00
S4     S     0.11609   0.00082   0.25814   0.00000  Uiso   1.00
C45    C     0.82014   0.00036   0.41021   0.00000  Uiso   1.00
C46    C     0.18016   0.00082   0.41143   0.00000  Uiso   1.00
C47    C     0.00000   0.00056   0.47917   0.00000  Uiso   1.00
C48    C     0.00030   0.00063   0.34247   0.00000  Uiso   1.00
O17    O     0.50053   0.88315   0.17486   0.00000  Uiso   1.00
Li1    Li    0.50070   0.86815   0.01201   0.00000  Uiso   1.00
O18    O     0.49990   0.61685   0.73431   0.00000  Uiso   1.00
Li2    Li    0.49973   0.63185   0.89717   0.00000  Uiso   1.00
O19    O     0.50035   0.11686   0.17482   0.00000  Uiso   1.00
Li3    Li    0.50057   0.13186   0.01198   0.00000  Uiso   1.00
O20    O     0.49955   0.38315   0.73430   0.00000  Uiso   1.00
Li4    Li    0.49932   0.36815   0.89715   0.00000  Uiso   1.00
Cl1    Cl    0.84697   0.49987   0.77391   0.00000  Uiso   1.00
Cl2    Cl    0.84770   0.00053   0.13640   0.00000  Uiso   1.00
