# Generated by REPEAT Assigner based on pymatgen
data_DB1-Zn2O8N2-irmof20_A-imd_No8
_audit_creation_date              2022-05-24
_audit_creation_method            REPEAT_Assigner
_cell_length_a                    23.432900
_cell_length_b                    17.272900
_cell_length_c                    17.263100
_cell_angle_alpha                 117.252000
_cell_angle_beta                  47.369600
_cell_angle_gamma                 132.663000
_cell_volume                      3780.313661
_symmetry_space_group_name_H-M    P1
_symmetry_Int_Tables_number       1
loop_
    _symmetry_equiv_pos_site_id
    _symmetry_equiv_pos_as_xyz
    1  x,y,z
loop_
    _atom_site_type_symbol
    _atom_site_label
    _atom_site_fract_x
    _atom_site_fract_y
    _atom_site_fract_z
    _atom_type_partial_charge
    O   O1   0.634170  0.651830  0.499350  -0.295789
    O   O2   0.517900  0.651810  0.499880  -0.517127
    C   C1   0.602700  0.705320  0.499790  0.304786
    Zn  Zn1  0.570730  0.499980  0.500000  0.855027
    O   O3   0.517810  0.500000  0.348190  -0.302357
    O   O4   0.633770  0.499860  0.348120  -0.517083
    C   C2   0.602610  0.500000  0.294640  0.304481
    O   O5   0.365910  0.348140  0.500450  -0.336885
    O   O6   0.481980  0.348150  0.500310  -0.492563
    C   C3   0.397240  0.294650  0.500290  0.309982
    Zn  Zn2  0.429250  0.499990  0.499990  0.856895
    O   O7   0.482280  0.500180  0.651800  -0.341645
    O   O8   0.366120  0.499930  0.651870  -0.491604
    C   C4   0.397560  0.500330  0.705350  0.309142
    O   O9   0.866270  0.500060  0.651820  -0.575728
    O   O10  0.982540  0.500590  0.651800  -0.646025
    C   C5   0.897890  0.500740  0.705310  0.552870
    Zn  Zn3  0.929280  0.500010  0.499960  1.031677
    O   O11  0.981760  0.348210  0.500680  -0.578151
    O   O12  0.865800  0.348140  0.500540  -0.642202
    C   C6   0.896810  0.294650  0.500920  0.541301
    O   O13  0.133660  0.499750  0.348110  -0.506325
    O   O14  0.017590  0.499620  0.348130  -0.549280
    C   C7   0.102180  0.499360  0.294620  0.431575
    Zn  Zn4  0.070760  0.500000  0.499960  1.032347
    O   O15  0.018160  0.651800  0.499460  -0.505765
    O   O16  0.134320  0.651870  0.499210  -0.543048
    C   C8   0.103040  0.705350  0.499370  0.411291
    C   C9   0.749980  0.558960  0.440740  0.041868
    S   S1   0.603150  0.414880  0.585490  0.274983
    C   C10  0.750030  0.441030  0.559220  -0.027532
    H   H1   0.712610  0.391690  0.608780  0.195054
    S   S2   0.896850  0.585110  0.414470  0.145410
    N   N1   0.653960  0.499990  0.499990  -0.082268
    N   N2   0.846050  0.500000  0.499970  -0.070065
    C   C11  0.711980  0.462000  0.538160  -0.012416
    C   C12  0.788030  0.537990  0.461800  -0.132929
    C   C13  0.368060  0.559110  0.440880  0.042022
    S   S3   0.226500  0.414660  0.585260  0.276656
    C   C14  0.131960  0.440860  0.559060  -0.033230
    H   H2   0.070620  0.391400  0.608500  0.196696
    S   S4   0.273510  0.585310  0.414680  0.146831
    N   N3   0.346030  0.499990  0.499980  -0.084475
    N   N4   0.153980  0.499990  0.499960  -0.069562
    C   C15  0.211970  0.461890  0.538050  -0.008748
    C   C16  0.288040  0.538080  0.461890  -0.133957
    C   C17  0.259260  0.108980  0.500050  -0.149552
    S   S5   0.372250  0.113670  0.499930  0.034428
    C   C18  0.241020  0.891020  0.499600  -0.221979
    H   H3   0.267870  0.868900  0.499530  0.183644
    S   S6   0.128030  0.886330  0.499730  0.029360
    C   C19  0.338590  0.177170  0.500110  0.019834
    C   C20  0.161690  0.822830  0.499550  -0.008230
    C   C21  0.279300  0.999950  0.499800  0.151921
    C   C22  0.220980  0.000050  0.499860  -0.048175
    C   C23  0.740620  0.890980  0.500170  -0.292348
    S   S7   0.627450  0.886310  0.500660  0.045674
    C   C24  0.758540  0.108960  0.501280  -0.213672
    H   H4   0.731610  0.131080  0.501520  0.187232
    S   S8   0.871710  0.113630  0.500780  0.018697
    C   C25  0.661260  0.822800  0.500160  0.099454
    C   C26  0.837900  0.177140  0.501290  -0.048300
    C   C27  0.720370  0.000020  0.500860  0.124686
    C   C28  0.778790  0.999920  0.500590  -0.010201
    C   C29  0.650560  0.500290  0.108660  -0.301098
    S   S9   0.758360  0.500140  0.114090  0.042478
    C   C30  0.849950  0.500450  0.891290  -0.211660
    H   H5   0.898750  0.500430  0.869420  0.187928
    S   S10  0.742140  0.500590  0.885860  0.017530
    C   C31  0.661470  0.500150  0.177150  0.107086
    C   C32  0.839030  0.500590  0.822790  -0.058811
    C   C33  0.779330  0.500330  0.000120  0.125286
    C   C34  0.721180  0.500410  0.999820  -0.004166
    C   C35  0.350290  0.501400  0.891320  -0.157304
    S   S11  0.242280  0.501130  0.885900  0.030630
    C   C36  0.151450  0.502320  0.108700  -0.209070
    H   H6   0.102660  0.502360  0.130560  0.181501
    S   S12  0.259460  0.502590  0.114120  0.030696
    C   C37  0.339080  0.500940  0.822830  0.027595
    C   C38  0.162670  0.502780  0.177190  -0.031341
    C   C39  0.221750  0.501800  0.999860  0.147010
    C   C40  0.280000  0.501920  0.000160  -0.038722
    C   C41  0.811020  0.639450  0.359880  0.572243
    O   O17  0.894660  0.723480  0.340590  -0.455181
    O   O18  0.781800  0.627910  0.314610  -0.349950
    H   H7   0.910240  0.712330  0.375370  0.355627
    C   C42  0.468120  0.639810  0.360230  0.566367
    O   O19  0.487570  0.658920  0.276150  -0.453492
    O   O20  0.531080  0.685100  0.371680  -0.347050
    H   H8   0.426110  0.624160  0.287370  0.355349
    C   C43  0.215450  0.145070  0.500180  0.584515
    O   O21  0.169460  0.086180  0.454140  -0.463698
    O   O22  0.224810  0.229900  0.540490  -0.405970
    H   H9   0.159940  0.015190  0.437360  0.326178
    C   C44  0.784550  0.854880  0.499770  0.761638
    O   O23  0.876580  0.914170  0.453780  -0.476717
    O   O24  0.735100  0.769700  0.539600  -0.547195
    H   H10  0.902680  0.985310  0.437430  0.321371
    C   C45  0.570940  0.500320  0.144330  0.765714
    O   O25  0.584190  0.546430  0.084980  -0.477173
    O   O26  0.495350  0.460070  0.229250  -0.547279
    H   H11  0.645660  0.563150  0.014030  0.321068
    C   C46  0.429910  0.501340  0.855640  0.582926
    O   O27  0.463030  0.547730  0.914630  -0.462895
    O   O28  0.464970  0.460780  0.771050  -0.404273
    H   H12  0.418450  0.564710  0.985450  0.325695
