# Generated by REPEAT Assigner based on pymatgen
data_DB1-Cu2O8-ADC_A-irmof20_A_No108
_audit_creation_date              2022-05-24
_audit_creation_method            REPEAT_Assigner
_cell_length_a                    12.501100
_cell_length_b                    34.996400
_cell_length_c                    10.000000
_cell_angle_alpha                 90.000000
_cell_angle_beta                  90.000000
_cell_angle_gamma                 90.096400
_cell_volume                      4374.928768
_symmetry_space_group_name_H-M    P1
_symmetry_Int_Tables_number       1
loop_
    _symmetry_equiv_pos_site_id
    _symmetry_equiv_pos_as_xyz
    1  x,y,z
loop_
    _atom_site_type_symbol
    _atom_site_label
    _atom_site_fract_x
    _atom_site_fract_y
    _atom_site_fract_z
    _atom_type_partial_charge
    Cu  Cu1  0.500000  0.500000  0.627260  1.094832
    Cu  Cu2  0.500010  0.500000  0.372740  1.078568
    O   O1   0.639090  0.499980  0.618690  -0.544723
    O   O2   0.360630  0.499910  0.618670  -0.507493
    O   O3   0.499700  0.450210  0.618680  -0.606207
    O   O4   0.500020  0.549680  0.618680  -0.607808
    O   O5   0.500270  0.549790  0.381320  -0.588151
    O   O6   0.500030  0.450320  0.381320  -0.589955
    O   O7   0.360810  0.499970  0.381310  -0.546387
    O   O8   0.639380  0.500100  0.381330  -0.509568
    C   C1   0.700630  0.500030  0.500010  0.620589
    C   C2   0.299380  0.499970  0.499990  0.619891
    C   C3   0.499870  0.428340  0.499990  0.533258
    C   C4   0.500150  0.571670  0.500000  0.532870
    Cu  Cu3  0.500420  0.000000  0.281880  1.082188
    Cu  Cu4  0.499880  0.000010  0.536390  1.064262
    O   O9   0.639490  0.000190  0.290910  -0.554595
    O   O10  0.361030  0.999920  0.290000  -0.513640
    O   O11  0.500110  0.049790  0.290440  -0.606484
    O   O12  0.500410  0.950320  0.290470  -0.610592
    O   O13  0.500150  0.950210  0.527830  -0.588041
    O   O14  0.499930  0.049680  0.527800  -0.589406
    O   O15  0.360700  0.999870  0.527350  -0.555476
    O   O16  0.639270  0.000070  0.528270  -0.513684
    C   C5   0.700780  0.000210  0.409800  0.621795
    C   C6   0.299530  0.999800  0.408470  0.621040
    C   C7   0.500030  0.071670  0.409120  0.533976
    C   C8   0.500280  0.928340  0.409150  0.530254
    C   C9   0.500280  0.885660  0.409160  -0.025826
    C   C10  0.500140  0.865060  0.530080  -0.025669
    C   C11  0.500140  0.825030  0.530240  -0.417700
    C   C12  0.500270  0.804430  0.408930  0.457791
    C   C13  0.500400  0.825100  0.288320  -0.381884
    C   C14  0.500400  0.865090  0.288240  -0.001063
    C   C15  0.500270  0.761820  0.401440  -0.134628
    C   C16  0.500160  0.738180  0.507770  -0.129056
    C   C17  0.500030  0.674900  0.620870  -0.382377
    C   C18  0.500160  0.695570  0.500260  0.456263
    C   C19  0.500290  0.674980  0.378940  -0.418753
    C   C20  0.500290  0.634950  0.379100  -0.021838
    C   C21  0.500150  0.614340  0.500010  -0.029770
    C   C22  0.500020  0.634910  0.620940  0.002608
    H   H1   0.500040  0.880150  0.624610  0.117517
    H   H2   0.500040  0.810850  0.625940  0.246570
    H   H3   0.500500  0.810240  0.193340  0.169883
    H   H4   0.500510  0.880150  0.193660  0.122058
    H   H5   0.499930  0.689760  0.715850  0.169238
    H   H6   0.500390  0.689160  0.283240  0.246162
    H   H7   0.500390  0.619860  0.284560  0.117545
    H   H8   0.499920  0.619850  0.715510  0.121233
    C   C23  0.500020  0.114340  0.409130  -0.031906
    C   C24  0.499850  0.134950  0.530040  -0.021822
    C   C25  0.499850  0.174980  0.530220  -0.418705
    C   C26  0.500020  0.195570  0.408900  0.458241
    C   C27  0.500190  0.174910  0.288290  -0.383440
    C   C28  0.500190  0.134920  0.288210  0.003434
    C   C29  0.500020  0.238180  0.401420  -0.132744
    C   C30  0.499870  0.261820  0.507740  -0.131902
    C   C31  0.499710  0.325100  0.620850  -0.384449
    C   C32  0.499880  0.304430  0.500240  0.459893
    C   C33  0.500050  0.325030  0.378920  -0.420496
    C   C34  0.500040  0.365050  0.379090  -0.022084
    C   C35  0.499870  0.385660  0.500000  -0.029939
    C   C36  0.499710  0.365090  0.620920  0.003752
    H   H9   0.499720  0.119850  0.624580  0.116231
    H   H10  0.499710  0.189160  0.625910  0.246239
    H   H11  0.500320  0.189770  0.193310  0.170027
    H   H12  0.500320  0.119850  0.193620  0.120174
    H   H13  0.499580  0.310240  0.715840  0.169585
    H   H14  0.500180  0.310850  0.283220  0.246579
    H   H15  0.500170  0.380150  0.284550  0.117869
    H   H16  0.499570  0.380150  0.715500  0.121158
    C   C37  0.889350  0.499960  0.606070  0.283935
    S   S1   0.884400  0.500100  0.346920  -0.237063
    C   C38  0.110660  0.500050  0.393920  0.283548
    S   S2   0.115610  0.499910  0.653070  -0.239307
    C   C39  0.819990  0.500020  0.500000  -0.113593
    C   C40  0.180020  0.499980  0.499990  -0.111944
    C   C41  -0.000000  0.500040  0.431650  0.019316
    C   C42  0.000010  0.499970  0.568340  0.024788
    C   C43  0.889730  0.000500  0.304370  0.264529
    S   S3   0.884210  0.000370  0.563500  -0.244594
    C   C44  0.110570  0.000680  0.517270  0.261567
    S   S4   0.116090  0.000820  0.258140  -0.250429
    C   C45  0.820140  0.000360  0.410210  -0.108290
    C   C46  0.180160  0.000820  0.411430  -0.101879
    C   C47  0.000000  0.000560  0.479170  0.032081
    C   C48  0.000300  0.000630  0.342470  0.034509
    Br  Br1  0.500480  0.738850  0.209910  -0.072835
    Br  Br2  0.499950  0.761150  0.699300  -0.073837
    Br  Br3  0.500290  0.261150  0.209880  -0.071603
    Br  Br4  0.499610  0.238860  0.699280  -0.071556
    O   O17  0.858090  0.499890  0.729850  -0.664414
    Li  Li1  0.925450  0.499810  0.878800  0.685534
    O   O18  0.141920  0.500110  0.270140  -0.663591
    Li  Li2  0.074560  0.500200  0.121200  0.685602
    O   O19  0.858730  0.000530  0.180490  -0.646565
    Li  Li3  0.926410  0.000690  0.031770  0.663490
    O   O20  0.141570  0.000660  0.641150  -0.644984
    Li  Li4  0.073890  0.000490  0.789870  0.662276
