data_DB1-Cu2O8N2-DPAC_A-irmof6_A_No498_repeat
_audit_creation_date              2024-02-20
_audit_creation_method            'Materials Studio'
_symmetry_space_group_name_H-M    'P1'
_symmetry_Int_Tables_number       1
_symmetry_cell_setting            triclinic
loop_
_symmetry_equiv_pos_as_xyz
  x,y,z
_cell_length_a                    28.1768
_cell_length_b                    17.3722
_cell_length_c                    15.8500
_cell_angle_alpha                 89.9944
_cell_angle_beta                  89.9931
_cell_angle_gamma                 89.8662
loop_
_atom_site_label
_atom_site_type_symbol
_atom_site_fract_x
_atom_site_fract_y
_atom_site_fract_z
_atom_site_U_iso_or_equiv
_atom_site_adp_type
_atom_site_occupancy
Cu1    Cu    0.50001   0.50000   0.41971   0.00000  Uiso   1.00
Cu2    Cu    0.50000   0.49999   0.58029   0.00000  Uiso   1.00
O1     O     0.56171   0.49997   0.42512   0.00000  Uiso   1.00
O2     O     0.43817   0.50025   0.42513   0.00000  Uiso   1.00
O3     O     0.49988   0.60030   0.42512   0.00000  Uiso   1.00
O4     O     0.50001   0.39992   0.42513   0.00000  Uiso   1.00
O5     O     0.50011   0.39969   0.57488   0.00000  Uiso   1.00
O6     O     0.50001   0.60007   0.57487   0.00000  Uiso   1.00
O7     O     0.43824   0.50012   0.57488   0.00000  Uiso   1.00
O8     O     0.56183   0.49972   0.57487   0.00000  Uiso   1.00
C1     C     0.58901   0.49982   0.50000   0.00000  Uiso   1.00
C2     C     0.41099   0.50016   0.50001   0.00000  Uiso   1.00
C3     C     0.49995   0.64436   0.49999   0.00000  Uiso   1.00
C4     C     0.50006   0.35563   0.50001   0.00000  Uiso   1.00
Cu3    Cu    0.88346   0.49944   0.58030   0.00000  Uiso   1.00
Cu4    Cu    0.88346   0.49999   0.41972   0.00000  Uiso   1.00
O9     O     0.82175   0.49952   0.57489   0.00000  Uiso   1.00
O10    O     0.94529   0.49961   0.57488   0.00000  Uiso   1.00
O11    O     0.88335   0.59976   0.57529   0.00000  Uiso   1.00
O12    O     0.88369   0.39938   0.57449   0.00000  Uiso   1.00
O13    O     0.88359   0.39966   0.42473   0.00000  Uiso   1.00
O14    O     0.88322   0.60004   0.42553   0.00000  Uiso   1.00
O15    O     0.94522   0.50001   0.42513   0.00000  Uiso   1.00
O16    O     0.82163   0.49978   0.42514   0.00000  Uiso   1.00
C5     C     0.79445   0.49967   0.50001   0.00000  Uiso   1.00
C6     C     0.97247   0.49975   0.50000   0.00000  Uiso   1.00
C7     C     0.88318   0.64408   0.50059   0.00000  Uiso   1.00
C8     C     0.88374   0.35534   0.49943   0.00000  Uiso   1.00
N1     N     0.50001   0.50000   0.30038   0.00000  Uiso   1.00
C9     C     0.46954   0.54948   0.25392   0.00000  Uiso   1.00
C10    C     0.46944   0.54962   0.16508   0.00000  Uiso   1.00
C11    C     0.50000   0.49999   0.12006   0.00000  Uiso   1.00
C12    C     0.53056   0.45037   0.16507   0.00000  Uiso   1.00
C13    C     0.53047   0.45052   0.25391   0.00000  Uiso   1.00
C14    C     0.49999   0.50000   0.03772   0.00000  Uiso   1.00
C15    C     0.49999   0.50000   0.96228   0.00000  Uiso   1.00
C16    C     0.49999   0.49999   0.87995   0.00000  Uiso   1.00
C17    C     0.46942   0.54960   0.83493   0.00000  Uiso   1.00
C18    C     0.46951   0.54945   0.74608   0.00000  Uiso   1.00
N2     N     0.49999   0.49999   0.69962   0.00000  Uiso   1.00
C19    C     0.53047   0.45053   0.74608   0.00000  Uiso   1.00
C20    C     0.53056   0.45038   0.83493   0.00000  Uiso   1.00
H1     H     0.44690   0.58623   0.13391   0.00000  Uiso   1.00
H2     H     0.55310   0.41376   0.13389   0.00000  Uiso   1.00
H3     H     0.44687   0.58620   0.86610   0.00000  Uiso   1.00
H4     H     0.55311   0.41378   0.86610   0.00000  Uiso   1.00
C21    C     0.50004   0.27406   0.50001   0.00000  Uiso   1.00
C22    C     0.49998   0.23168   0.42345   0.00000  Uiso   1.00
C23    C     0.49996   0.15062   0.42322   0.00000  Uiso   1.00
C24    C     0.50001   0.10953   0.49999   0.00000  Uiso   1.00
C25    C     0.50007   0.15059   0.57678   0.00000  Uiso   1.00
C26    C     0.50009   0.23165   0.57656   0.00000  Uiso   1.00
C27    C     0.50000   0.03441   0.49999   0.00000  Uiso   1.00
C28    C     0.49999   0.96558   0.49998   0.00000  Uiso   1.00
C29    C     0.49998   0.89046   0.49998   0.00000  Uiso   1.00
C30    C     0.49990   0.84939   0.42320   0.00000  Uiso   1.00
C31    C     0.49989   0.76833   0.42343   0.00000  Uiso   1.00
C32    C     0.49995   0.72593   0.49999   0.00000  Uiso   1.00
C33    C     0.50003   0.76832   0.57654   0.00000  Uiso   1.00
C34    C     0.50004   0.84938   0.57677   0.00000  Uiso   1.00
H5     H     0.49991   0.12219   0.36656   0.00000  Uiso   1.00
H6     H     0.50011   0.12214   0.63343   0.00000  Uiso   1.00
H7     H     0.49985   0.87784   0.36655   0.00000  Uiso   1.00
H8     H     0.50009   0.87782   0.63342   0.00000  Uiso   1.00
C35    C     0.74355   0.49971   0.50001   0.00000  Uiso   1.00
C36    C     0.63991   0.49979   0.50000   0.00000  Uiso   1.00
C37    C     0.71760   0.49984   0.43337   0.00000  Uiso   1.00
C38    C     0.66586   0.49965   0.56664   0.00000  Uiso   1.00
C39    C     0.66587   0.49988   0.43337   0.00000  Uiso   1.00
C40    C     0.71759   0.49962   0.56664   0.00000  Uiso   1.00
C41    C     0.71651   0.50001   0.33860   0.00000  Uiso   1.00
C42    C     0.66698   0.50004   0.33860   0.00000  Uiso   1.00
H9     H     0.73406   0.44954   0.31064   0.00000  Uiso   1.00
H10    H     0.73419   0.55051   0.31135   0.00000  Uiso   1.00
H11    H     0.64943   0.55061   0.31082   0.00000  Uiso   1.00
H12    H     0.64931   0.44963   0.31114   0.00000  Uiso   1.00
C43    C     0.02276   0.49980   0.50001   0.00000  Uiso   1.00
C44    C     0.04889   0.49975   0.57656   0.00000  Uiso   1.00
C45    C     0.09887   0.49980   0.57679   0.00000  Uiso   1.00
C46    C     0.12420   0.49991   0.50002   0.00000  Uiso   1.00
C47    C     0.09888   0.49997   0.42323   0.00000  Uiso   1.00
C48    C     0.04891   0.49992   0.42346   0.00000  Uiso   1.00
C49    C     0.17051   0.49996   0.50002   0.00000  Uiso   1.00
C50    C     0.21295   0.50000   0.50003   0.00000  Uiso   1.00
C51    C     0.25926   0.50004   0.50002   0.00000  Uiso   1.00
C52    C     0.28459   0.50000   0.57680   0.00000  Uiso   1.00
C53    C     0.33456   0.50005   0.57657   0.00000  Uiso   1.00
C54    C     0.36070   0.50013   0.50001   0.00000  Uiso   1.00
C55    C     0.33457   0.50017   0.42346   0.00000  Uiso   1.00
C56    C     0.28459   0.50012   0.42324   0.00000  Uiso   1.00
H13    H     0.11640   0.49976   0.63345   0.00000  Uiso   1.00
H14    H     0.11642   0.50005   0.36658   0.00000  Uiso   1.00
H15    H     0.26705   0.49995   0.63345   0.00000  Uiso   1.00
H16    H     0.26706   0.50015   0.36659   0.00000  Uiso   1.00
N3     N     0.88345   0.50247   0.69964   0.00000  Uiso   1.00
C57    C     0.91380   0.55174   0.74629   0.00000  Uiso   1.00
C58    C     0.91390   0.55158   0.83513   0.00000  Uiso   1.00
C59    C     0.88346   0.50184   0.87996   0.00000  Uiso   1.00
C60    C     0.85302   0.45242   0.83475   0.00000  Uiso   1.00
C61    C     0.85310   0.45287   0.74591   0.00000  Uiso   1.00
C62    C     0.88347   0.50156   0.96230   0.00000  Uiso   1.00
C63    C     0.88347   0.50130   0.03773   0.00000  Uiso   1.00
C64    C     0.88347   0.50102   0.12007   0.00000  Uiso   1.00
C65    C     0.91392   0.55042   0.16528   0.00000  Uiso   1.00
C66    C     0.91383   0.54997   0.25412   0.00000  Uiso   1.00
N4     N     0.88347   0.50039   0.30039   0.00000  Uiso   1.00
C67    C     0.85311   0.45114   0.25374   0.00000  Uiso   1.00
C68    C     0.85302   0.45130   0.16489   0.00000  Uiso   1.00
H17    H     0.93637   0.58805   0.86644   0.00000  Uiso   1.00
H18    H     0.83056   0.41573   0.86579   0.00000  Uiso   1.00
H19    H     0.93639   0.58709   0.13425   0.00000  Uiso   1.00
H20    H     0.83055   0.41484   0.13358   0.00000  Uiso   1.00
C69    C     0.88163   0.27377   0.50304   0.00000  Uiso   1.00
C70    C     0.88179   0.23112   0.57943   0.00000  Uiso   1.00
C71    C     0.88200   0.15006   0.57934   0.00000  Uiso   1.00
C72    C     0.88204   0.10924   0.50240   0.00000  Uiso   1.00
C73    C     0.88188   0.15057   0.42578   0.00000  Uiso   1.00
C74    C     0.88168   0.23163   0.42632   0.00000  Uiso   1.00
C75    C     0.88223   0.03412   0.50212   0.00000  Uiso   1.00
C76    C     0.88240   0.96529   0.50186   0.00000  Uiso   1.00
C77    C     0.88258   0.89017   0.50156   0.00000  Uiso   1.00
C78    C     0.88276   0.84884   0.57818   0.00000  Uiso   1.00
C79    C     0.88295   0.76778   0.57763   0.00000  Uiso   1.00
C80    C     0.88298   0.72565   0.50091   0.00000  Uiso   1.00
C81    C     0.88281   0.76830   0.42452   0.00000  Uiso   1.00
C82    C     0.88261   0.84936   0.42461   0.00000  Uiso   1.00
H21    H     0.88211   0.12144   0.63589   0.00000  Uiso   1.00
H22    H     0.88191   0.12231   0.36902   0.00000  Uiso   1.00
H23    H     0.88274   0.87709   0.63494   0.00000  Uiso   1.00
H24    H     0.88249   0.87799   0.36807   0.00000  Uiso   1.00
O17    O     0.44090   0.59599   0.29302   0.00000  Uiso   1.00
Li1    Li    0.40016   0.66215   0.25880   0.00000  Uiso   1.00
O18    O     0.55912   0.40401   0.29300   0.00000  Uiso   1.00
Li2    Li    0.59986   0.33784   0.25876   0.00000  Uiso   1.00
O19    O     0.44087   0.59594   0.70699   0.00000  Uiso   1.00
Li3    Li    0.40011   0.66209   0.74122   0.00000  Uiso   1.00
O20    O     0.55912   0.40404   0.70699   0.00000  Uiso   1.00
Li4    Li    0.59987   0.33789   0.74122   0.00000  Uiso   1.00
O21    O     0.49993   0.26735   0.35149   0.00000  Uiso   1.00
Li5    Li    0.49985   0.23614   0.24911   0.00000  Uiso   1.00
O22    O     0.50015   0.26731   0.64852   0.00000  Uiso   1.00
Li6    Li    0.50021   0.23606   0.75090   0.00000  Uiso   1.00
O23    O     0.49982   0.73267   0.35147   0.00000  Uiso   1.00
Li7    Li    0.49973   0.76391   0.24909   0.00000  Uiso   1.00
O24    O     0.50009   0.73265   0.64850   0.00000  Uiso   1.00
Li8    Li    0.50019   0.76387   0.75088   0.00000  Uiso   1.00
O25    O     0.02689   0.49965   0.64852   0.00000  Uiso   1.00
Li9    Li    0.04614   0.49956   0.75090   0.00000  Uiso   1.00
O26    O     0.02692   0.49997   0.35149   0.00000  Uiso   1.00
Li10   Li    0.04618   0.50011   0.24912   0.00000  Uiso   1.00
O27    O     0.35655   0.50001   0.64853   0.00000  Uiso   1.00
Li11   Li    0.33729   0.49991   0.75091   0.00000  Uiso   1.00
O28    O     0.35656   0.50024   0.35150   0.00000  Uiso   1.00
Li12   Li    0.33731   0.50031   0.24912   0.00000  Uiso   1.00
O29    O     0.94233   0.59834   0.70737   0.00000  Uiso   1.00
Li13   Li    0.98293   0.66433   0.74185   0.00000  Uiso   1.00
O30    O     0.82457   0.40654   0.70664   0.00000  Uiso   1.00
Li14   Li    0.78398   0.34032   0.74062   0.00000  Uiso   1.00
O31    O     0.94237   0.59628   0.29340   0.00000  Uiso   1.00
Li15   Li    0.98298   0.66248   0.25943   0.00000  Uiso   1.00
O32    O     0.82457   0.40455   0.29265   0.00000  Uiso   1.00
Li16   Li    0.78396   0.33858   0.25816   0.00000  Uiso   1.00
O33    O     0.88176   0.26656   0.65152   0.00000  Uiso   1.00
Li17   Li    0.88191   0.23499   0.75378   0.00000  Uiso   1.00
O34    O     0.88154   0.26753   0.35450   0.00000  Uiso   1.00
Li18   Li    0.88154   0.23664   0.25200   0.00000  Uiso   1.00
O35    O     0.88311   0.73187   0.64945   0.00000  Uiso   1.00
Li19   Li    0.88313   0.76276   0.75195   0.00000  Uiso   1.00
O36    O     0.88283   0.73287   0.35242   0.00000  Uiso   1.00
Li20   Li    0.88266   0.76445   0.25017   0.00000  Uiso   1.00
Cl1    Cl    0.63960   0.49952   0.66739   0.00000  Uiso   1.00
Cl2    Cl    0.74383   0.49937   0.66741   0.00000  Uiso   1.00
