# generated using pymatgen
data_ZnH7C8SN3O7
_symmetry_space_group_name_H-M   'P 1'
_cell_length_a   13.19050000
_cell_length_b   17.78110000
_cell_length_c   10.00000000
_cell_angle_alpha   90.00000000
_cell_angle_beta   90.00000000
_cell_angle_gamma   89.86260000
_symmetry_Int_Tables_number   1
_chemical_formula_structural   ZnH7C8SN3O7
_chemical_formula_sum   'Zn4 H28 C32 S4 N12 O28'
_cell_volume   2345.40925150
_cell_formula_units_Z   4
loop_
 _symmetry_equiv_pos_site_id
 _symmetry_equiv_pos_as_xyz
  1  'x, y, z'
loop_
 _atom_site_type_symbol
 _atom_site_label
 _atom_site_symmetry_multiplicity
 _atom_site_fract_x
 _atom_site_fract_y
 _atom_site_fract_z
 _atom_site_occupancy
  Zn  Zn1  1  0.49993000  0.50018000  0.66577000  1
  Zn  Zn2  1  0.50010000  0.49983000  0.33423000  1
  Zn  Zn3  1  0.49911000  0.99988000  0.22563000  1
  Zn  Zn4  1  0.49928000  0.00023000  0.55716000  1
  H  H1  1  0.40045000  0.64381000  0.15519000  1
  H  H2  1  0.40010000  0.85642000  0.73621000  1
  H  H3  1  0.59974000  0.35604000  0.15575000  1
  H  H4  1  0.59743000  0.14289000  0.73613000  1
  H  H5  1  0.69308000  0.46316000  0.73457000  1
  H  H6  1  0.76876000  0.53716000  0.83265000  1
  H  H7  1  0.04030000  0.53740000  0.84885000  1
  H  H8  1  0.93885000  0.46358000  0.89057000  1
  H  H9  1  0.21736000  0.53741000  0.77539000  1
  H  H10  1  0.11563000  0.46360000  0.81597000  1
  H  H11  1  0.30728000  0.46297000  0.26574000  1
  H  H12  1  0.23090000  0.53657000  0.16700000  1
  H  H13  1  0.95938000  0.53632000  0.15081000  1
  H  H14  1  0.06154000  0.46255000  0.10977000  1
  H  H15  1  0.78234000  0.53633000  0.22431000  1
  H  H16  1  0.88472000  0.46255000  0.18434000  1
  H  H17  1  0.69214000  0.03656000  0.15683000  1
  H  H18  1  0.76806000  0.96243000  0.05874000  1
  H  H19  1  0.03960000  0.96171000  0.04254000  1
  H  H20  1  0.93791000  0.03571000  0.00082000  1
  H  H21  1  0.21666000  0.96139000  0.11600000  1
  H  H22  1  0.11469000  0.03538000  0.07542000  1
  H  H23  1  0.30634000  0.03567000  0.62565000  1
  H  H24  1  0.23020000  0.96220000  0.72439000  1
  H  H25  1  0.95869000  0.96293000  0.74058000  1
  H  H26  1  0.06060000  0.03652000  0.78161000  1
  H  H27  1  0.78164000  0.96323000  0.66708000  1
  H  H28  1  0.88379000  0.03684000  0.70705000  1
  C  C1  1  0.30229000  0.50022000  0.49991000  1
  C  C2  1  0.50001000  0.64669000  0.49985000  1
  C  C3  1  0.69774000  0.49972000  0.50010000  1
  C  C4  1  0.49967000  0.35331000  0.50015000  1
  C  C5  1  0.30147000  0.00019000  0.39149000  1
  C  C6  1  0.49967000  0.85337000  0.39155000  1
  C  C7  1  0.69692000  0.99999000  0.39129000  1
  C  C8  1  0.49837000  0.14675000  0.39124000  1
  C  C9  1  0.49981000  0.77056000  0.38958000  1
  C  C10  1  0.49987000  0.72950000  0.50181000  1
  C  C11  1  0.49896000  0.22956000  0.38952000  1
  C  C12  1  0.49909000  0.27050000  0.50187000  1
  C  C13  1  0.12162000  0.50021000  0.59784000  1
  C  C14  1  0.15945000  0.49991000  0.36377000  1
  C  C15  1  0.05656000  0.49977000  0.32763000  1
  C  C16  1  0.98404000  0.49986000  0.43234000  1
  C  C17  1  0.87841000  0.49973000  0.40216000  1
  C  C18  1  0.84058000  0.50003000  0.63623000  1
  C  C19  1  0.94347000  0.50017000  0.67237000  1
  C  C20  1  0.01600000  0.50008000  0.56766000  1
  C  C21  1  0.19005000  0.50013000  0.49994000  1
  C  C22  1  0.80998000  0.49981000  0.50006000  1
  C  C23  1  0.12081000  0.99876000  0.29354000  1
  C  C24  1  0.15864000  0.99899000  0.52761000  1
  C  C25  1  0.05574000  0.99931000  0.56375000  1
  C  C26  1  0.98322000  0.99935000  0.45904000  1
  C  C27  1  0.87759000  0.99966000  0.48923000  1
  C  C28  1  0.83976000  0.99943000  0.25516000  1
  C  C29  1  0.94265000  0.99911000  0.21902000  1
  C  C30  1  0.01518000  0.99907000  0.32373000  1
  C  C31  1  0.18923000  0.99872000  0.39144000  1
  C  C32  1  0.80916000  0.99970000  0.39133000  1
  S  S1  1  0.49988000  0.72602000  0.23409000  1
  S  S2  1  0.49980000  0.77404000  0.65731000  1
  S  S3  1  0.49949000  0.27424000  0.23416000  1
  S  S4  1  0.49855000  0.22582000  0.65724000  1
  N  N1  1  0.76039000  0.50013000  0.74400000  1
  N  N2  1  0.97719000  0.50040000  0.81667000  1
  N  N3  1  0.15443000  0.50042000  0.74251000  1
  N  N4  1  0.23962000  0.49981000  0.25598000  1
  N  N5  1  0.02285000  0.49953000  0.18333000  1
  N  N6  1  0.84559000  0.49952000  0.25750000  1
  N  N7  1  0.75957000  0.99948000  0.14739000  1
  N  N8  1  0.97636000  0.99882000  0.07472000  1
  N  N9  1  0.15361000  0.99849000  0.14888000  1
  N  N10  1  0.23881000  0.99895000  0.63540000  1
  N  N11  1  0.02203000  0.99961000  0.70806000  1
  N  N12  1  0.84477000  0.99993000  0.63389000  1
  O  O1  1  0.35372000  0.50066000  0.63579000  1
  O  O2  1  0.35388000  0.49999000  0.36398000  1
  O  O3  1  0.50007000  0.60829000  0.36388000  1
  O  O4  1  0.50007000  0.60863000  0.63570000  1
  O  O5  1  0.64631000  0.49948000  0.36421000  1
  O  O6  1  0.64615000  0.49987000  0.63602000  1
  O  O7  1  0.49975000  0.39171000  0.63612000  1
  O  O8  1  0.50013000  0.39137000  0.36430000  1
  O  O9  1  0.35290000  0.99966000  0.25561000  1
  O  O10  1  0.35306000  0.00033000  0.52741000  1
  O  O11  1  0.49961000  0.89177000  0.52751000  1
  O  O12  1  0.49961000  0.89143000  0.25570000  1
  O  O13  1  0.64549000  0.00032000  0.52718000  1
  O  O14  1  0.64533000  0.99993000  0.25538000  1
  O  O15  1  0.49858000  0.10835000  0.25528000  1
  O  O16  1  0.49896000  0.10869000  0.52709000  1
  O  O17  1  0.38399000  0.69262000  0.19511000  1
  O  O18  1  0.53356000  0.78000000  0.11526000  1
  O  O19  1  0.57236000  0.65438000  0.23227000  1
  O  O20  1  0.38380000  0.80764000  0.69629000  1
  O  O21  1  0.53366000  0.71999000  0.77613000  1
  O  O22  1  0.57205000  0.84554000  0.65912000  1
  O  O23  1  0.61572000  0.30712000  0.19556000  1
  O  O24  1  0.46551000  0.22052000  0.11509000  1
  O  O25  1  0.42763000  0.34622000  0.23238000  1
  O  O26  1  0.61421000  0.19163000  0.69640000  1
  O  O27  1  0.46500000  0.27992000  0.77614000  1
  O  O28  1  0.42569000  0.15466000  0.65866000  1
