# generated using pymatgen
data_Zn4H29C44N9(ClO8)2
_symmetry_space_group_name_H-M   'P 1'
_cell_length_a   24.09160000
_cell_length_b   10.90060000
_cell_length_c   10.01700000
_cell_angle_alpha   90.03580000
_cell_angle_beta   89.87850000
_cell_angle_gamma   89.85870000
_symmetry_Int_Tables_number   1
_chemical_formula_structural   Zn4H29C44N9(ClO8)2
_chemical_formula_sum   'Zn4 H29 C44 N9 Cl2 O16'
_cell_volume   2630.57893252
_cell_formula_units_Z   1
loop_
 _symmetry_equiv_pos_site_id
 _symmetry_equiv_pos_as_xyz
  1  'x, y, z'
loop_
 _atom_site_type_symbol
 _atom_site_label
 _atom_site_symmetry_multiplicity
 _atom_site_fract_x
 _atom_site_fract_y
 _atom_site_fract_z
 _atom_site_occupancy
  Zn  Zn1  1  0.50000000  0.50002000  0.66548000  1
  Zn  Zn2  1  0.50000000  0.50001000  0.33451000  1
  Zn  Zn3  1  0.04753000  0.49798000  0.33459000  1
  Zn  Zn4  1  0.04753000  0.49838000  0.66557000  1
  H  H1  1  0.55983000  0.36841000  0.11694000  1
  H  H2  1  0.44019000  0.63161000  0.11775000  1
  H  H3  1  0.55982000  0.36842000  0.88225000  1
  H  H4  1  0.50010000  0.10802000  0.70271000  1
  H  H5  1  0.49999000  0.10768000  0.29723000  1
  H  H6  1  0.49997000  0.89236000  0.70277000  1
  H  H7  1  0.85356000  0.49897000  0.29797000  1
  H  H8  1  0.89226000  0.49911000  0.71319000  1
  H  H9  1  0.69398000  0.49980000  0.70210000  1
  H  H10  1  0.65526000  0.49965000  0.28691000  1
  H  H11  1  0.22521000  0.49808000  0.29723000  1
  H  H12  1  0.22475000  0.49764000  0.70271000  1
  H  H13  1  0.32278000  0.49914000  0.29737000  1
  H  H14  1  0.98782000  0.36620000  0.88316000  1
  H  H15  1  0.10723000  0.62860000  0.88232000  1
  H  H16  1  0.98783000  0.36650000  0.11785000  1
  H  H17  1  0.04691000  0.10593000  0.29730000  1
  H  H18  1  0.04702000  0.10610000  0.70278000  1
  H  H19  1  0.04723000  0.89026000  0.29726000  1
  H  H20  1  0.44153000  0.71348000  0.76722000  1
  H  H21  1  0.38247000  0.67379000  0.88899000  1
  H  H22  1  0.52701000  0.78524000  0.23667000  1
  H  H23  1  0.47259000  0.89728000  0.16687000  1
  H  H24  1  0.37065000  0.43897000  0.76328000  1
  H  H25  1  0.31965000  0.55873000  0.83356000  1
  H  H26  1  0.10582000  0.71092000  0.23284000  1
  H  H27  1  0.16492000  0.67067000  0.11107000  1
  H  H28  1  0.02028000  0.78391000  0.76337000  1
  H  H29  1  0.07460000  0.89568000  0.83316000  1
  C  C1  1  0.50014000  0.26075000  0.49992000  1
  C  C2  1  0.60827000  0.49994000  0.49979000  1
  C  C3  1  0.49982000  0.73928000  0.50008000  1
  C  C4  1  0.39174000  0.49968000  0.50021000  1
  C  C5  1  0.04760000  0.25891000  0.50019000  1
  C  C6  1  0.93926000  0.49883000  0.50029000  1
  C  C7  1  0.04751000  0.73745000  0.49997000  1
  C  C8  1  0.15580000  0.49711000  0.49987000  1
  C  C9  1  0.46468000  0.57774000  0.93080000  1
  C  C10  1  0.53534000  0.42229000  0.06919000  1
  C  C11  1  0.46468000  0.57774000  0.06967000  1
  C  C12  1  0.53533000  0.42229000  0.93033000  1
  C  C13  1  0.49990000  0.87152000  0.50004000  1
  C  C14  1  0.50006000  0.12851000  0.49996000  1
  C  C15  1  0.49991000  0.93611000  0.38028000  1
  C  C16  1  0.50005000  0.06392000  0.61972000  1
  C  C17  1  0.49999000  0.06372000  0.38025000  1
  C  C18  1  0.49997000  0.93631000  0.61976000  1
  C  C19  1  0.84045000  0.49910000  0.40243000  1
  C  C20  1  0.86092000  0.49918000  0.63612000  1
  C  C21  1  0.80455000  0.49939000  0.67215000  1
  C  C22  1  0.76495000  0.49946000  0.56757000  1
  C  C23  1  0.70708000  0.49967000  0.59765000  1
  C  C24  1  0.68661000  0.49959000  0.36396000  1
  C  C25  1  0.74299000  0.49938000  0.32793000  1
  C  C26  1  0.78259000  0.49931000  0.43250000  1
  C  C27  1  0.87781000  0.49904000  0.50020000  1
  C  C28  1  0.66972000  0.49973000  0.49988000  1
  C  C29  1  0.33190000  0.49903000  0.50012000  1
  C  C30  1  0.21563000  0.49776000  0.49996000  1
  C  C31  1  0.30250000  0.49858000  0.61982000  1
  C  C32  1  0.24503000  0.49821000  0.38026000  1
  C  C33  1  0.24476000  0.49795000  0.61973000  1
  C  C34  1  0.30277000  0.49884000  0.38034000  1
  C  C35  1  0.08279000  0.57512000  0.06927000  1
  C  C36  1  0.01226000  0.41998000  0.93090000  1
  C  C37  1  0.08279000  0.57495000  0.93040000  1
  C  C38  1  0.01227000  0.42015000  0.06976000  1
  C  C39  1  0.04731000  0.86969000  0.49999000  1
  C  C40  1  0.04694000  0.12668000  0.50004000  1
  C  C41  1  0.04725000  0.93443000  0.61974000  1
  C  C42  1  0.04700000  0.06194000  0.38029000  1
  C  C43  1  0.04706000  0.06204000  0.61977000  1
  C  C44  1  0.04719000  0.93433000  0.38027000  1
  N  N1  1  0.50000000  0.50002000  0.86017000  1
  N  N2  1  0.50001000  0.50001000  0.13983000  1
  N  N3  1  0.04753000  0.49773000  0.13991000  1
  N  N4  1  0.04752000  0.49737000  0.86025000  1
  N  N5  1  0.42616000  0.66249000  0.85570000  1
  N  N6  1  0.49983000  0.86675000  0.24975000  1
  N  N7  1  0.33369000  0.49878000  0.75042000  1
  N  N8  1  0.12124000  0.65971000  0.14435000  1
  N  N9  1  0.04739000  0.86523000  0.75028000  1
  Cl  Cl1  1  0.76468000  0.49920000  0.16005000  1
  Cl  Cl2  1  0.78286000  0.49955000  0.84004000  1
  O  O1  1  0.50036000  0.32308000  0.63557000  1
  O  O2  1  0.50008000  0.32310000  0.36422000  1
  O  O3  1  0.58003000  0.49995000  0.36407000  1
  O  O4  1  0.58007000  0.50012000  0.63542000  1
  O  O5  1  0.49975000  0.67696000  0.36443000  1
  O  O6  1  0.49982000  0.67694000  0.63578000  1
  O  O7  1  0.41997000  0.49984000  0.63593000  1
  O  O8  1  0.41993000  0.50013000  0.36457000  1
  O  O9  1  0.04732000  0.32107000  0.36453000  1
  O  O10  1  0.04760000  0.32143000  0.63588000  1
  O  O11  1  0.96750000  0.49882000  0.63601000  1
  O  O12  1  0.96746000  0.49865000  0.36465000  1
  O  O13  1  0.04763000  0.67529000  0.63563000  1
  O  O14  1  0.04756000  0.67493000  0.36428000  1
  O  O15  1  0.12756000  0.49729000  0.36415000  1
  O  O16  1  0.12760000  0.49792000  0.63551000  1
