# Generated by REPEAT Assigner based on pymatgen
data_DB1-MIL53Cr-ADC_B-irmof7_B_No120
_audit_creation_date              2022-05-24
_audit_creation_method            REPEAT_Assigner
_cell_length_a                    21.882900
_cell_length_b                    15.073400
_cell_length_c                    6.812000
_cell_angle_alpha                 90.000000
_cell_angle_beta                  90.000400
_cell_angle_gamma                 46.458300
_cell_volume                      1628.743810
_symmetry_space_group_name_H-M    P1
_symmetry_Int_Tables_number       1
loop_
    _symmetry_equiv_pos_site_id
    _symmetry_equiv_pos_as_xyz
    1  x,y,z
loop_
    _atom_site_type_symbol
    _atom_site_label
    _atom_site_fract_x
    _atom_site_fract_y
    _atom_site_fract_z
    _atom_type_partial_charge
    O   O1   0.419170  0.669930  0.093950  -0.686160
    O   O2   0.580810  0.508240  0.093950  -0.683203
    Cr  Cr1  0.500010  0.499980  0.000000  2.019939
    H   H1   0.499940  0.381760  0.250000  0.491786
    O   O3   0.580810  0.508240  0.406050  -0.684990
    O   O4   0.580780  0.330160  0.593950  -0.762063
    O   O5   0.419190  0.491750  0.906050  -0.759580
    O   O6   0.419190  0.491750  0.593950  -0.546816
    O   O7   0.580790  0.330150  0.906050  -0.549385
    O   O8   0.419170  0.669930  0.406050  -0.684620
    Cr  Cr2  0.500010  0.499980  0.500000  2.021315
    O   O9   0.500010  0.444650  0.250000  -1.077282
    O   O10  0.500010  0.555370  0.750000  -1.202920
    C   C1   0.620770  0.506280  0.250000  0.756605
    C   C2   0.379230  0.747880  0.250000  0.759146
    C   C3   0.620730  0.252200  0.750000  0.842930
    C   C4   0.379250  0.493680  0.750000  0.842786
    H   H2   0.500020  0.618330  0.750000  0.502800
    O   O11  0.080900  0.329900  0.093950  -0.536846
    O   O12  0.919260  0.491580  0.093950  -0.664410
    Cr  Cr3  0.000060  0.499850  0.000000  1.777089
    H   H3   0.000130  0.618070  0.250000  0.422428
    O   O13  0.919260  0.491580  0.406050  -0.530531
    O   O14  0.919290  0.669670  0.593950  -0.609614
    O   O15  0.080890  0.508070  0.906050  -0.604214
    O   O16  0.080890  0.508070  0.593950  -0.638659
    O   O17  0.919290  0.669660  0.906050  -0.641202
    O   O18  0.080900  0.329890  0.406050  -0.668783
    Cr  Cr4  0.000060  0.499840  0.500000  1.775912
    O   O19  0.000070  0.555170  0.250000  -0.798300
    O   O20  0.000060  0.444450  0.750000  -0.970060
    C   C5   0.879310  0.493550  0.250000  0.864555
    C   C6   0.120840  0.251940  0.250000  0.876122
    C   C7   0.879350  0.747620  0.750000  0.781935
    C   C8   0.120830  0.506140  0.750000  0.775064
    H   H4   0.000060  0.381490  0.750000  0.491069
    C   C9   0.811050  0.496910  0.250000  -0.316547
    C   C10  0.742440  0.577690  0.377080  0.201406
    C   C11  0.815620  0.419280  0.122920  0.183054
    C   C12  0.740530  0.653390  0.501210  -0.360193
    C   C13  0.673440  0.734990  0.629770  0.121728
    H   H5   0.784930  0.649160  0.497860  0.196963
    H   H6   0.672300  0.785260  0.712210  0.044591
    C   C14  0.689030  0.502920  0.250000  -0.290426
    C   C15  0.757630  0.422140  0.122920  0.104318
    C   C16  0.684450  0.580540  0.377080  0.368322
    C   C17  0.614890  0.659570  0.501210  -0.444227
    C   C18  0.607960  0.738210  0.629770  -0.051209
    H   H7   0.572420  0.659620  0.497860  0.246042
    H   H8   0.561630  0.790710  0.712210  0.118751
    C   C19  0.189060  0.502850  0.750000  -0.222950
    C   C20  0.184450  0.580510  0.622920  0.247419
    C   C21  0.257670  0.422100  0.877080  0.056078
    C   C22  0.114880  0.659510  0.498790  -0.294935
    C   C23  0.107910  0.738180  0.370230  -0.110876
    H   H9   0.072430  0.659520  0.502140  0.141346
    H   H10  0.061580  0.790660  0.287790  0.147985
    C   C24  0.311020  0.496970  0.750000  -0.146883
    C   C25  0.315630  0.419310  0.877080  0.160873
    C   C26  0.242410  0.577720  0.622920  0.066721
    C   C27  0.240460  0.653450  0.498790  -0.031885
    C   C28  0.173360  0.735030  0.370230  0.035320
    H   H11  0.284840  0.649270  0.502140  -0.032240
    H   H12  0.172190  0.785320  0.287790  0.065140
    C   C29  0.810950  0.880960  0.750000  -0.228084
    C   C30  0.815550  0.949410  0.877080  0.253130
    C   C31  0.742340  0.937430  0.622920  0.061037
    C   C32  0.885120  0.889270  0.001210  -0.296558
    C   C33  0.892070  0.954020  0.129770  -0.111441
    H   H13  0.927570  0.804370  0.997860  0.141318
    H   H14  0.938400  0.913830  0.212210  0.147490
    C   C34  0.688970  0.119020  0.750000  -0.138593
    C   C35  0.684370  0.050570  0.622920  0.152227
    C   C36  0.757570  0.062550  0.877080  0.059647
    C   C37  0.759510  0.134400  0.001210  -0.033935
    C   C38  0.826610  0.081770  0.129770  0.037977
    H   H15  0.715130  0.218980  0.997860  -0.028252
    H   H16  0.827770  0.129740  0.212210  0.064597
    C   C39  0.189000  0.119120  0.250000  -0.322785
    C   C40  0.257610  0.062660  0.122920  0.202684
    C   C41  0.184410  0.050660  0.377080  0.186676
    C   C42  0.259540  0.134510  0.998790  -0.368633
    C   C43  0.326640  0.081890  0.870230  0.124235
    H   H17  0.215160  0.219090  0.002140  0.202899
    H   H18  0.327800  0.129850  0.787790  0.044012
    C   C44  0.310990  0.881060  0.250000  -0.291366
    C   C45  0.242380  0.937520  0.377080  0.101616
    C   C46  0.315580  0.949520  0.122920  0.371620
    C   C47  0.385150  0.889380  0.998790  -0.446331
    C   C48  0.392100  0.954130  0.870230  -0.051230
    H   H19  0.427610  0.804480  0.002140  0.246867
    H   H20  0.438430  0.913950  0.787790  0.118778
    O   O21  0.735670  0.276080  0.062850  -0.140592
    O   O22  0.787360  0.323450  0.781780  -0.251551
    N   N1   0.760240  0.339900  0.988110  0.202701
    O   O23  0.924420  0.377340  0.881330  -0.290231
    O   O24  0.930070  0.205870  0.963290  -0.232561
    N   N2   0.890630  0.333480  0.988110  0.219837
    O   O25  0.476690  0.264320  0.937150  -0.202292
    O   O26  0.377840  0.319030  0.218220  -0.252601
    N   N3   0.390650  0.333540  0.011890  0.159857
    O   O27  0.183500  0.389080  0.118660  -0.407821
    O   O28  0.339720  0.210260  0.036710  -0.226916
    N   N4   0.260320  0.339830  0.011890  0.367687
    O   O29  0.523300  0.217720  0.562850  -0.203899
    O   O30  0.622170  0.074710  0.281780  -0.253372
    N   N5   0.609350  0.114840  0.488120  0.164572
    O   O31  0.816520  0.756060  0.381330  -0.406439
    O   O32  0.660300  0.889690  0.463290  -0.227422
    N   N6   0.739700  0.860450  0.488120  0.366911
    O   O33  0.264290  0.747580  0.437150  -0.139675
    O   O34  0.212630  0.898330  0.718220  -0.251558
    N   N7   0.239750  0.860540  0.511880  0.204127
    O   O35  0.075620  0.226370  0.618660  -0.288803
    O   O36  0.069930  0.066230  0.536710  -0.233633
    N   N8   0.109390  0.114930  0.511880  0.218543
