data_DB1-Cu2O8N2-irmof10_A-pmof1_A_No10_repeat
_audit_creation_date              2024-02-23
_audit_creation_method            'Materials Studio'
_symmetry_space_group_name_H-M    'P1'
_symmetry_Int_Tables_number       1
_symmetry_cell_setting            triclinic
loop_
_symmetry_equiv_pos_as_xyz
  x,y,z
_cell_length_a                    16.4229
_cell_length_b                    23.6231
_cell_length_c                    13.3747
_cell_angle_alpha                 90.0000
_cell_angle_beta                  89.4937
_cell_angle_gamma                 45.9572
loop_
_atom_site_label
_atom_site_type_symbol
_atom_site_fract_x
_atom_site_fract_y
_atom_site_fract_z
_atom_site_U_iso_or_equiv
_atom_site_adp_type
_atom_site_occupancy
Cu1    Cu    0.49999   0.50000   0.40485   0.00000  Uiso   1.00
Cu2    Cu    0.49999   0.50000   0.59515   0.00000  Uiso   1.00
O1     O     0.35273   0.57277   0.41286   0.00000  Uiso   1.00
O2     O     0.64757   0.42724   0.40966   0.00000  Uiso   1.00
O3     O     0.50320   0.57220   0.41123   0.00000  Uiso   1.00
O4     O     0.49710   0.42782   0.41130   0.00000  Uiso   1.00
O5     O     0.49683   0.42778   0.58877   0.00000  Uiso   1.00
O6     O     0.50285   0.57220   0.58870   0.00000  Uiso   1.00
O7     O     0.64739   0.42724   0.58713   0.00000  Uiso   1.00
O8     O     0.35242   0.57274   0.59033   0.00000  Uiso   1.00
C1     C     0.28758   0.60487   0.50231   0.00000  Uiso   1.00
C2     C     0.71241   0.39513   0.49770   0.00000  Uiso   1.00
C3     C     0.50429   0.60407   0.49995   0.00000  Uiso   1.00
C4     C     0.49569   0.39593   0.50005   0.00000  Uiso   1.00
N1     N     0.49999   0.50000   0.73656   0.00000  Uiso   1.00
N2     N     0.49999   0.50000   0.26343   0.00000  Uiso   1.00
C5     C     0.42669   0.50027   0.79008   0.00000  Uiso   1.00
C6     C     0.42601   0.50027   0.89495   0.00000  Uiso   1.00
C7     C     0.57330   0.49973   0.20992   0.00000  Uiso   1.00
C8     C     0.57398   0.49972   0.10505   0.00000  Uiso   1.00
C9     C     0.42669   0.50027   0.21151   0.00000  Uiso   1.00
C10    C     0.42601   0.50028   0.10666   0.00000  Uiso   1.00
C11    C     0.57330   0.49973   0.78849   0.00000  Uiso   1.00
C12    C     0.57398   0.49972   0.89334   0.00000  Uiso   1.00
C13    C     0.50000   0.50000   0.94717   0.00000  Uiso   1.00
C14    C     0.49999   0.50000   0.05282   0.00000  Uiso   1.00
H1     H     0.37587   0.50046   0.75475   0.00000  Uiso   1.00
H2     H     0.62412   0.49954   0.24525   0.00000  Uiso   1.00
H3     H     0.37587   0.50046   0.24794   0.00000  Uiso   1.00
H4     H     0.37498   0.50046   0.07176   0.00000  Uiso   1.00
H5     H     0.62412   0.49954   0.75205   0.00000  Uiso   1.00
H6     H     0.62501   0.49953   0.92823   0.00000  Uiso   1.00
C15    C     0.98090   0.76061   0.59172   0.00000  Uiso   1.00
C16    C     0.50040   0.75858   0.40965   0.00000  Uiso   1.00
C17    C     0.01590   0.24093   0.58891   0.00000  Uiso   1.00
C18    C     0.50278   0.23989   0.40973   0.00000  Uiso   1.00
C19    C     0.01909   0.23939   0.40828   0.00000  Uiso   1.00
C20    C     0.49959   0.24142   0.59035   0.00000  Uiso   1.00
C21    C     0.98409   0.75907   0.41109   0.00000  Uiso   1.00
C22    C     0.49721   0.76011   0.59027   0.00000  Uiso   1.00
H7     H     0.93421   0.78386   0.66165   0.00000  Uiso   1.00
H8     H     0.50169   0.78069   0.33959   0.00000  Uiso   1.00
H9     H     0.06012   0.21887   0.65911   0.00000  Uiso   1.00
H10    H     0.50396   0.21659   0.33966   0.00000  Uiso   1.00
H11    H     0.06578   0.21614   0.33835   0.00000  Uiso   1.00
H12    H     0.49830   0.21931   0.66042   0.00000  Uiso   1.00
H13    H     0.93987   0.78113   0.34089   0.00000  Uiso   1.00
H14    H     0.49602   0.78341   0.66035   0.00000  Uiso   1.00
C23    C     0.09937   0.70097   0.59215   0.00000  Uiso   1.00
C24    C     0.50145   0.69882   0.40956   0.00000  Uiso   1.00
C25    C     0.89742   0.30057   0.58865   0.00000  Uiso   1.00
C26    C     0.50173   0.29964   0.40965   0.00000  Uiso   1.00
C27    C     0.90062   0.29903   0.40785   0.00000  Uiso   1.00
C28    C     0.49854   0.30118   0.59044   0.00000  Uiso   1.00
C29    C     0.10256   0.69943   0.41135   0.00000  Uiso   1.00
C30    C     0.49825   0.70035   0.59035   0.00000  Uiso   1.00
H15    H     0.14221   0.67924   0.66294   0.00000  Uiso   1.00
H16    H     0.50335   0.67585   0.33889   0.00000  Uiso   1.00
H17    H     0.85208   0.32349   0.65919   0.00000  Uiso   1.00
H18    H     0.50232   0.32142   0.33898   0.00000  Uiso   1.00
H19    H     0.85777   0.32076   0.33706   0.00000  Uiso   1.00
H20    H     0.49663   0.32415   0.66111   0.00000  Uiso   1.00
H21    H     0.14790   0.67651   0.34081   0.00000  Uiso   1.00
H22    H     0.49766   0.67858   0.66102   0.00000  Uiso   1.00
N3     N     0.62144   0.87868   0.50034   0.00000  Uiso   1.00
N4     N     0.37855   0.12132   0.49966   0.00000  Uiso   1.00
C31    C     0.74129   0.82784   0.50069   0.00000  Uiso   1.00
C32    C     0.60351   0.82770   0.50028   0.00000  Uiso   1.00
C33    C     0.25870   0.17216   0.49931   0.00000  Uiso   1.00
C34    C     0.39648   0.17230   0.49972   0.00000  Uiso   1.00
C35    C     0.79474   0.74586   0.50084   0.00000  Uiso   1.00
C36    C     0.71412   0.74578   0.50060   0.00000  Uiso   1.00
C37    C     0.20525   0.25413   0.49916   0.00000  Uiso   1.00
C38    C     0.28586   0.25422   0.49940   0.00000  Uiso   1.00
H23    H     0.88461   0.69336   0.50110   0.00000  Uiso   1.00
H24    H     0.72945   0.69320   0.50064   0.00000  Uiso   1.00
H25    H     0.11538   0.30664   0.49890   0.00000  Uiso   1.00
H26    H     0.27053   0.30680   0.49936   0.00000  Uiso   1.00
C39    C     0.74020   0.93567   0.50071   0.00000  Uiso   1.00
C40    C     0.38893   0.93532   0.49966   0.00000  Uiso   1.00
C41    C     0.25979   0.06432   0.49929   0.00000  Uiso   1.00
C42    C     0.61105   0.06468   0.50034   0.00000  Uiso   1.00
C43    C     0.79694   0.95961   0.50088   0.00000  Uiso   1.00
C44    C     0.28442   0.95909   0.49935   0.00000  Uiso   1.00
C45    C     0.20304   0.04038   0.49912   0.00000  Uiso   1.00
C46    C     0.71557   0.04091   0.50065   0.00000  Uiso   1.00
H27    H     0.88766   0.92235   0.50115   0.00000  Uiso   1.00
H28    H     0.26842   0.92172   0.49930   0.00000  Uiso   1.00
H29    H     0.11233   0.07765   0.49886   0.00000  Uiso   1.00
H30    H     0.73157   0.07828   0.50070   0.00000  Uiso   1.00
C47    C     0.79700   0.85124   0.50086   0.00000  Uiso   1.00
C48    C     0.50111   0.85094   0.49998   0.00000  Uiso   1.00
C49    C     0.20299   0.14876   0.49914   0.00000  Uiso   1.00
C50    C     0.49887   0.14906   0.50002   0.00000  Uiso   1.00
C51    C     0.92264   0.78970   0.50123   0.00000  Uiso   1.00
C52    C     0.49882   0.78927   0.49997   0.00000  Uiso   1.00
C53    C     0.07735   0.21030   0.49877   0.00000  Uiso   1.00
C54    C     0.50117   0.21073   0.50004   0.00000  Uiso   1.00
C55    C     0.16180   0.66931   0.50193   0.00000  Uiso   1.00
C56    C     0.50092   0.66864   0.49995   0.00000  Uiso   1.00
C57    C     0.83818   0.33069   0.49808   0.00000  Uiso   1.00
C58    C     0.49907   0.33136   0.50005   0.00000  Uiso   1.00
N5     N     0.62745   0.00013   0.50038   0.00000  Uiso   1.00
N6     N     0.37253   0.99987   0.49962   0.00000  Uiso   1.00
H31    H     0.56508   0.00007   0.50020   0.00000  Uiso   1.00
H32    H     0.43490   0.99993   0.49981   0.00000  Uiso   1.00
O9     O     0.35702   0.50053   0.94362   0.00000  Uiso   1.00
Li1    Li    0.25723   0.50090   0.90643   0.00000  Uiso   1.00
O10    O     0.64297   0.49947   0.05638   0.00000  Uiso   1.00
Li2    Li    0.74276   0.49910   0.09357   0.00000  Uiso   1.00
