# Generated by REPEAT Assigner based on pymatgen
data_DB1-Cu2N8-AZO_B-irmof20_B_No380
_audit_creation_date              2022-05-24
_audit_creation_method            REPEAT_Assigner
_cell_length_a                    15.188000
_cell_length_b                    19.686400
_cell_length_c                    7.052800
_cell_angle_alpha                 82.558800
_cell_angle_beta                  103.426000
_cell_angle_gamma                 66.734100
_cell_volume                      1825.680134
_symmetry_space_group_name_H-M    P1
_symmetry_Int_Tables_number       1
loop_
    _symmetry_equiv_pos_site_id
    _symmetry_equiv_pos_as_xyz
    1  x,y,z
loop_
    _atom_site_type_symbol
    _atom_site_label
    _atom_site_fract_x
    _atom_site_fract_y
    _atom_site_fract_z
    _atom_type_partial_charge
    Cu  Cu1  0.500000  0.500000  0.000000  0.361957
    Cu  Cu2  0.500000  0.500000  0.500000  0.312939
    N   N1   0.613300  0.499350  0.213090  0.012453
    N   N2   0.696540  0.500240  0.191080  -0.353601
    N   N3   0.500830  0.414260  0.375210  0.103610
    N   N4   0.499620  0.351280  0.460680  -0.536386
    N   N5   0.386690  0.500650  0.599310  0.179958
    N   N6   0.303460  0.499760  0.494720  -0.611207
    N   N7   0.499160  0.585740  0.812390  0.011395
    N   N8   0.500370  0.648720  0.853520  -0.398165
    N   N9   0.386690  0.500650  0.786910  0.010746
    N   N10  0.303460  0.499760  0.808920  -0.503447
    N   N11  0.499160  0.585740  0.624790  0.039599
    N   N12  0.500370  0.648720  0.539320  -0.449922
    N   N13  0.613300  0.499350  0.400690  -0.003975
    N   N14  0.696540  0.500240  0.505280  -0.243711
    N   N15  0.500830  0.414260  0.187610  0.050924
    N   N16  0.499620  0.351280  0.146480  -0.495022
    C   C1   0.746540  0.500200  0.373200  0.615873
    C   C2   0.499660  0.313440  0.317270  0.957368
    C   C3   0.253460  0.499800  0.626800  0.882084
    C   C4   0.500330  0.686560  0.682730  0.824016
    C   C5   0.499750  0.236950  0.344960  -0.604636
    C   C6   0.499790  0.200000  0.530110  -0.023258
    C   C7   0.499860  0.128160  0.555650  -0.224540
    C   C8   0.499900  0.091820  0.396830  0.186828
    C   C9   0.499860  0.128260  0.212660  0.177813
    C   C10  0.499790  0.200060  0.186470  0.540252
    N   N17  0.499980  0.018240  0.418400  -0.080694
    N   N18  0.500020  0.981760  0.581600  -0.256207
    C   C11  0.500130  0.871740  0.787340  -0.581196
    C   C12  0.500100  0.908180  0.603170  0.490978
    C   C13  0.500130  0.871840  0.444350  -0.403973
    C   C14  0.500210  0.800010  0.469900  0.467628
    C   C15  0.500250  0.763050  0.655050  -0.653370
    C   C16  0.500210  0.799940  0.813540  0.576661
    H   H1   0.499760  0.227030  0.654410  0.119577
    H   H2   0.499890  0.100720  0.698760  0.125869
    H   H3   0.500110  0.899280  0.910540  0.199076
    H   H4   0.500110  0.899280  0.301240  0.113209
    C   C17  0.906310  0.500080  0.603530  -0.236715
    S   S1   0.902120  0.500080  0.233990  0.141281
    C   C18  0.093680  0.499920  0.396470  -0.202191
    H   H5   0.112660  0.499910  0.280150  0.200188
    S   S2   0.097870  0.499920  0.766010  0.021736
    C   C19  0.847590  0.500120  0.423750  -0.288831
    C   C20  0.152400  0.499880  0.576250  -0.329385
    C   C21  -0.000000  0.500000  0.403090  0.118130
    C   C22  -0.000000  0.500000  0.596910  0.054829
    H   H6   0.450220  0.299590  0.918700  0.405759
    H   H7   0.549240  0.203770  0.905660  0.359927
    N   N19  0.499750  0.237810  0.985900  -0.921133
    H   H8   0.549430  0.027980  0.069020  0.321733
    H   H9   0.450410  0.123440  0.886060  0.334989
    N   N20  0.499900  0.089830  0.040730  -0.833483
    H   H10  0.450820  0.733370  0.019910  0.252017
    H   H11  0.549710  0.763270  0.155730  0.320964
    N   N21  0.500250  0.762190  0.014100  -0.693093
    H   H12  0.549780  0.700540  0.323450  0.303669
    H   H13  0.450750  0.796380  0.142250  0.355098
    N   N22  0.500250  0.762310  0.296560  -0.691248
    C   C23  0.875360  0.500100  0.793310  0.715605
    O   O1   0.906830  0.533400  0.928250  -0.398190
    O   O2   0.819200  0.471050  0.818820  -0.515097
    H   H14  0.960910  0.545420  0.892440  0.265937
