# Generated by REPEAT Assigner based on pymatgen
data_DB1-Zn2O8-AZO_A-irmof8_A_No393
_audit_creation_date              2022-05-24
_audit_creation_method            REPEAT_Assigner
_cell_length_a                    13.190500
_cell_length_b                    37.266500
_cell_length_c                    10.000000
_cell_angle_alpha                 90.000000
_cell_angle_beta                  90.000000
_cell_angle_gamma                 110.535000
_cell_volume                      4603.288651
_symmetry_space_group_name_H-M    P1
_symmetry_Int_Tables_number       1
loop_
    _symmetry_equiv_pos_site_id
    _symmetry_equiv_pos_as_xyz
    1  x,y,z
loop_
    _atom_site_type_symbol
    _atom_site_label
    _atom_site_fract_x
    _atom_site_fract_y
    _atom_site_fract_z
    _atom_type_partial_charge
    O   O1   0.354070  0.500350  0.635790  -0.575028
    O   O2   0.353860  0.499980  0.363980  -0.577191
    C   C1   0.302400  0.500110  0.499910  0.305030
    Zn  Zn1  0.500040  0.500110  0.665770  1.193823
    O   O3   0.555090  0.555160  0.363800  -0.535958
    O   O4   0.555290  0.555360  0.635620  -0.550652
    C   C2   0.574560  0.574740  0.499740  0.457652
    O   O5   0.646030  0.499720  0.364210  -0.579149
    O   O6   0.646100  0.499950  0.636020  -0.575615
    C   C3   0.697600  0.499860  0.500100  0.307994
    Zn  Zn2  0.499990  0.499890  0.334230  1.182813
    O   O7   0.444740  0.444840  0.636200  -0.552789
    O   O8   0.444910  0.444640  0.364380  -0.532347
    C   C4   0.425130  0.425260  0.500260  0.456346
    O   O9   0.850610  0.999800  0.266550  -0.573777
    O   O10  0.851140  0.000170  0.538350  -0.540337
    C   C5   0.799460  0.000080  0.402430  0.323799
    Zn  Zn3  0.996930  0.999910  0.236570  1.206487
    O   O11  0.942520  0.944860  0.538530  -0.642056
    O   O12  0.942310  0.944650  0.266720  -0.561531
    C   C6   0.923050  0.925280  0.402590  0.451950
    O   O13  0.143560  0.000170  0.538120  -0.538437
    O   O14  0.143170  0.999940  0.266320  -0.571546
    C   C7   0.194810  0.999980  0.402230  0.321283
    Zn  Zn4  0.997310  0.000130  0.568100  1.249592
    O   O15  0.051510  0.055180  0.266140  -0.563408
    O   O16  0.052100  0.055380  0.537950  -0.642318
    C   C8   0.070840  0.074760  0.402070  0.452338
    C   C9   0.880530  0.882510  0.402520  -0.008033
    C   C10  0.859970  0.861830  0.523640  -0.254695
    C   C11  0.820040  0.821660  0.523250  -0.121059
    C   C12  0.799850  0.801360  0.401930  0.166273
    C   C13  0.820120  0.821750  0.281370  0.157505
    C   C14  0.860040  0.861900  0.281290  0.282097
    N   N1   0.758950  0.760220  0.398290  -0.070716
    N   N2   0.738660  0.739800  0.504050  -0.254298
    C   C15  0.677480  0.678270  0.620970  -0.562874
    C   C16  0.697750  0.698660  0.500410  0.462801
    C   C17  0.677570  0.678350  0.379080  -0.391642
    C   C18  0.637640  0.638190  0.378700  0.455168
    C   C19  0.617070  0.617510  0.499810  -0.282273
    C   C20  0.637570  0.638120  0.621040  0.579353
    H   H1   0.874990  0.876930  0.618230  0.193577
    H   H2   0.804770  0.806300  0.617150  0.079090
    H   H3   0.692780  0.693660  0.714910  0.179316
    H   H4   0.692830  0.693710  0.285190  0.101201
    C   C21  0.114080  0.117520  0.402130  -0.001231
    C   C22  0.134800  0.138180  0.523300  -0.260096
    C   C23  0.175410  0.178340  0.523040  -0.117101
    C   C24  0.196140  0.198670  0.401780  0.163757
    C   C25  0.175720  0.178310  0.281150  0.158393
    C   C26  0.135130  0.138170  0.280960  0.276799
    N   N3   0.237750  0.239820  0.398260  -0.068812
    N   N4   0.258220  0.260200  0.504080  -0.258834
    C   C27  0.320240  0.321700  0.621180  -0.562038
    C   C28  0.299830  0.301350  0.500560  0.469403
    C   C29  0.320560  0.321680  0.379300  -0.394645
    C   C30  0.361170  0.361840  0.379030  0.452588
    C   C31  0.381880  0.382490  0.500210  -0.275687
    C   C32  0.360840  0.361850  0.621380  0.572199
    H   H5   0.119370  0.123050  0.617850  0.194576
    H   H6   0.190790  0.193670  0.616980  0.079153
    H   H7   0.304530  0.306300  0.715070  0.179177
    H   H8   0.305180  0.306340  0.285350  0.101313
    C   C33  0.121740  0.500120  0.597840  0.011676
    C   C34  0.159390  0.499940  0.363770  -0.386942
    C   C35  0.056420  0.499860  0.327630  0.132451
    C   C36  0.983960  0.499920  0.432340  -0.086081
    C   C37  0.878260  0.499850  0.402160  0.031362
    C   C38  0.840610  0.500030  0.636230  -0.382491
    C   C39  0.943580  0.500110  0.672370  0.118494
    C   C40  0.016040  0.500050  0.567660  -0.069474
    C   C41  0.190110  0.500060  0.499940  0.256448
    C   C42  0.809890  0.499900  0.500060  0.248810
    H   H9   0.216740  0.499890  0.286610  0.190092
    H   H10  0.783250  0.500070  0.713380  0.188493
    C   C43  0.618060  0.999340  0.304480  0.037188
    C   C44  0.656040  0.999490  0.538550  -0.364554
    C   C45  0.553310  0.999660  0.574690  0.108561
    C   C46  0.480790  0.999660  0.469990  -0.061644
    C   C47  0.375320  0.999830  0.500170  0.018591
    C   C48  0.337340  0.999680  0.266100  -0.377585
    C   C49  0.440070  0.999510  0.229960  0.131179
    C   C50  0.512590  0.999510  0.334670  -0.084240
    C   C51  0.686470  0.999340  0.402380  0.218635
    C   C52  0.306910  0.999840  0.402270  0.225077
    H   H11  0.713430  0.999490  0.615720  0.177662
    H   H12  0.279950  0.999690  0.188950  0.187257
    H   H13  0.955940  0.908330  0.135370  0.323128
    H   H14  0.821570  0.873230  0.066770  0.314876
    N   N5   0.881040  0.883020  0.149510  -0.706588
    H   H15  0.723840  0.774930  0.136940  0.342946
    H   H16  0.858030  0.809840  0.067220  0.338361
    N   N6   0.798780  0.800280  0.150270  -0.819125
    H   H17  0.641100  0.591640  0.766970  0.356575
    H   H18  0.576600  0.626830  0.835560  0.346856
    N   N7   0.616570  0.617000  0.752830  -0.854481
    H   H19  0.541800  0.591820  0.232500  0.339941
    H   H20  0.676200  0.626950  0.164110  0.328842
    N   N8   0.616700  0.617130  0.246790  -0.799122
    H   H21  0.038790  0.091890  0.134780  0.321629
    H   H22  0.173630  0.126760  0.066530  0.315561
    N   N9   0.113980  0.117080  0.149110  -0.705124
    H   H23  0.272920  0.225040  0.136990  0.343160
    H   H24  0.138490  0.190390  0.066920  0.337791
    N   N10  0.197650  0.199810  0.150120  -0.818466
    H   H25  0.357980  0.408420  0.767320  0.354963
    H   H26  0.421530  0.372970  0.836050  0.347216
    N   N11  0.381980  0.382940  0.753220  -0.852542
    H   H27  0.457910  0.408120  0.233100  0.338791
    H   H28  0.323270  0.373250  0.164360  0.329278
    N   N12  0.382680  0.382930  0.247190  -0.797230
    C   C53  0.978380  0.500240  0.820730  -0.009217
    H   H29  0.975110  0.522760  0.864350  -0.003682
    H   H30  0.051070  0.500220  0.824650  0.069410
    H   H31  0.930470  0.477840  0.864920  -0.004165
    C   C54  0.155600  0.500250  0.746570  -0.246529
    H   H32  0.152070  0.522760  0.789930  0.094019
    H   H33  0.228270  0.500220  0.751290  0.084581
    H   H34  0.107410  0.477840  0.790470  0.093499
    C   C55  0.021630  0.499720  0.179270  -0.028981
    H   H35  0.069330  0.522180  0.135180  -0.002246
    H   H36  0.948810  0.499620  0.175350  0.073147
    H   H37  0.025210  0.477260  0.135550  0.003767
    C   C56  0.844390  0.499720  0.253430  -0.279760
    H   H38  0.892390  0.522190  0.209640  0.106580
    H   H39  0.771620  0.499640  0.248720  0.094632
    H   H40  0.848230  0.477260  0.209970  0.098880
    C   C57  0.474570  0.999350  0.081600  -0.043946
    H   H41  0.426550  0.976850  0.037970  0.001626
    H   H42  0.547240  0.999300  0.077680  0.075352
    H   H43  0.471230  0.021770  0.037410  0.009412
    C   C58  0.651630  0.999180  0.155750  -0.277816
    H   H44  0.603360  0.976690  0.112390  0.106796
    H   H45  0.724290  0.999150  0.151040  0.093093
    H   H46  0.648010  0.021610  0.111860  0.098119
    C   C59  0.518830  0.999830  0.723050  0.002721
    H   H47  0.521850  0.977350  0.767150  0.001978
    H   H48  0.446270  0.999990  0.726980  0.056824
    H   H49  0.567040  0.022270  0.766780  -0.009231
    C   C60  0.341740  0.999990  0.648900  -0.245766
    H   H50  0.345050  0.977500  0.692690  0.091835
    H   H51  0.269200  0.000140  0.653610  0.075271
    H   H52  0.390210  0.022420  0.692360  0.106925
