# generated using pymatgen
data_Zn4H46C82N4O37
_symmetry_space_group_name_H-M   'P 1'
_cell_length_a   28.57780000
_cell_length_b   17.57240000
_cell_length_c   16.73770000
_cell_angle_alpha   90.04070000
_cell_angle_beta   89.87240000
_cell_angle_gamma   89.74940000
_symmetry_Int_Tables_number   1
_chemical_formula_structural   Zn4H46C82N4O37
_chemical_formula_sum   'Zn4 H46 C82 N4 O37'
_cell_volume   8405.24368208
_cell_formula_units_Z   1
loop_
 _symmetry_equiv_pos_site_id
 _symmetry_equiv_pos_as_xyz
  1  'x, y, z'
loop_
 _atom_site_type_symbol
 _atom_site_label
 _atom_site_symmetry_multiplicity
 _atom_site_fract_x
 _atom_site_fract_y
 _atom_site_fract_z
 _atom_site_occupancy
  Zn  Zn1  1  0.50000000  0.50001000  0.59904000  1
  Zn  Zn2  1  0.50001000  0.50002000  0.40096000  1
  Zn  Zn3  1  0.88511000  0.49812000  0.40089000  1
  Zn  Zn4  1  0.88510000  0.49836000  0.59896000  1
  H  H1  1  0.55253000  0.41500000  0.26939000  1
  H  H2  1  0.44750000  0.58504000  0.26990000  1
  H  H3  1  0.55249000  0.41495000  0.73008000  1
  H  H4  1  0.44750000  0.58504000  0.73062000  1
  H  H5  1  0.50018000  0.25696000  0.62619000  1
  H  H6  1  0.50005000  0.25674000  0.37372000  1
  H  H7  1  0.49988000  0.74328000  0.62630000  1
  H  H8  1  0.49980000  0.74307000  0.37383000  1
  H  H9  1  0.73424000  0.49901000  0.37798000  1
  H  H10  1  0.73397000  0.44929000  0.67924000  1
  H  H11  1  0.73411000  0.54911000  0.67876000  1
  H  H12  1  0.65054000  0.54953000  0.67917000  1
  H  H13  1  0.65041000  0.44970000  0.67867000  1
  H  H14  1  0.03482000  0.49785000  0.37359000  1
  H  H15  1  0.03443000  0.49763000  0.62607000  1
  H  H16  1  0.35068000  0.49981000  0.37385000  1
  H  H17  1  0.35028000  0.49950000  0.62632000  1
  H  H18  1  0.83274000  0.41282000  0.73052000  1
  H  H19  1  0.93745000  0.58188000  0.73004000  1
  H  H20  1  0.83277000  0.41339000  0.26982000  1
  H  H21  1  0.93744000  0.58251000  0.26932000  1
  H  H22  1  0.88349000  0.25505000  0.37390000  1
  H  H23  1  0.88362000  0.25511000  0.62638000  1
  H  H24  1  0.88477000  0.74136000  0.37368000  1
  H  H25  1  0.88485000  0.74145000  0.62615000  1
  H  H26  1  0.44136000  0.59493000  0.04769000  1
  H  H27  1  0.55865000  0.40506000  0.04711000  1
  H  H28  1  0.44138000  0.59496000  0.95291000  1
  H  H29  1  0.55863000  0.40502000  0.95230000  1
  H  H30  1  0.49992000  0.04503000  0.35904000  1
  H  H31  1  0.50007000  0.04528000  0.64097000  1
  H  H32  1  0.49990000  0.95475000  0.35906000  1
  H  H33  1  0.49999000  0.95498000  0.64100000  1
  H  H34  1  0.16458000  0.49841000  0.64090000  1
  H  H35  1  0.16501000  0.49866000  0.35896000  1
  H  H36  1  0.22009000  0.49871000  0.64094000  1
  H  H37  1  0.22054000  0.49905000  0.35900000  1
  H  H38  1  0.94356000  0.59198000  0.95226000  1
  H  H39  1  0.82664000  0.40319000  0.95280000  1
  H  H40  1  0.94354000  0.59212000  0.04704000  1
  H  H41  1  0.82666000  0.40326000  0.04760000  1
  H  H42  1  0.88415000  0.04342000  0.64101000  1
  H  H43  1  0.88400000  0.04335000  0.35907000  1
  H  H44  1  0.88434000  0.95315000  0.64097000  1
  H  H45  1  0.88425000  0.95305000  0.35903000  1
  H  H46  1  0.60640000  0.49964000  0.36115000  1
  C  C1  1  0.50017000  0.35159000  0.49993000  1
  C  C2  1  0.59127000  0.49977000  0.49987000  1
  C  C3  1  0.49980000  0.64844000  0.50008000  1
  C  C4  1  0.40873000  0.49999000  0.50014000  1
  C  C5  1  0.88522000  0.34981000  0.49997000  1
  C  C6  1  0.79383000  0.49883000  0.50006000  1
  C  C7  1  0.88503000  0.64666000  0.49988000  1
  C  C8  1  0.97637000  0.49738000  0.49979000  1
  C  C9  1  0.53017000  0.45120000  0.24030000  1
  C  C10  1  0.53026000  0.45104000  0.15617000  1
  C  C11  1  0.50001000  0.50000000  0.11369000  1
  C  C12  1  0.46976000  0.54898000  0.15647000  1
  C  C13  1  0.46985000  0.54884000  0.24060000  1
  C  C14  1  0.50001000  0.50000000  0.03572000  1
  C  C15  1  0.50001000  0.49999000  0.96428000  1
  C  C16  1  0.50000000  0.49999000  0.88631000  1
  C  C17  1  0.53024000  0.45101000  0.84353000  1
  C  C18  1  0.53015000  0.45116000  0.75940000  1
  C  C19  1  0.46985000  0.54883000  0.75971000  1
  C  C20  1  0.46976000  0.54898000  0.84384000  1
  C  C21  1  0.50012000  0.27095000  0.49995000  1
  C  C22  1  0.50014000  0.22910000  0.57245000  1
  C  C23  1  0.50009000  0.14897000  0.57269000  1
  C  C24  1  0.50003000  0.10830000  0.49999000  1
  C  C25  1  0.50001000  0.14884000  0.42727000  1
  C  C26  1  0.50006000  0.22897000  0.42746000  1
  C  C27  1  0.49999000  0.03403000  0.50001000  1
  C  C28  1  0.49995000  0.96599000  0.50003000  1
  C  C29  1  0.49991000  0.89173000  0.50004000  1
  C  C30  1  0.49992000  0.85118000  0.57275000  1
  C  C31  1  0.49988000  0.77104000  0.57255000  1
  C  C32  1  0.49983000  0.72908000  0.50006000  1
  C  C33  1  0.49983000  0.77093000  0.42756000  1
  C  C34  1  0.49987000  0.85106000  0.42734000  1
  C  C35  1  0.74364000  0.49907000  0.50001000  1
  C  C36  1  0.64146000  0.49954000  0.49991000  1
  C  C37  1  0.71795000  0.49922000  0.56309000  1
  C  C38  1  0.66715000  0.49938000  0.43684000  1
  C  C39  1  0.66695000  0.49946000  0.56304000  1
  C  C40  1  0.71816000  0.49915000  0.43689000  1
  C  C41  1  0.71672000  0.49928000  0.65283000  1
  C  C42  1  0.66789000  0.49950000  0.65278000  1
  C  C43  1  0.02596000  0.49769000  0.49983000  1
  C  C44  1  0.05184000  0.49791000  0.42735000  1
  C  C45  1  0.10111000  0.49821000  0.42717000  1
  C  C46  1  0.12597000  0.49830000  0.49990000  1
  C  C47  1  0.10089000  0.49808000  0.57259000  1
  C  C48  1  0.05161000  0.49778000  0.57234000  1
  C  C49  1  0.17163000  0.49858000  0.49993000  1
  C  C50  1  0.21347000  0.49883000  0.49996000  1
  C  C51  1  0.25914000  0.49911000  0.50000000  1
  C  C52  1  0.28422000  0.49935000  0.42732000  1
  C  C53  1  0.33349000  0.49964000  0.42757000  1
  C  C54  1  0.35915000  0.49971000  0.50009000  1
  C  C55  1  0.33326000  0.49947000  0.57256000  1
  C  C56  1  0.28399000  0.49917000  0.57273000  1
  C  C57  1  0.85503000  0.44884000  0.75962000  1
  C  C58  1  0.85494000  0.44878000  0.84375000  1
  C  C59  1  0.88510000  0.49752000  0.88624000  1
  C  C60  1  0.91525000  0.54616000  0.84347000  1
  C  C61  1  0.91516000  0.54593000  0.75934000  1
  C  C62  1  0.88510000  0.49760000  0.96421000  1
  C  C63  1  0.88510000  0.49768000  0.03564000  1
  C  C64  1  0.88510000  0.49777000  0.11361000  1
  C  C65  1  0.85496000  0.44911000  0.15639000  1
  C  C66  1  0.85505000  0.44936000  0.24052000  1
  C  C67  1  0.91516000  0.54648000  0.24023000  1
  C  C68  1  0.91525000  0.54652000  0.15610000  1
  C  C69  1  0.88352000  0.26918000  0.50015000  1
  C  C70  1  0.88359000  0.22725000  0.42763000  1
  C  C71  1  0.88378000  0.14712000  0.42738000  1
  C  C72  1  0.88392000  0.10653000  0.50007000  1
  C  C73  1  0.88386000  0.14715000  0.57280000  1
  C  C74  1  0.88366000  0.22729000  0.57262000  1
  C  C75  1  0.88410000  0.03226000  0.50003000  1
  C  C76  1  0.88427000  0.96422000  0.50000000  1
  C  C77  1  0.88445000  0.88995000  0.49997000  1
  C  C78  1  0.88452000  0.84932000  0.42725000  1
  C  C79  1  0.88472000  0.76919000  0.42743000  1
  C  C80  1  0.88484000  0.72730000  0.49991000  1
  C  C81  1  0.88476000  0.76924000  0.57242000  1
  C  C82  1  0.88457000  0.84937000  0.57267000  1
  N  N1  1  0.50001000  0.50002000  0.28445000  1
  N  N2  1  0.50000000  0.50000000  0.71555000  1
  N  N3  1  0.88509000  0.49734000  0.71548000  1
  N  N4  1  0.88511000  0.49797000  0.28437000  1
  O  O1  1  0.50034000  0.39025000  0.58111000  1
  O  O2  1  0.50011000  0.39027000  0.41872000  1
  O  O3  1  0.56747000  0.49983000  0.41864000  1
  O  O4  1  0.56750000  0.49993000  0.58104000  1
  O  O5  1  0.49975000  0.60978000  0.41888000  1
  O  O6  1  0.49981000  0.60975000  0.58128000  1
  O  O7  1  0.43253000  0.50004000  0.58136000  1
  O  O8  1  0.43251000  0.50023000  0.41896000  1
  O  O9  1  0.88497000  0.38838000  0.41879000  1
  O  O10  1  0.88520000  0.38859000  0.58118000  1
  O  O11  1  0.81763000  0.49877000  0.58128000  1
  O  O12  1  0.81760000  0.49868000  0.41888000  1
  O  O13  1  0.88515000  0.60810000  0.58107000  1
  O  O14  1  0.88509000  0.60788000  0.41867000  1
  O  O15  1  0.95257000  0.49755000  0.41857000  1
  O  O16  1  0.95260000  0.49793000  0.58097000  1
  O  O17  1  0.43688000  0.60220000  0.11314000  1
  O  O18  1  0.56314000  0.39781000  0.11252000  1
  O  O19  1  0.43690000  0.60222000  0.88750000  1
  O  O20  1  0.56311000  0.39776000  0.88685000  1
  O  O21  1  0.49995000  0.10734000  0.34824000  1
  O  O22  1  0.50011000  0.10762000  0.65174000  1
  O  O23  1  0.49986000  0.89242000  0.34829000  1
  O  O24  1  0.49996000  0.89267000  0.65179000  1
  O  O25  1  0.12624000  0.49817000  0.65165000  1
  O  O26  1  0.12671000  0.49844000  0.34815000  1
  O  O27  1  0.25839000  0.49892000  0.65175000  1
  O  O28  1  0.25888000  0.49929000  0.34826000  1
  O  O29  1  0.94803000  0.59913000  0.88681000  1
  O  O30  1  0.82216000  0.39590000  0.88739000  1
  O  O31  1  0.94801000  0.59942000  0.11245000  1
  O  O32  1  0.82219000  0.39612000  0.11306000  1
  O  O33  1  0.88400000  0.10575000  0.65182000  1
  O  O34  1  0.88384000  0.10567000  0.34832000  1
  O  O35  1  0.88450000  0.89083000  0.65172000  1
  O  O36  1  0.88440000  0.89072000  0.34823000  1
  O  O37  1  0.64508000  0.49945000  0.35496000  1
