# Generated by REPEAT Assigner based on pymatgen
data_DB1-Cu2O8N2-BDC_A-DPAC_A_No682
_audit_creation_date              2022-05-24
_audit_creation_method            REPEAT_Assigner
_cell_length_a                    28.072500
_cell_length_b                    10.700300
_cell_length_c                    9.129300
_cell_angle_alpha                 89.999200
_cell_angle_beta                  90.001000
_cell_angle_gamma                 89.888700
_cell_volume                      2742.292044
_symmetry_space_group_name_H-M    P1
_symmetry_Int_Tables_number       1
loop_
    _symmetry_equiv_pos_site_id
    _symmetry_equiv_pos_as_xyz
    1  x,y,z
loop_
    _atom_site_type_symbol
    _atom_site_label
    _atom_site_fract_x
    _atom_site_fract_y
    _atom_site_fract_z
    _atom_type_partial_charge
    Cu  Cu1  0.500000  0.499990  0.360600  0.975256
    Cu  Cu2  0.500000  0.499990  0.639390  0.806374
    O   O1   0.561940  0.499980  0.370000  -0.455691
    O   O2   0.437940  0.500370  0.370000  -0.369516
    O   O3   0.499890  0.662840  0.370000  -0.607509
    O   O4   0.499990  0.337520  0.370000  -0.561615
    O   O5   0.500100  0.337150  0.630000  -0.364702
    O   O6   0.500030  0.662470  0.629990  -0.340221
    O   O7   0.438010  0.500180  0.629990  -0.607516
    O   O8   0.562070  0.499570  0.630000  -0.401002
    C   C1   0.589340  0.499760  0.500010  0.298300
    C   C2   0.410660  0.500230  0.499990  0.498757
    C   C3   0.499970  0.734380  0.499990  0.509987
    C   C4   0.500040  0.265610  0.500000  0.452216
    Cu  Cu3  0.118840  0.499340  0.639420  1.210246
    Cu  Cu4  0.118830  0.500120  0.360630  0.669032
    O   O9   0.056900  0.499410  0.630050  -0.518221
    O   O10  0.180900  0.499690  0.630010  -0.579905
    O   O11  0.118730  0.662210  0.630640  -0.631549
    O   O12  0.119070  0.336890  0.629410  -0.580201
    O   O13  0.118950  0.337240  0.369410  -0.364016
    O   O14  0.118580  0.662570  0.370650  -0.354829
    O   O15  0.180820  0.500220  0.370020  -0.517806
    O   O16  0.056770  0.499720  0.370050  -0.370759
    C   C5   0.029500  0.499570  0.500050  0.289864
    C   C6   0.208180  0.499890  0.500000  0.491472
    C   C7   0.118550  0.734110  0.500910  0.545167
    C   C8   0.119120  0.265340  0.499140  0.471132
    N   N1   0.500000  0.499990  0.846570  -0.205950
    N   N2   0.500000  0.499990  0.153420  -0.017249
    C   C9   0.530230  0.420630  0.923810  0.541551
    C   C10  0.469770  0.579350  0.076180  -0.165659
    C   C11  0.530230  0.420640  0.076190  -0.222131
    C   C12  0.469770  0.579350  0.923810  -0.021390
    H   H1   0.448810  0.634370  0.128750  0.117978
    H   H2   0.551190  0.365620  0.128760  0.077750
    H   H3   0.448810  0.634370  0.871240  0.117927
    C   C13  0.499990  0.869100  0.500000  -0.115939
    C   C14  0.500020  0.130890  0.500000  0.098542
    C   C15  0.500070  0.934990  0.631380  0.563396
    C   C16  0.499940  0.064990  0.368620  -0.236014
    C   C17  0.500080  0.064990  0.631380  -0.362760
    C   C18  0.499920  0.935000  0.368620  -0.155243
    H   H4   0.499900  0.109850  0.277550  0.105912
    H   H5   0.500140  0.109840  0.722450  0.066519
    H   H6   0.499870  0.890150  0.277550  0.114071
    C   C19  0.979020  0.499580  0.500050  0.122323
    C   C20  0.952790  0.499410  0.632960  -0.191709
    C   C21  0.902620  0.499420  0.633360  -0.240431
    C   C22  0.877200  0.499610  0.500050  0.230728
    C   C23  0.902620  0.499770  0.366750  -0.227614
    C   C24  0.952780  0.499760  0.367140  -0.153632
    C   C25  0.830720  0.499630  0.500060  -0.102887
    C   C26  0.788120  0.499640  0.500060  -0.110202
    C   C27  0.741640  0.499660  0.500050  0.237994
    C   C28  0.716210  0.499460  0.633340  -0.239217
    C   C29  0.666050  0.499490  0.632940  -0.138214
    C   C30  0.639820  0.499720  0.500020  0.102893
    C   C31  0.666060  0.499920  0.367110  -0.188681
    C   C32  0.716220  0.499890  0.366730  -0.238504
    H   H7   0.970190  0.499280  0.731490  0.141945
    H   H8   0.885020  0.499300  0.731720  0.194874
    H   H9   0.970190  0.499880  0.268600  0.121885
    H   H10  0.648640  0.499340  0.731470  0.121922
    H   H11  0.648650  0.500080  0.268580  0.134753
    H   H12  0.733820  0.500040  0.268380  0.195421
    C   C33  0.359310  0.500140  0.500000  -0.116690
    C   C34  0.259530  0.499970  0.500000  0.144986
    C   C35  0.334190  0.500200  0.368620  0.584284
    C   C36  0.284640  0.499920  0.631380  -0.284635
    C   C37  0.284640  0.500110  0.368620  -0.407635
    C   C38  0.334200  0.500000  0.631380  -0.139997
    H   H13  0.267550  0.499820  0.722450  0.129917
    H   H14  0.267550  0.500150  0.277550  0.115401
    H   H15  0.351290  0.499970  0.722450  0.115943
    N   N3   0.118820  0.500690  0.153460  -0.176917
    N   N4   0.118810  0.501540  0.846600  -0.035912
    C   C39  0.088700  0.421570  0.075920  0.540134
    C   C40  0.148940  0.580660  0.924140  -0.232112
    C   C41  0.088690  0.421990  0.923550  -0.224497
    C   C42  0.148940  0.580240  0.076510  0.034087
    H   H16  0.169820  0.635800  0.871770  0.132911
    H   H17  0.067810  0.367140  0.870780  0.073717
    H   H18  0.169830  0.635080  0.129280  0.121021
    C   C43  0.118350  0.868830  0.501420  -0.135961
    C   C44  0.117960  0.130620  0.502400  0.085860
    C   C45  0.118180  0.935090  0.370290  0.577716
    C   C46  0.118140  0.064360  0.633540  -0.226894
    C   C47  0.117980  0.065080  0.370780  -0.363492
    C   C48  0.118330  0.934370  0.633050  -0.155573
    H   H19  0.118120  0.108970  0.724780  0.100010
    H   H20  0.117860  0.110190  0.279870  0.068879
    H   H21  0.118450  0.889270  0.723950  0.115516
    O   O17  0.558570  0.346250  0.852740  -0.803585
    Li  Li1  0.599810  0.237990  0.907560  0.858106
    O   O18  0.500130  0.874350  0.754510  -0.898322
    Li  Li2  0.500230  0.921110  0.933740  0.874488
    O   O19  0.357310  0.500330  0.245480  -0.902453
    Li  Li3  0.339480  0.500430  0.066260  0.878847
    O   O20  0.060460  0.347020  0.146730  -0.804147
    Li  Li4  0.019370  0.238950  0.091520  0.857888
    O   O21  0.118190  0.874790  0.246930  -0.905455
    Li  Li5  0.118020  0.922040  0.067880  0.875479
    C   C49  0.876550  0.499970  0.221050  0.670440
    O   O22  0.834260  0.445410  0.210470  -0.449723
    O   O23  0.895210  0.547780  0.112650  -0.518036
    H   H22  0.822730  0.425510  0.313130  0.226728
    C   C50  0.742280  0.499210  0.779050  0.672673
    O   O24  0.784640  0.444570  0.789420  -0.450197
    O   O25  0.723550  0.546710  0.887640  -0.518393
    H   H23  0.796200  0.424970  0.686680  0.227889
