# generated using pymatgen
data_Cu4H28C46N4O21
_symmetry_space_group_name_H-M   'P 1'
_cell_length_a   25.64610000
_cell_length_b   10.70030000
_cell_length_c   9.12930000
_cell_angle_alpha   89.99920000
_cell_angle_beta   89.99840000
_cell_angle_gamma   89.89310000
_symmetry_Int_Tables_number   1
_chemical_formula_structural   Cu4H28C46N4O21
_chemical_formula_sum   'Cu4 H28 C46 N4 O21'
_cell_volume   2505.26694339
_cell_formula_units_Z   1
loop_
 _symmetry_equiv_pos_site_id
 _symmetry_equiv_pos_as_xyz
  1  'x, y, z'
loop_
 _atom_site_type_symbol
 _atom_site_label
 _atom_site_symmetry_multiplicity
 _atom_site_fract_x
 _atom_site_fract_y
 _atom_site_fract_z
 _atom_site_occupancy
  Cu  Cu1  1  0.50000000  0.49999000  0.36060000  1
  Cu  Cu2  1  0.50000000  0.49999000  0.63939000  1
  Cu  Cu3  1  0.08277000  0.49927000  0.63945000  1
  Cu  Cu4  1  0.08277000  0.50015000  0.36066000  1
  H  H1  1  0.44397000  0.63436000  0.12876000  1
  H  H2  1  0.55603000  0.36563000  0.12875000  1
  H  H3  1  0.44397000  0.63436000  0.87124000  1
  H  H4  1  0.49989000  0.10985000  0.27755000  1
  H  H5  1  0.50015000  0.10984000  0.72245000  1
  H  H6  1  0.49985000  0.89015000  0.27755000  1
  H  H7  1  0.66279000  0.50010000  0.27755000  1
  H  H8  1  0.75467000  0.50005000  0.27597000  1
  H  H9  1  0.91998000  0.49927000  0.72250000  1
  H  H10  1  0.82810000  0.49931000  0.72408000  1
  H  H11  1  0.92000000  0.49997000  0.27759000  1
  H  H12  1  0.82811000  0.50002000  0.27598000  1
  H  H13  1  0.66278000  0.49939000  0.72246000  1
  H  H14  1  0.75466000  0.49935000  0.72406000  1
  H  H15  1  0.24556000  0.49978000  0.72248000  1
  H  H16  1  0.24555000  0.50011000  0.27758000  1
  H  H17  1  0.33722000  0.49994000  0.72247000  1
  H  H18  1  0.13862000  0.63600000  0.87188000  1
  H  H19  1  0.02693000  0.36739000  0.87072000  1
  H  H20  1  0.13862000  0.63519000  0.12939000  1
  H  H21  1  0.08204000  0.10886000  0.72513000  1
  H  H22  1  0.08178000  0.11025000  0.28023000  1
  H  H23  1  0.08238000  0.88916000  0.72418000  1
  H  H24  1  0.56358000  0.34754000  0.72159000  1
  H  H25  1  0.50012000  0.76246000  0.75241000  1
  H  H26  1  0.39049000  0.50038000  0.24760000  1
  H  H27  1  0.01941000  0.34802000  0.27780000  1
  H  H28  1  0.08229000  0.76297000  0.24878000  1
  C  C1  1  0.59779000  0.49978000  0.49999000  1
  C  C2  1  0.40221000  0.50021000  0.50001000  1
  C  C3  1  0.49997000  0.73438000  0.49999000  1
  C  C4  1  0.50004000  0.26561000  0.50000000  1
  C  C5  1  0.98498000  0.49959000  0.50005000  1
  C  C6  1  0.18057000  0.49983000  0.50004000  1
  C  C7  1  0.08249000  0.73409000  0.50107000  1
  C  C8  1  0.08306000  0.26532000  0.49903000  1
  C  C9  1  0.53309000  0.42064000  0.92381000  1
  C  C10  1  0.46691000  0.57935000  0.07618000  1
  C  C11  1  0.53309000  0.42064000  0.07618000  1
  C  C12  1  0.46691000  0.57935000  0.92381000  1
  C  C13  1  0.49998000  0.86910000  0.50000000  1
  C  C14  1  0.50002000  0.13089000  0.50000000  1
  C  C15  1  0.50007000  0.93499000  0.63138000  1
  C  C16  1  0.49993000  0.06499000  0.36862000  1
  C  C17  1  0.50009000  0.06499000  0.63138000  1
  C  C18  1  0.49992000  0.93500000  0.36862000  1
  C  C19  1  0.65400000  0.49975000  0.50000000  1
  C  C20  1  0.92877000  0.49961000  0.50005000  1
  C  C21  1  0.68150000  0.49994000  0.36863000  1
  C  C22  1  0.73619000  0.49992000  0.36742000  1
  C  C23  1  0.90127000  0.49942000  0.63142000  1
  C  C24  1  0.84659000  0.49944000  0.63263000  1
  C  C25  1  0.90128000  0.49984000  0.36866000  1
  C  C26  1  0.84660000  0.49986000  0.36743000  1
  C  C27  1  0.68149000  0.49953000  0.63139000  1
  C  C28  1  0.73618000  0.49950000  0.63262000  1
  C  C29  1  0.76384000  0.49970000  0.50002000  1
  C  C30  1  0.81894000  0.49967000  0.50003000  1
  C  C31  1  0.34600000  0.50011000  0.50002000  1
  C  C32  1  0.23677000  0.49993000  0.50003000  1
  C  C33  1  0.31851000  0.50016000  0.36864000  1
  C  C34  1  0.26427000  0.49988000  0.63141000  1
  C  C35  1  0.26427000  0.50007000  0.36865000  1
  C  C36  1  0.31851000  0.49997000  0.63140000  1
  C  C37  1  0.04979000  0.42173000  0.07590000  1
  C  C38  1  0.11575000  0.58085000  0.92421000  1
  C  C39  1  0.04979000  0.42221000  0.92353000  1
  C  C40  1  0.11575000  0.58037000  0.07658000  1
  C  C41  1  0.08228000  0.86881000  0.50164000  1
  C  C42  1  0.08188000  0.13060000  0.50277000  1
  C  C43  1  0.08210000  0.93512000  0.37055000  1
  C  C44  1  0.08206000  0.06429000  0.63386000  1
  C  C45  1  0.08190000  0.06511000  0.37111000  1
  C  C46  1  0.08226000  0.93430000  0.63331000  1
  N  N1  1  0.50000000  0.49999000  0.84657000  1
  N  N2  1  0.50000000  0.49999000  0.15342000  1
  N  N3  1  0.08277000  0.50081000  0.15348000  1
  N  N4  1  0.08277000  0.50178000  0.84663000  1
  O  O1  1  0.56780000  0.50000000  0.36999000  1
  O  O2  1  0.43207000  0.50036000  0.37001000  1
  O  O3  1  0.49988000  0.66284000  0.37000000  1
  O  O4  1  0.49999000  0.33752000  0.37000000  1
  O  O5  1  0.50011000  0.33715000  0.63000000  1
  O  O6  1  0.50003000  0.66247000  0.62999000  1
  O  O7  1  0.43215000  0.50017000  0.63000000  1
  O  O8  1  0.56794000  0.49959000  0.62999000  1
  O  O9  1  0.01498000  0.49937000  0.63006000  1
  O  O10  1  0.15071000  0.49959000  0.63004000  1
  O  O11  1  0.08267000  0.66214000  0.63076000  1
  O  O12  1  0.08301000  0.33682000  0.62935000  1
  O  O13  1  0.08289000  0.33727000  0.36935000  1
  O  O14  1  0.08252000  0.66260000  0.37076000  1
  O  O15  1  0.15063000  0.50023000  0.37005000  1
  O  O16  1  0.01484000  0.49978000  0.37006000  1
  O  O17  1  0.56918000  0.33412000  0.84112000  1
  O  O18  1  0.50015000  0.86444000  0.77462000  1
  O  O19  1  0.34794000  0.50032000  0.22539000  1
  O  O20  1  0.01383000  0.33498000  0.15821000  1
  O  O21  1  0.08212000  0.86502000  0.22700000  1
