data_DB1-Cu2O8-irmof14_A-irmof20_A_No383_repeat
_audit_creation_date              2024-02-20
_audit_creation_method            'Materials Studio'
_symmetry_space_group_name_H-M    'P1'
_symmetry_Int_Tables_number       1
_symmetry_cell_setting            triclinic
loop_
_symmetry_equiv_pos_as_xyz
  x,y,z
_cell_length_a                    29.7942
_cell_length_b                    40.4303
_cell_length_c                    10.0000
_cell_angle_alpha                 90.0000
_cell_angle_beta                  90.0000
_cell_angle_gamma                 42.6613
loop_
_atom_site_label
_atom_site_type_symbol
_atom_site_fract_x
_atom_site_fract_y
_atom_site_fract_z
_atom_site_U_iso_or_equiv
_atom_site_adp_type
_atom_site_occupancy
C1     C     0.40855   0.59154   0.50000   0.00000  Uiso   1.00
C2     C     0.35410   0.64601   0.50001   0.00000  Uiso   1.00
C3     C     0.18988   0.81028   0.50004   0.00000  Uiso   1.00
C4     C     0.27195   0.72814   0.43168   0.00000  Uiso   1.00
C5     C     0.27204   0.72814   0.56837   0.00000  Uiso   1.00
C6     C     0.66707   0.33292   0.61914   0.00000  Uiso   1.00
C7     C     0.71817   0.28185   0.61331   0.00000  Uiso   1.00
C8     C     0.74645   0.25362   0.72952   0.00000  Uiso   1.00
C9     C     0.66700   0.33292   0.38089   0.00000  Uiso   1.00
C10    C     0.71810   0.28185   0.38673   0.00000  Uiso   1.00
C11    C     0.59145   0.40846   0.50001   0.00000  Uiso   1.00
C12    C     0.74632   0.25361   0.27053   0.00000  Uiso   1.00
C13    C     0.87668   0.12336   0.38091   0.00000  Uiso   1.00
C14    C     0.82558   0.17443   0.38674   0.00000  Uiso   1.00
C15    C     0.79730   0.20266   0.27053   0.00000  Uiso   1.00
C16    C     0.87674   0.12336   0.61916   0.00000  Uiso   1.00
C17    C     0.82564   0.17443   0.61332   0.00000  Uiso   1.00
C18    C     0.79742   0.20267   0.72953   0.00000  Uiso   1.00
C19    C     0.41589   0.49994   0.50000   0.00000  Uiso   1.00
C20    C     0.64029   0.35965   0.50001   0.00000  Uiso   1.00
C21    C     0.74777   0.25223   0.50002   0.00000  Uiso   1.00
C22    C     0.90345   0.09663   0.50004   0.00000  Uiso   1.00
C23    C     0.79598   0.20405   0.50003   0.00000  Uiso   1.00
C24    C     0.82300   0.67756   0.39268   0.00000  Uiso   1.00
C25    C     0.72234   0.77875   0.60407   0.00000  Uiso   1.00
C26    C     0.85449   0.64602   0.49898   0.00000  Uiso   1.00
C27    C     0.69086   0.81029   0.49777   0.00000  Uiso   1.00
C28    C     0.58411   0.50007   0.50000   0.00000  Uiso   1.00
C29    C     0.77265   0.72822   0.56672   0.00000  Uiso   1.00
C30    C     0.77270   0.72809   0.43003   0.00000  Uiso   1.00
C31    C     0.16650   0.33282   0.38210   0.00000  Uiso   1.00
C32    C     0.21732   0.28176   0.38829   0.00000  Uiso   1.00
C33    C     0.24550   0.25341   0.27228   0.00000  Uiso   1.00
C34    C     0.16634   0.33305   0.62034   0.00000  Uiso   1.00
C35    C     0.21718   0.28197   0.61487   0.00000  Uiso   1.00
C36    C     0.24520   0.25384   0.73127   0.00000  Uiso   1.00
C37    C     0.37491   0.12349   0.62182   0.00000  Uiso   1.00
C38    C     0.32409   0.17455   0.61563   0.00000  Uiso   1.00
C39    C     0.29591   0.20290   0.73163   0.00000  Uiso   1.00
C40    C     0.37507   0.12326   0.38357   0.00000  Uiso   1.00
C41    C     0.32423   0.17434   0.38905   0.00000  Uiso   1.00
C42    C     0.29621   0.20247   0.27264   0.00000  Uiso   1.00
C43    C     0.13982   0.35966   0.50103   0.00000  Uiso   1.00
C44    C     0.24672   0.25225   0.50179   0.00000  Uiso   1.00
C45    C     0.40159   0.09664   0.50289   0.00000  Uiso   1.00
C46    C     0.29468   0.20406   0.50213   0.00000  Uiso   1.00
C47    C     0.19683   0.95681   0.37922   0.00000  Uiso   1.00
C48    C     0.24360   0.95701   0.38453   0.00000  Uiso   1.00
C49    C     0.26936   0.95707   0.26803   0.00000  Uiso   1.00
C50    C     0.19701   0.95693   0.61747   0.00000  Uiso   1.00
C51    C     0.24377   0.95712   0.61111   0.00000  Uiso   1.00
C52    C     0.26972   0.95729   0.72702   0.00000  Uiso   1.00
C53    C     0.38890   0.95774   0.61532   0.00000  Uiso   1.00
C54    C     0.34213   0.95754   0.61000   0.00000  Uiso   1.00
C55    C     0.31637   0.95749   0.72650   0.00000  Uiso   1.00
C56    C     0.38872   0.95763   0.37707   0.00000  Uiso   1.00
C57    C     0.34196   0.95743   0.38343   0.00000  Uiso   1.00
C58    C     0.31601   0.95727   0.26751   0.00000  Uiso   1.00
C59    C     0.17244   0.95676   0.49862   0.00000  Uiso   1.00
C60    C     0.27080   0.95718   0.49752   0.00000  Uiso   1.00
C61    C     0.41328   0.95779   0.49592   0.00000  Uiso   1.00
C62    C     0.31493   0.95737   0.49702   0.00000  Uiso   1.00
C63    C     0.89074   0.95561   0.38262   0.00000  Uiso   1.00
C64    C     0.84398   0.95541   0.38897   0.00000  Uiso   1.00
C65    C     0.81806   0.95522   0.27305   0.00000  Uiso   1.00
C66    C     0.89089   0.95576   0.62087   0.00000  Uiso   1.00
C67    C     0.84412   0.95555   0.61555   0.00000  Uiso   1.00
C68    C     0.81834   0.95551   0.73204   0.00000  Uiso   1.00
C69    C     0.69901   0.95492   0.62298   0.00000  Uiso   1.00
C70    C     0.74577   0.95512   0.61664   0.00000  Uiso   1.00
C71    C     0.77169   0.95531   0.73255   0.00000  Uiso   1.00
C72    C     0.69887   0.95478   0.38474   0.00000  Uiso   1.00
C73    C     0.74563   0.95498   0.39006   0.00000  Uiso   1.00
C74    C     0.77141   0.95502   0.27357   0.00000  Uiso   1.00
C75    C     0.91529   0.95579   0.50148   0.00000  Uiso   1.00
C76    C     0.81694   0.95536   0.50256   0.00000  Uiso   1.00
C77    C     0.67447   0.95474   0.50413   0.00000  Uiso   1.00
C78    C     0.77282   0.95517   0.50305   0.00000  Uiso   1.00
C79    C     0.90874   0.59155   0.49938   0.00000  Uiso   1.00
C80    C     0.09123   0.40848   0.50069   0.00000  Uiso   1.00
C81    C     0.08422   0.49996   0.50003   0.00000  Uiso   1.00
C82    C     0.91575   0.50008   0.50003   0.00000  Uiso   1.00
C83    C     0.13544   0.86474   0.50005   0.00000  Uiso   1.00
C84    C     0.95229   0.04782   0.50005   0.00000  Uiso   1.00
C85    C     0.95998   0.95598   0.50098   0.00000  Uiso   1.00
C86    C     0.12775   0.95657   0.49912   0.00000  Uiso   1.00
C87    C     0.63660   0.86475   0.49737   0.00000  Uiso   1.00
C88    C     0.45436   0.04783   0.49606   0.00000  Uiso   1.00
C89    C     0.62995   0.95600   0.49578   0.00000  Uiso   1.00
C90    C     0.46101   0.95658   0.49764   0.00000  Uiso   1.00
C91    C     0.65352   0.50013   0.61913   0.00000  Uiso   1.00
C92    C     0.70049   0.50012   0.61330   0.00000  Uiso   1.00
C93    C     0.72640   0.50018   0.72951   0.00000  Uiso   1.00
C94    C     0.65364   0.50001   0.38088   0.00000  Uiso   1.00
C95    C     0.70060   0.50002   0.38672   0.00000  Uiso   1.00
C96    C     0.72662   0.49996   0.27052   0.00000  Uiso   1.00
C97    C     0.84634   0.50002   0.38090   0.00000  Uiso   1.00
C98    C     0.79938   0.50002   0.38673   0.00000  Uiso   1.00
C99    C     0.77347   0.49996   0.27052   0.00000  Uiso   1.00
C100   C     0.84623   0.50013   0.61915   0.00000  Uiso   1.00
C101   C     0.79926   0.50013   0.61331   0.00000  Uiso   1.00
C102   C     0.77324   0.50018   0.72952   0.00000  Uiso   1.00
C103   C     0.62900   0.50007   0.50001   0.00000  Uiso   1.00
C104   C     0.72778   0.50007   0.50002   0.00000  Uiso   1.00
C105   C     0.87086   0.50007   0.50003   0.00000  Uiso   1.00
C106   C     0.77209   0.50007   0.50002   0.00000  Uiso   1.00
C107   C     0.34634   0.50002   0.61913   0.00000  Uiso   1.00
C108   C     0.29938   0.50002   0.61330   0.00000  Uiso   1.00
C109   C     0.27334   0.50009   0.72951   0.00000  Uiso   1.00
C110   C     0.34649   0.49987   0.38089   0.00000  Uiso   1.00
C111   C     0.29951   0.49988   0.38672   0.00000  Uiso   1.00
C112   C     0.27362   0.49981   0.27052   0.00000  Uiso   1.00
C113   C     0.15377   0.49988   0.38090   0.00000  Uiso   1.00
C114   C     0.20073   0.49988   0.38673   0.00000  Uiso   1.00
C115   C     0.22677   0.49981   0.27052   0.00000  Uiso   1.00
C116   C     0.15362   0.50003   0.61915   0.00000  Uiso   1.00
C117   C     0.20059   0.50002   0.61331   0.00000  Uiso   1.00
C118   C     0.22649   0.50009   0.72952   0.00000  Uiso   1.00
C119   C     0.37099   0.49994   0.50001   0.00000  Uiso   1.00
C120   C     0.27221   0.49995   0.50002   0.00000  Uiso   1.00
C121   C     0.12911   0.49996   0.50003   0.00000  Uiso   1.00
C122   C     0.22790   0.49995   0.50002   0.00000  Uiso   1.00
C123   C     0.32253   0.67765   0.60609   0.00000  Uiso   1.00
C124   C     0.22145   0.77863   0.39397   0.00000  Uiso   1.00
Cu1    Cu    0.50000   0.50000   0.37274   0.00000  Uiso   1.00
Cu2    Cu    0.50000   0.50000   0.62726   0.00000  Uiso   1.00
Cu3    Cu    0.99987   0.50014   0.62729   0.00000  Uiso   1.00
Cu4    Cu    0.00011   0.49990   0.37278   0.00000  Uiso   1.00
Cu5    Cu    0.04402   0.95628   0.62731   0.00000  Uiso   1.00
Cu6    Cu    0.04371   0.95628   0.37279   0.00000  Uiso   1.00
Cu7    Cu    0.54544   0.95617   0.36945   0.00000  Uiso   1.00
Cu8    Cu    0.54552   0.95641   0.62397   0.00000  Uiso   1.00
H1     H     0.65114   0.34886   0.70131   0.00000  Uiso   1.00
H2     H     0.65103   0.34886   0.29872   0.00000  Uiso   1.00
H3     H     0.89260   0.10742   0.29875   0.00000  Uiso   1.00
H4     H     0.89271   0.10743   0.70134   0.00000  Uiso   1.00
H5     H     0.15069   0.34868   0.29981   0.00000  Uiso   1.00
H6     H     0.15043   0.34906   0.70240   0.00000  Uiso   1.00
H7     H     0.39072   0.10763   0.70410   0.00000  Uiso   1.00
H8     H     0.39098   0.10725   0.30152   0.00000  Uiso   1.00
H9     H     0.18217   0.95671   0.29721   0.00000  Uiso   1.00
H10    H     0.18248   0.95690   0.69980   0.00000  Uiso   1.00
H11    H     0.40356   0.95784   0.69732   0.00000  Uiso   1.00
H12    H     0.40325   0.95765   0.29473   0.00000  Uiso   1.00
H13    H     0.90528   0.95562   0.30029   0.00000  Uiso   1.00
H14    H     0.90553   0.95587   0.70288   0.00000  Uiso   1.00
H15    H     0.68447   0.95491   0.70532   0.00000  Uiso   1.00
H16    H     0.68422   0.95466   0.30273   0.00000  Uiso   1.00
H17    H     0.83394   0.50024   0.84583   0.00000  Uiso   1.00
H18    H     0.66559   0.50023   0.84582   0.00000  Uiso   1.00
H19    H     0.83427   0.49991   0.15422   0.00000  Uiso   1.00
H20    H     0.66593   0.49990   0.15420   0.00000  Uiso   1.00
H21    H     0.16566   0.50017   0.84583   0.00000  Uiso   1.00
H22    H     0.33402   0.50016   0.84582   0.00000  Uiso   1.00
H23    H     0.16608   0.49974   0.15422   0.00000  Uiso   1.00
H24    H     0.33444   0.49973   0.15420   0.00000  Uiso   1.00
H25    H     0.86355   0.13661   0.84584   0.00000  Uiso   1.00
H26    H     0.68038   0.31968   0.84582   0.00000  Uiso   1.00
H27    H     0.86336   0.13660   0.15423   0.00000  Uiso   1.00
H28    H     0.68019   0.31967   0.15421   0.00000  Uiso   1.00
H29    H     0.36203   0.13629   0.15680   0.00000  Uiso   1.00
H30    H     0.17982   0.31937   0.15551   0.00000  Uiso   1.00
H31    H     0.36159   0.13694   0.84841   0.00000  Uiso   1.00
H32    H     0.17938   0.32002   0.84712   0.00000  Uiso   1.00
H33    H     0.37642   0.95747   0.15052   0.00000  Uiso   1.00
H34    H     0.20878   0.95675   0.15240   0.00000  Uiso   1.00
H35    H     0.37695   0.95780   0.84213   0.00000  Uiso   1.00
H36    H     0.20931   0.95709   0.84401   0.00000  Uiso   1.00
H37    H     0.71085   0.95469   0.15792   0.00000  Uiso   1.00
H38    H     0.87848   0.95541   0.15608   0.00000  Uiso   1.00
H39    H     0.71128   0.95512   0.84953   0.00000  Uiso   1.00
H40    H     0.87890   0.95584   0.84768   0.00000  Uiso   1.00
H41    H     0.63883   0.50016   0.70130   0.00000  Uiso   1.00
H42    H     0.63902   0.49997   0.29871   0.00000  Uiso   1.00
H43    H     0.86104   0.49998   0.29873   0.00000  Uiso   1.00
H44    H     0.86084   0.50017   0.70132   0.00000  Uiso   1.00
H45    H     0.36095   0.50007   0.70130   0.00000  Uiso   1.00
H46    H     0.36119   0.49982   0.29871   0.00000  Uiso   1.00
H47    H     0.13916   0.49983   0.29873   0.00000  Uiso   1.00
H48    H     0.13892   0.50008   0.70132   0.00000  Uiso   1.00
Li1    Li    0.30625   0.69411   0.87882   0.00000  Uiso   1.00
Li2    Li    0.23773   0.76217   0.12124   0.00000  Uiso   1.00
Li3    Li    0.80670   0.69376   0.11983   0.00000  Uiso   1.00
Li4    Li    0.73865   0.76255   0.87692   0.00000  Uiso   1.00
O1     O     0.93667   0.56359   0.61826   0.00000  Uiso   1.00
O2     O     0.06334   0.43654   0.61917   0.00000  Uiso   1.00
O3     O     0.05849   0.49999   0.61872   0.00000  Uiso   1.00
O4     O     0.94152   0.50013   0.61872   0.00000  Uiso   1.00
O5     O     0.79711   0.50025   0.86263   0.00000  Uiso   1.00
O6     O     0.70240   0.50024   0.86262   0.00000  Uiso   1.00
O7     O     0.79746   0.49990   0.13742   0.00000  Uiso   1.00
O8     O     0.70276   0.49990   0.13741   0.00000  Uiso   1.00
O9     O     0.43654   0.56346   0.38131   0.00000  Uiso   1.00
O10    O     0.94150   0.50002   0.38136   0.00000  Uiso   1.00
O11    O     0.20248   0.50018   0.86263   0.00000  Uiso   1.00
O12    O     0.29719   0.50017   0.86262   0.00000  Uiso   1.00
O13    O     0.20292   0.49973   0.13742   0.00000  Uiso   1.00
O14    O     0.29763   0.49972   0.13741   0.00000  Uiso   1.00
O15    O     0.82349   0.17665   0.86264   0.00000  Uiso   1.00
O16    O     0.05844   0.49992   0.38135   0.00000  Uiso   1.00
O17    O     0.72045   0.27964   0.86263   0.00000  Uiso   1.00
O18    O     0.82329   0.17664   0.13743   0.00000  Uiso   1.00
O19    O     0.72025   0.27963   0.13742   0.00000  Uiso   1.00
O20    O     0.32219   0.17632   0.13972   0.00000  Uiso   1.00
O21    O     0.21969   0.27931   0.13899   0.00000  Uiso   1.00
O22    O     0.06342   0.43639   0.38181   0.00000  Uiso   1.00
O23    O     0.32172   0.17700   0.86493   0.00000  Uiso   1.00
O24    O     0.21922   0.27999   0.86420   0.00000  Uiso   1.00
O25    O     0.33973   0.95730   0.13413   0.00000  Uiso   1.00
O26    O     0.24543   0.95690   0.13519   0.00000  Uiso   1.00
O27    O     0.34030   0.95765   0.85934   0.00000  Uiso   1.00
O28    O     0.93662   0.56349   0.38091   0.00000  Uiso   1.00
O29    O     0.24599   0.95725   0.86040   0.00000  Uiso   1.00
O30    O     0.74751   0.95484   0.14072   0.00000  Uiso   1.00
O31    O     0.84180   0.95525   0.13968   0.00000  Uiso   1.00
O32    O     0.74795   0.95529   0.86593   0.00000  Uiso   1.00
O33    O     0.84225   0.95570   0.86489   0.00000  Uiso   1.00
O34    O     0.33687   0.66338   0.72986   0.00000  Uiso   1.00
O35    O     0.20711   0.79290   0.27019   0.00000  Uiso   1.00
O36    O     0.83726   0.66317   0.26900   0.00000  Uiso   1.00
O37    O     0.70809   0.79313   0.72774   0.00000  Uiso   1.00
O38    O     0.56345   0.43641   0.38132   0.00000  Uiso   1.00
O39    O     0.10744   0.89282   0.61874   0.00000  Uiso   1.00
O40    O     0.98032   0.01987   0.61873   0.00000  Uiso   1.00
O41    O     0.98564   0.95617   0.61938   0.00000  Uiso   1.00
O42    O     0.10212   0.95652   0.61809   0.00000  Uiso   1.00
O43    O     0.10207   0.95641   0.38073   0.00000  Uiso   1.00
O44    O     0.98562   0.95602   0.38202   0.00000  Uiso   1.00
O45    O     0.98017   0.01979   0.38137   0.00000  Uiso   1.00
O46    O     0.10742   0.89269   0.38138   0.00000  Uiso   1.00
O47    O     0.44165   0.49987   0.38132   0.00000  Uiso   1.00
O48    O     0.60867   0.89271   0.37848   0.00000  Uiso   1.00
O49    O     0.48222   0.01977   0.37758   0.00000  Uiso   1.00
O50    O     0.60404   0.95607   0.37738   0.00000  Uiso   1.00
O51    O     0.48685   0.95642   0.37867   0.00000  Uiso   1.00
O52    O     0.48690   0.95653   0.61603   0.00000  Uiso   1.00
O53    O     0.60412   0.95615   0.61474   0.00000  Uiso   1.00
O54    O     0.55835   0.50001   0.38132   0.00000  Uiso   1.00
O55    O     0.48230   0.01992   0.61493   0.00000  Uiso   1.00
O56    O     0.60873   0.89281   0.61584   0.00000  Uiso   1.00
O57    O     0.55836   0.50012   0.61868   0.00000  Uiso   1.00
O58    O     0.44164   0.50001   0.61868   0.00000  Uiso   1.00
O59    O     0.56345   0.43649   0.61868   0.00000  Uiso   1.00
O60    O     0.43656   0.56360   0.61867   0.00000  Uiso   1.00
S1     S     0.82516   0.67556   0.65184   0.00000  Uiso   1.00
S2     S     0.72018   0.78075   0.34491   0.00000  Uiso   1.00
S3     S     0.32463   0.67540   0.34694   0.00000  Uiso   1.00
S4     S     0.21936   0.78089   0.65311   0.00000  Uiso   1.00
