# Generated by REPEAT Assigner based on pymatgen
data_DB1-MIL47V-ADC_B-fum_B_No53
_audit_creation_date              2022-05-24
_audit_creation_method            REPEAT_Assigner
_cell_length_a                    17.386800
_cell_length_b                    12.357500
_cell_length_c                    6.818000
_cell_angle_alpha                 88.315800
_cell_angle_beta                  83.558300
_cell_angle_gamma                 134.913000
_cell_volume                      1018.510997
_symmetry_space_group_name_H-M    P1
_symmetry_Int_Tables_number       1
loop_
    _symmetry_equiv_pos_site_id
    _symmetry_equiv_pos_as_xyz
    1  x,y,z
loop_
    _atom_site_type_symbol
    _atom_site_label
    _atom_site_fract_x
    _atom_site_fract_y
    _atom_site_fract_z
    _atom_type_partial_charge
    O  O1   0.611760  0.510700  0.040970  -0.425287
    O  O2   0.390510  0.287330  0.116170  -0.500704
    V  V1   0.499880  0.510380  0.015320  1.212368
    O  O3   0.391260  0.275730  0.446290  -0.381024
    O  O4   0.388330  0.486000  0.606200  -0.522599
    C  C1   0.357940  0.215120  0.292430  0.620291
    O  O5   0.608770  0.720840  0.860350  -0.524475
    C  C2   0.642010  0.781290  0.680990  0.645576
    O  O6   0.388810  0.498830  0.935100  -0.418583
    C  C3   0.354900  0.491510  0.778570  0.678747
    O  O7   0.611290  0.497870  0.371510  -0.553427
    O  O8   0.609520  0.709250  0.531030  -0.413870
    C  C4   0.645130  0.505060  0.194820  0.678089
    V  V2   0.500150  0.486200  0.516530  1.195264
    O  O9   0.500740  0.433120  0.744330  -0.428591
    O  O10  0.499290  0.563460  0.237800  -0.417579
    O  O11  0.895580  0.511090  0.103830  -0.445519
    O  O12  0.116640  0.733820  0.045070  -0.401158
    V  V3   0.008920  0.516390  0.001650  1.056816
    O  O13  0.108320  0.719600  0.378190  -0.459933
    O  O14  0.107800  0.497550  0.521060  -0.362694
    C  C5   0.145370  0.792930  0.205380  0.581440
    O  O15  0.880030  0.237710  0.909340  -0.463253
    C  C6   0.850680  0.190550  0.747270  0.783751
    O  O16  0.099800  0.459090  0.850920  -0.342579
    C  C7   0.137550  0.479500  0.671010  0.488858
    O  O17  0.888490  0.498100  0.436620  -0.332939
    O  O18  0.886800  0.274950  0.579800  -0.568870
    C  C8   0.858430  0.503820  0.281640  0.571884
    V  V4   0.997160  0.501380  0.507310  0.998855
    O  O19  0.991300  0.536520  0.740610  -0.342684
    O  O20  0.004470  0.446120  0.220820  -0.322027
    C  C9   0.772180  0.501720  0.313650  0.048604
    C  C10  0.731380  0.507160  0.162810  -0.024902
    C  C11  0.223900  0.481710  0.648030  0.115303
    C  C12  0.268550  0.489300  0.801550  -0.066001
    C  C13  0.229760  0.963160  0.173990  0.045804
    C  C14  0.273550  0.044890  0.323810  -0.003837
    C  C15  0.766300  0.038230  0.786730  -0.061772
    C  C16  0.726470  0.951430  0.640540  0.034214
    O  O21  0.729720  0.493080  0.525340  -0.485503
    H  H1   0.665540  0.492430  0.525690  0.377059
    O  O22  0.773830  0.515800  0.951120  -0.433555
    H  H2   0.838010  0.516450  0.950770  0.312167
    O  O23  0.261920  0.475080  0.442650  -0.461259
    H  H3   0.326710  0.477650  0.448780  0.326222
    O  O24  0.230530  0.495930  0.006940  -0.398440
    H  H4   0.165740  0.493360  0.000800  0.242669
    O  O25  0.266740  0.045530  0.964160  -0.451737
    H  H5   0.330090  0.172360  0.964090  0.331635
    O  O26  0.236570  0.962520  0.533640  -0.449863
    H  H6   0.173230  0.835690  0.533720  0.317811
    O  O27  0.724560  0.961930  0.001830  -0.434091
    H  H7   0.661730  0.834430  0.008560  0.341629
    O  O28  0.768210  0.027740  0.425440  -0.457329
    H  H8   0.831040  0.155240  0.418710  0.351030
