# generated using pymatgen
data_CrH7C16N2O9
_symmetry_space_group_name_H-M   'P 1'
_cell_length_a   24.23050000
_cell_length_b   35.53780000
_cell_length_c   6.81200000
_cell_angle_alpha   89.99650000
_cell_angle_beta   89.99630000
_cell_angle_gamma   47.00720000
_symmetry_Int_Tables_number   1
_chemical_formula_structural   CrH7C16N2O9
_chemical_formula_sum   'Cr4 H28 C64 N8 O36'
_cell_volume   4290.48020517
_cell_formula_units_Z   4
loop_
 _symmetry_equiv_pos_site_id
 _symmetry_equiv_pos_as_xyz
  1  'x, y, z'
loop_
 _atom_site_type_symbol
 _atom_site_label
 _atom_site_symmetry_multiplicity
 _atom_site_fract_x
 _atom_site_fract_y
 _atom_site_fract_z
 _atom_site_occupancy
  Cr  Cr1  1  0.49999000  0.50001000  0.00000000  1
  Cr  Cr2  1  0.49999000  0.50001000  0.50000000  1
  Cr  Cr3  1  0.49998000  0.00002000  0.00000000  1
  Cr  Cr4  1  0.49989000  0.00005000  0.50000000  1
  H  H1  1  0.42644000  0.49996000  0.25002000  1
  H  H2  1  0.57361000  0.50001000  0.74998000  1
  H  H3  1  0.57349000  0.00006000  0.25009000  1
  H  H4  1  0.42620000  0.00008000  0.74991000  1
  H  H5  1  0.49603000  0.87884000  0.93979000  1
  H  H6  1  0.49811000  0.81060000  0.93948000  1
  H  H7  1  0.49596000  0.87886000  0.56014000  1
  H  H8  1  0.50387000  0.62122000  0.93978000  1
  H  H9  1  0.50387000  0.62122000  0.56014000  1
  H  H10  1  0.50178000  0.68946000  0.56041000  1
  H  H11  1  0.50383000  0.12123000  0.06021000  1
  H  H12  1  0.50177000  0.18945000  0.06052000  1
  H  H13  1  0.50375000  0.12127000  0.43986000  1
  H  H14  1  0.49605000  0.37882000  0.06022000  1
  H  H15  1  0.49606000  0.37881000  0.43986000  1
  H  H16  1  0.49810000  0.31059000  0.43959000  1
  H  H17  1  0.74622000  0.87880000  0.43996000  1
  H  H18  1  0.88063000  0.81057000  0.43962000  1
  H  H19  1  0.74624000  0.87876000  0.06032000  1
  H  H20  1  0.25368000  0.62118000  0.43984000  1
  H  H21  1  0.25369000  0.62118000  0.06019000  1
  H  H22  1  0.11927000  0.68941000  0.06050000  1
  H  H23  1  0.25385000  0.12125000  0.56004000  1
  H  H24  1  0.11943000  0.18947000  0.56038000  1
  H  H25  1  0.25382000  0.12123000  0.93968000  1
  H  H26  1  0.74637000  0.37879000  0.56016000  1
  H  H27  1  0.74637000  0.37879000  0.93981000  1
  H  H28  1  0.88078000  0.31057000  0.93950000  1
  C  C1  1  0.50533000  0.57370000  0.24997000  1
  C  C2  1  0.65278000  0.42630000  0.24999000  1
  C  C3  1  0.34728000  0.57367000  0.75001000  1
  C  C4  1  0.49464000  0.42631000  0.75003000  1
  C  C5  1  0.49455000  0.92636000  0.24998000  1
  C  C6  1  0.34714000  0.07375000  0.24983000  1
  C  C7  1  0.65255000  0.92638000  0.75017000  1
  C  C8  1  0.50522000  0.07374000  0.75002000  1
  C  C9  1  0.49578000  0.88592000  0.24997000  1
  C  C10  1  0.49644000  0.86489000  0.07184000  1
  C  C11  1  0.49767000  0.82470000  0.07130000  1
  C  C12  1  0.49826000  0.80435000  0.24995000  1
  C  C13  1  0.49762000  0.82472000  0.42861000  1
  C  C14  1  0.49640000  0.86491000  0.42809000  1
  C  C15  1  0.49940000  0.76710000  0.24994000  1
  C  C16  1  0.50045000  0.73297000  0.24992000  1
  C  C17  1  0.50159000  0.69573000  0.24994000  1
  C  C18  1  0.50221000  0.67536000  0.07129000  1
  C  C19  1  0.50344000  0.63517000  0.07183000  1
  C  C20  1  0.50409000  0.61415000  0.24996000  1
  C  C21  1  0.50344000  0.63516000  0.42808000  1
  C  C22  1  0.50221000  0.67536000  0.42860000  1
  C  C23  1  0.50400000  0.11418000  0.75003000  1
  C  C24  1  0.50339000  0.13518000  0.92816000  1
  C  C25  1  0.50218000  0.17536000  0.92870000  1
  C  C26  1  0.50155000  0.19574000  0.75005000  1
  C  C27  1  0.50214000  0.17539000  0.57139000  1
  C  C28  1  0.50335000  0.13521000  0.57191000  1
  C  C29  1  0.50043000  0.23298000  0.75006000  1
  C  C30  1  0.49940000  0.26709000  0.75007000  1
  C  C31  1  0.49829000  0.30433000  0.75006000  1
  C  C32  1  0.49767000  0.32469000  0.92871000  1
  C  C33  1  0.49647000  0.36487000  0.92817000  1
  C  C34  1  0.49584000  0.38588000  0.75004000  1
  C  C35  1  0.49647000  0.36487000  0.57192000  1
  C  C36  1  0.49768000  0.32469000  0.57140000  1
  C  C37  1  0.73230000  0.88585000  0.75015000  1
  C  C38  1  0.77370000  0.86484000  0.57201000  1
  C  C39  1  0.85286000  0.82466000  0.57145000  1
  C  C40  1  0.89298000  0.80428000  0.75009000  1
  C  C41  1  0.85287000  0.82463000  0.92876000  1
  C  C42  1  0.77371000  0.86482000  0.92826000  1
  C  C43  1  0.96635000  0.76704000  0.75006000  1
  C  C44  1  0.03357000  0.73291000  0.75003000  1
  C  C45  1  0.10693000  0.69567000  0.75003000  1
  C  C46  1  0.14704000  0.67531000  0.57138000  1
  C  C47  1  0.22621000  0.63512000  0.57189000  1
  C  C48  1  0.26761000  0.61411000  0.75002000  1
  C  C49  1  0.22621000  0.63512000  0.92814000  1
  C  C50  1  0.14705000  0.67531000  0.92868000  1
  C  C51  1  0.26776000  0.11417000  0.24985000  1
  C  C52  1  0.22637000  0.13519000  0.42799000  1
  C  C53  1  0.14720000  0.17537000  0.42855000  1
  C  C54  1  0.10708000  0.19572000  0.24991000  1
  C  C55  1  0.14718000  0.17535000  0.07124000  1
  C  C56  1  0.22635000  0.13518000  0.07174000  1
  C  C57  1  0.03371000  0.23295000  0.24994000  1
  C  C58  1  0.96649000  0.26707000  0.24997000  1
  C  C59  1  0.89312000  0.30431000  0.24997000  1
  C  C60  1  0.85301000  0.32467000  0.42862000  1
  C  C61  1  0.77384000  0.36485000  0.42810000  1
  C  C62  1  0.73244000  0.38586000  0.24998000  1
  C  C63  1  0.77384000  0.36485000  0.07186000  1
  C  C64  1  0.85301000  0.32467000  0.07132000  1
  N  N1  1  0.49823000  0.80392000  0.62304000  1
  N  N2  1  0.50156000  0.69616000  0.87685000  1
  N  N3  1  0.50149000  0.19620000  0.37696000  1
  N  N4  1  0.49829000  0.30390000  0.12315000  1
  N  N5  1  0.89385000  0.80382000  0.12318000  1
  N  N6  1  0.10607000  0.69610000  0.37695000  1
  N  N7  1  0.10620000  0.19614000  0.87682000  1
  N  N8  1  0.89398000  0.30387000  0.62305000  1
  O  O1  1  0.60475000  0.45068000  0.09394000  1
  O  O2  1  0.50609000  0.54931000  0.09393000  1
  O  O3  1  0.50609000  0.54931000  0.40603000  1
  O  O4  1  0.39530000  0.54930000  0.59396000  1
  O  O5  1  0.49391000  0.45068000  0.90607000  1
  O  O6  1  0.49391000  0.45068000  0.59397000  1
  O  O7  1  0.39530000  0.54930000  0.90605000  1
  O  O8  1  0.60475000  0.45068000  0.40604000  1
  O  O9  1  0.46557000  0.50000000  0.25001000  1
  O  O10  1  0.53445000  0.50001000  0.74999000  1
  O  O11  1  0.39519000  0.04936000  0.09383000  1
  O  O12  1  0.49384000  0.95073000  0.09393000  1
  O  O13  1  0.49378000  0.95075000  0.40603000  1
  O  O14  1  0.60456000  0.95075000  0.59407000  1
  O  O15  1  0.50591000  0.04938000  0.90607000  1
  O  O16  1  0.50597000  0.04936000  0.59397000  1
  O  O17  1  0.60450000  0.95077000  0.90617000  1
  O  O18  1  0.39514000  0.04938000  0.40593000  1
  O  O19  1  0.53436000  0.00003000  0.25004000  1
  O  O20  1  0.46537000  0.00007000  0.74996000  1
  O  O21  1  0.54858000  0.74779000  0.65168000  1
  O  O22  1  0.44848000  0.83975000  0.78421000  1
  O  O23  1  0.54986000  0.70719000  0.84822000  1
  O  O24  1  0.45264000  0.70545000  0.71566000  1
  O  O25  1  0.54980000  0.20721000  0.34831000  1
  O  O26  1  0.45254000  0.20550000  0.21580000  1
  O  O27  1  0.54862000  0.24777000  0.15177000  1
  O  O28  1  0.44856000  0.33973000  0.28434000  1
  O  O29  1  0.96420000  0.79279000  0.15180000  1
  O  O30  1  0.86350000  0.79452000  0.28436000  1
  O  O31  1  0.04414000  0.75223000  0.34832000  1
  O  O32  1  0.12801000  0.66027000  0.21575000  1
  O  O33  1  0.04426000  0.25227000  0.84818000  1
  O  O34  1  0.12814000  0.16030000  0.71566000  1
  O  O35  1  0.96432000  0.29286000  0.65166000  1
  O  O36  1  0.86364000  0.29457000  0.78426000  1
