# Generated by REPEAT Assigner based on pymatgen
data_DB1-Cu2N8-DPAC_B-irmof20_B_No30
_audit_creation_date              2022-05-24
_audit_creation_method            REPEAT_Assigner
_cell_length_a                    15.188000
_cell_length_b                    19.958100
_cell_length_c                    7.052800
_cell_angle_alpha                 79.820500
_cell_angle_beta                  103.426000
_cell_angle_gamma                 67.615000
_cell_volume                      1837.286034
_symmetry_space_group_name_H-M    P1
_symmetry_Int_Tables_number       1
loop_
    _symmetry_equiv_pos_site_id
    _symmetry_equiv_pos_as_xyz
    1  x,y,z
loop_
    _atom_site_type_symbol
    _atom_site_label
    _atom_site_fract_x
    _atom_site_fract_y
    _atom_site_fract_z
    _atom_type_partial_charge
    Cu  Cu1  0.500000  0.500000  0.000000  0.370866
    Cu  Cu2  0.500000  0.500000  0.500000  0.325540
    N   N1   0.613300  0.499350  0.213180  -0.006742
    N   N2   0.696540  0.500240  0.191050  -0.471284
    N   N3   0.500820  0.414800  0.386820  0.081981
    N   N4   0.499610  0.352220  0.480810  -0.492406
    N   N5   0.386700  0.500650  0.599220  0.127647
    N   N6   0.303460  0.499760  0.494750  -0.562521
    N   N7   0.499170  0.585200  0.800780  0.100064
    N   N8   0.500390  0.647780  0.833390  -0.495840
    N   N9   0.386700  0.500650  0.786820  -0.006590
    N   N10  0.303460  0.499760  0.808950  -0.470979
    N   N11  0.499170  0.585200  0.613180  0.080803
    N   N12  0.500390  0.647780  0.519190  -0.487167
    N   N13  0.613300  0.499350  0.400780  0.128062
    N   N14  0.696540  0.500240  0.505250  -0.560452
    N   N15  0.500820  0.414800  0.199220  0.099516
    N   N16  0.499610  0.352220  0.166610  -0.501795
    C   C1   0.746540  0.500200  0.373170  0.899234
    C   C2   0.499640  0.314620  0.342540  0.794337
    C   C3   0.253460  0.499800  0.626830  0.923171
    C   C4   0.500350  0.685380  0.657470  0.787512
    C   C5   0.499740  0.242450  0.378650  -0.201206
    C   C6   0.499750  0.204960  0.225360  -0.048379
    C   C7   0.499840  0.133250  0.260730  -0.089792
    C   C8   0.499910  0.096900  0.451490  0.187191
    C   C9   0.499900  0.133220  0.605880  -0.076293
    C   C10  0.499810  0.204930  0.569490  -0.094053
    C   C11  0.499990  0.030440  0.484740  -0.092097
    C   C12  0.500060  0.969550  0.515210  -0.164969
    C   C13  0.500130  0.903090  0.548480  0.228526
    C   C14  0.500180  0.866750  0.394120  -0.125531
    C   C15  0.500250  0.795040  0.430530  -0.072654
    C   C16  0.500290  0.757540  0.621340  -0.215521
    C   C17  0.500250  0.795040  0.774620  -0.039416
    C   C18  0.500170  0.866750  0.739230  -0.106074
    H   H1   0.499700  0.229860  0.085340  0.088936
    H   H2   0.499850  0.108100  0.145990  0.315870
    H   H3   0.499800  0.229810  0.684590  0.119592
    H   H4   0.500280  0.770160  0.315450  0.116661
    H   H5   0.500270  0.770160  0.914610  0.089773
    H   H6   0.500140  0.891910  0.853950  0.354804
    C   C19  0.906320  0.500080  0.603520  -0.212154
    H   H7   0.887340  0.500090  0.719840  0.198923
    S   S1   0.902120  0.500080  0.233980  0.035637
    C   C20  0.093680  0.499930  0.396490  -0.189505
    H   H8   0.112660  0.499910  0.280160  0.188704
    S   S2   0.097870  0.499920  0.766020  0.047920
    C   C21  0.847590  0.500120  0.423740  -0.385642
    C   C22  0.152400  0.499880  0.576260  -0.403484
    C   C23  -0.000000  0.500000  0.403090  0.131956
    C   C24  -0.000000  0.500000  0.596910  0.131287
    S   S3   0.499990  0.090360  0.844120  0.746776
    O   O1   0.615330  0.052820  0.021420  -0.381947
    O   O2   0.466490  0.023930  0.842610  -0.340532
    H   H9   0.599050  0.066200  0.140160  0.196156
    O   O3   0.427990  0.149810  0.929140  -0.413342
    S   S4   0.500140  0.909590  0.155910  0.838585
    O   O4   0.615470  0.870810  0.132060  -0.397330
    O   O5   0.466470  0.998240  0.112720  -0.355170
    H   H10  0.599190  0.868180  0.991670  0.195252
    O   O6   0.428200  0.897760  0.975150  -0.470413
