# generated using pymatgen
data_CuC8S2(NO4)2
_symmetry_space_group_name_H-M   'P 1'
_cell_length_a   25.00220000
_cell_length_b   17.66860000
_cell_length_c   10.00000000
_cell_angle_alpha   90.00000000
_cell_angle_beta   90.00000000
_cell_angle_gamma   134.96700000
_symmetry_Int_Tables_number   1
_chemical_formula_structural   CuC8S2(NO4)2
_chemical_formula_sum   'Cu4 C32 S8 N8 O32'
_cell_volume   3125.47016490
_cell_formula_units_Z   4
loop_
 _symmetry_equiv_pos_site_id
 _symmetry_equiv_pos_as_xyz
  1  'x, y, z'
loop_
 _atom_site_type_symbol
 _atom_site_label
 _atom_site_symmetry_multiplicity
 _atom_site_fract_x
 _atom_site_fract_y
 _atom_site_fract_z
 _atom_site_occupancy
  Cu  Cu1  1  0.49998000  0.49995000  0.62726000  1
  Cu  Cu2  1  0.50002000  0.50004000  0.37274000  1
  Cu  Cu3  1  0.99988000  0.49976000  0.37271000  1
  Cu  Cu4  1  0.00010000  0.50019000  0.62723000  1
  C  C1  1  0.39968000  0.29937000  0.49987000  1
  C  C2  1  0.60032000  0.70062000  0.50012000  1
  C  C3  1  0.39976000  0.50013000  0.50000000  1
  C  C4  1  0.60024000  0.49985000  0.50000000  1
  C  C5  1  0.89992000  0.29935000  0.50050000  1
  C  C6  1  0.10007000  0.70060000  0.49945000  1
  C  C7  1  0.10037000  0.50010000  0.49998000  1
  C  C8  1  0.89961000  0.49984000  0.49997000  1
  C  C9  1  0.69457000  0.49978000  0.39392000  1
  C  C10  1  0.80529000  0.49991000  0.60605000  1
  C  C11  1  0.65992000  0.49985000  0.49999000  1
  C  C12  1  0.83993000  0.49984000  0.49998000  1
  C  C13  1  0.74995000  0.49989000  0.56833000  1
  C  C14  1  0.74990000  0.49980000  0.43164000  1
  C  C15  1  0.30534000  0.50002000  0.39392000  1
  C  C16  1  0.19478000  0.50021000  0.60605000  1
  C  C17  1  0.34007000  0.50013000  0.49999000  1
  C  C18  1  0.16005000  0.50011000  0.49998000  1
  C  C19  1  0.25009000  0.50018000  0.56833000  1
  C  C20  1  0.25003000  0.50005000  0.43164000  1
  C  C21  1  0.30535000  0.11069000  0.39367000  1
  C  C22  1  0.19440000  0.88928000  0.60565000  1
  C  C23  1  0.33995000  0.18000000  0.49979000  1
  C  C24  1  0.15979000  0.81997000  0.49953000  1
  C  C25  1  0.24981000  0.99995000  0.56801000  1
  C  C26  1  0.24994000  0.00001000  0.43131000  1
  C  C27  1  0.69479000  0.88931000  0.60630000  1
  C  C28  1  0.80574000  0.11070000  0.39428000  1
  C  C29  1  0.66010000  0.81999000  0.50019000  1
  C  C30  1  0.84043000  0.18002000  0.50040000  1
  C  C31  1  0.75030000  0.00003000  0.43194000  1
  C  C32  1  0.75023000  0.99998000  0.56864000  1
  S  S1  1  0.69218000  0.49995000  0.65307000  1
  S  S2  1  0.80768000  0.49975000  0.34690000  1
  S  S3  1  0.30794000  0.50027000  0.65307000  1
  S  S4  1  0.19219000  0.49996000  0.34690000  1
  S  S5  1  0.30757000  0.11552000  0.65282000  1
  S  S6  1  0.19217000  0.88445000  0.34650000  1
  S  S7  1  0.69244000  0.88445000  0.34715000  1
  S  S8  1  0.80809000  0.11556000  0.65344000  1
  N  N1  1  0.67631000  0.49969000  0.24976000  1
  N  N2  1  0.82354000  0.50001000  0.75021000  1
  N  N3  1  0.32348000  0.49988000  0.24976000  1
  N  N4  1  0.17664000  0.50035000  0.75021000  1
  N  N5  1  0.32371000  0.14717000  0.24953000  1
  N  N6  1  0.17604000  0.85280000  0.74979000  1
  N  N7  1  0.67647000  0.85285000  0.75044000  1
  N  N8  1  0.82406000  0.14716000  0.25014000  1
  O  O1  1  0.43036000  0.36086000  0.61860000  1
  O  O2  1  0.56958000  0.63932000  0.61876000  1
  O  O3  1  0.43043000  0.50025000  0.61868000  1
  O  O4  1  0.56950000  0.49993000  0.61868000  1
  O  O5  1  0.56959000  0.49978000  0.38132000  1
  O  O6  1  0.43048000  0.50002000  0.38132000  1
  O  O7  1  0.56962000  0.63925000  0.38141000  1
  O  O8  1  0.43044000  0.36067000  0.38124000  1
  O  O9  1  0.93058000  0.36068000  0.38166000  1
  O  O10  1  0.06950000  0.63915000  0.38093000  1
  O  O11  1  0.06973000  0.50007000  0.38129000  1
  O  O12  1  0.93035000  0.49976000  0.38129000  1
  O  O13  1  0.93027000  0.49992000  0.61865000  1
  O  O14  1  0.06961000  0.50015000  0.61865000  1
  O  O15  1  0.06954000  0.63938000  0.61828000  1
  O  O16  1  0.93046000  0.36080000  0.61902000  1
  O  O17  1  0.66819000  0.42968000  0.15125000  1
  O  O18  1  0.66666667  0.56961000  0.20753000  1
  O  O19  1  0.76180000  0.43013000  0.84886000  1
  O  O20  1  0.90310000  0.56997000  0.79230000  1
  O  O21  1  0.33152000  0.56973000  0.15108000  1
  O  O22  1  0.33315000  0.42991000  0.20770000  1
  O  O23  1  0.23846000  0.57039000  0.84868000  1
  O  O24  1  0.09712000  0.43044000  0.79248000  1
  O  O25  1  0.26204000  0.09366000  0.15076000  1
  O  O26  1  0.40330000  0.23628000  0.20760000  1
  O  O27  1  0.16791000  0.90658000  0.84824000  1
  O  O28  1  0.16625000  0.76341000  0.79205000  1
  O  O29  1  0.66844000  0.90670000  0.84897000  1
  O  O30  1  0.66666667  0.76339000  0.79263000  1
  O  O31  1  0.76235000  0.09371000  0.15146000  1
  O  O32  1  0.90364000  0.23621000  0.20811000  1
