# generated using pymatgen
data_Cu2H10C23N2Cl5O8
_symmetry_space_group_name_H-M   'P 1'
_cell_length_a   21.24350000
_cell_length_b   10.70030000
_cell_length_c   9.12930000
_cell_angle_alpha   89.99920000
_cell_angle_beta   89.99910000
_cell_angle_gamma   89.89060000
_symmetry_Int_Tables_number   1
_chemical_formula_structural   Cu2H10C23N2Cl5O8
_chemical_formula_sum   'Cu4 H20 C46 N4 Cl10 O16'
_cell_volume   2075.19404287
_cell_formula_units_Z   2
loop_
 _symmetry_equiv_pos_site_id
 _symmetry_equiv_pos_as_xyz
  1  'x, y, z'
loop_
 _atom_site_type_symbol
 _atom_site_label
 _atom_site_symmetry_multiplicity
 _atom_site_fract_x
 _atom_site_fract_y
 _atom_site_fract_z
 _atom_site_occupancy
  Cu  Cu1  1  0.50000000  0.49999000  0.36060000  1
  Cu  Cu2  1  0.50000000  0.49999000  0.63939000  1
  Cu  Cu3  1  0.99631000  0.49931000  0.63943000  1
  Cu  Cu4  1  0.99630000  0.50019000  0.36064000  1
  H  H1  1  0.56765000  0.36563000  0.12875000  1
  H  H2  1  0.43236000  0.63436000  0.87124000  1
  H  H3  1  0.50019000  0.10984000  0.72245000  1
  H  H4  1  0.49982000  0.89015000  0.27755000  1
  H  H5  1  0.85496000  0.65774000  0.31543000  1
  H  H6  1  0.80360000  0.79447000  0.15578000  1
  H  H7  1  0.64110000  0.65784000  0.31540000  1
  H  H8  1  0.69224000  0.79453000  0.15576000  1
  H  H9  1  0.19282000  0.50013000  0.27757000  1
  H  H10  1  0.30349000  0.49995000  0.72246000  1
  H  H11  1  0.92888000  0.36744000  0.87071000  1
  H  H12  1  0.06372000  0.63523000  0.12938000  1
  H  H13  1  0.99510000  0.11029000  0.28021000  1
  H  H14  1  0.99583000  0.88920000  0.72417000  1
  H  H15  1  0.69229000  0.24514000  0.67595000  1
  H  H16  1  0.63738000  0.34302000  0.68334000  1
  H  H17  1  0.69234000  0.34843000  0.79774000  1
  H  H18  1  0.80434000  0.34862000  0.79777000  1
  H  H19  1  0.85918000  0.34265000  0.68306000  1
  H  H20  1  0.80429000  0.24510000  0.67627000  1
  C  C1  1  0.61806000  0.49977000  0.50000000  1
  C  C2  1  0.38194000  0.50022000  0.50000000  1
  C  C3  1  0.49996000  0.73438000  0.49999000  1
  C  C4  1  0.50005000  0.26561000  0.50000000  1
  C  C5  1  0.87825000  0.49964000  0.50004000  1
  C  C6  1  0.11436000  0.49986000  0.50003000  1
  C  C7  1  0.99596000  0.73413000  0.50105000  1
  C  C8  1  0.99665000  0.26537000  0.49902000  1
  C  C9  1  0.53995000  0.42064000  0.92381000  1
  C  C10  1  0.46005000  0.57935000  0.07618000  1
  C  C11  1  0.53995000  0.42064000  0.07618000  1
  C  C12  1  0.46005000  0.57935000  0.92381000  1
  C  C13  1  0.49998000  0.86910000  0.50000000  1
  C  C14  1  0.50003000  0.13089000  0.50000000  1
  C  C15  1  0.50009000  0.93499000  0.63138000  1
  C  C16  1  0.49992000  0.06499000  0.36862000  1
  C  C17  1  0.50011000  0.06499000  0.63138000  1
  C  C18  1  0.49990000  0.93500000  0.36862000  1
  C  C19  1  0.80955000  0.49967000  0.50003000  1
  C  C20  1  0.77727000  0.58074000  0.40537000  1
  C  C21  1  0.77740000  0.41864000  0.59467000  1
  C  C22  1  0.81125000  0.65989000  0.31293000  1
  C  C23  1  0.78091000  0.74190000  0.21717000  1
  C  C24  1  0.68676000  0.49973000  0.50001000  1
  C  C25  1  0.71904000  0.41866000  0.59466000  1
  C  C26  1  0.71891000  0.58077000  0.40536000  1
  C  C27  1  0.68480000  0.65996000  0.31291000  1
  C  C28  1  0.71501000  0.74193000  0.21716000  1
  C  C29  1  0.31409000  0.50013000  0.50001000  1
  C  C30  1  0.18222000  0.49995000  0.50002000  1
  C  C31  1  0.28089000  0.50018000  0.36864000  1
  C  C32  1  0.21542000  0.49990000  0.63140000  1
  C  C33  1  0.21541000  0.50009000  0.36864000  1
  C  C34  1  0.28090000  0.49999000  0.63139000  1
  C  C35  1  0.95649000  0.42178000  0.07588000  1
  C  C36  1  0.03612000  0.58089000  0.92420000  1
  C  C37  1  0.95649000  0.42226000  0.92351000  1
  C  C38  1  0.03612000  0.58041000  0.07657000  1
  C  C39  1  0.99571000  0.86885000  0.50163000  1
  C  C40  1  0.99523000  0.13064000  0.50276000  1
  C  C41  1  0.99549000  0.93516000  0.37054000  1
  C  C42  1  0.99544000  0.06433000  0.63385000  1
  C  C43  1  0.99525000  0.06516000  0.37110000  1
  C  C44  1  0.99568000  0.93434000  0.63329000  1
  C  C45  1  0.68170000  0.33039000  0.69776000  1
  C  C46  1  0.81488000  0.33033000  0.69778000  1
  N  N1  1  0.50000000  0.49999000  0.84657000  1
  N  N2  1  0.50000000  0.49999000  0.15342000  1
  N  N3  1  0.99630000  0.50085000  0.15347000  1
  N  N4  1  0.99630000  0.50182000  0.84662000  1
  Cl  Cl1  1  0.59073000  0.31979000  0.82743000  1
  Cl  Cl2  1  0.40928000  0.68020000  0.17256000  1
  Cl  Cl3  1  0.50020000  0.85276000  0.79834000  1
  Cl  Cl4  1  0.49981000  0.14723000  0.20166000  1
  Cl  Cl5  1  0.32231000  0.50036000  0.20166000  1
  Cl  Cl6  1  0.17400000  0.49972000  0.79837000  1
  Cl  Cl7  1  0.90588000  0.32067000  0.17183000  1
  Cl  Cl8  1  0.08672000  0.68200000  0.82826000  1
  Cl  Cl9  1  0.99552000  0.85346000  0.20322000  1
  Cl  Cl10  1  0.99541000  0.14604000  0.80117000  1
  O  O1  1  0.58185000  0.49999000  0.36999000  1
  O  O2  1  0.41799000  0.50037000  0.37000000  1
  O  O3  1  0.49985000  0.66284000  0.37000000  1
  O  O4  1  0.49999000  0.33752000  0.37000000  1
  O  O5  1  0.50013000  0.33715000  0.63000000  1
  O  O6  1  0.50004000  0.66247000  0.62999000  1
  O  O7  1  0.41809000  0.50017000  0.63000000  1
  O  O8  1  0.58202000  0.49958000  0.62999000  1
  O  O9  1  0.91446000  0.49942000  0.63004000  1
  O  O10  1  0.07832000  0.49963000  0.63003000  1
  O  O11  1  0.99618000  0.66218000  0.63074000  1
  O  O12  1  0.99659000  0.33686000  0.62933000  1
  O  O13  1  0.99645000  0.33732000  0.36933000  1
  O  O14  1  0.99600000  0.66264000  0.37074000  1
  O  O15  1  0.07822000  0.50026000  0.37004000  1
  O  O16  1  0.91429000  0.49983000  0.37005000  1
