# Generated by REPEAT Assigner based on pymatgen
data_DB1-Cu2O8N2-ADC_A-irmof12_A_No20
_audit_creation_date              2022-05-24
_audit_creation_method            REPEAT_Assigner
_cell_length_a                    23.062200
_cell_length_b                    30.038200
_cell_length_c                    15.849400
_cell_angle_alpha                 92.322000
_cell_angle_beta                  95.516100
_cell_angle_gamma                 49.439800
_cell_volume                      8299.336133
_symmetry_space_group_name_H-M    P1
_symmetry_Int_Tables_number       1
loop_
    _symmetry_equiv_pos_site_id
    _symmetry_equiv_pos_as_xyz
    1  x,y,z
loop_
    _atom_site_type_symbol
    _atom_site_label
    _atom_site_fract_x
    _atom_site_fract_y
    _atom_site_fract_z
    _atom_type_partial_charge
    Cu  Cu1  0.497030  0.499760  0.419410  1.103890
    Cu  Cu2  0.502960  0.500240  0.580590  1.118989
    O   O1   0.397650  0.549490  0.419170  -0.521800
    O   O2   0.597010  0.450080  0.430520  -0.533048
    O   O3   0.497450  0.557680  0.424850  -0.565739
    O   O4   0.497220  0.441900  0.424840  -0.569244
    O   O5   0.502570  0.442310  0.575150  -0.595203
    O   O6   0.502750  0.558110  0.575160  -0.580832
    O   O7   0.602420  0.450530  0.580830  -0.524818
    O   O8   0.402980  0.549900  0.569480  -0.534436
    C   C1   0.356360  0.571640  0.491830  0.487144
    C   C2   0.643630  0.428360  0.508180  0.505822
    C   C3   0.500100  0.583440  0.500010  0.623311
    C   C4   0.499890  0.416560  0.499990  0.657794
    Cu  Cu3  0.502700  0.000380  0.580600  1.028449
    Cu  Cu4  0.497260  0.999650  0.419440  1.122254
    O   O9   0.402920  0.049810  0.569130  -0.456098
    O   O10  0.602300  0.950660  0.581220  -0.531906
    O   O11  0.502730  0.942230  0.575180  -0.548037
    O   O12  0.502490  0.058240  0.575170  -0.579161
    O   O13  0.497250  0.057770  0.424860  -0.592579
    O   O14  0.497430  0.941800  0.424870  -0.566108
    O   O15  0.597120  0.950110  0.430920  -0.537153
    O   O16  0.397650  0.049380  0.418820  -0.510810
    C   C5   0.356330  0.071430  0.491310  0.427774
    C   C6   0.643630  0.928590  0.508730  0.535018
    C   C7   0.500080  0.916460  0.500030  0.608416
    C   C8   0.499870  0.083560  0.500010  0.687397
    N   N1   0.492630  0.499400  0.299620  -0.123320
    C   C9   0.539970  0.503280  0.256740  0.018594
    C   C10  0.536780  0.503020  0.168030  -0.119318
    C   C11  0.485920  0.498850  0.119580  0.128780
    C   C12  0.438710  0.494970  0.162600  -0.204526
    C   C13  0.441930  0.495230  0.251230  0.017998
    C   C14  0.479420  0.498310  0.024960  0.047142
    C   C15  0.520590  0.501690  0.975040  0.058429
    C   C16  0.561290  0.505030  0.837390  -0.197835
    C   C17  0.514080  0.501160  0.880420  0.125669
    C   C18  0.463220  0.496980  0.831970  -0.115775
    C   C19  0.460030  0.496720  0.743260  -0.016606
    N   N2   0.507360  0.500610  0.700370  -0.101889
    C   C20  0.558060  0.504770  0.748760  0.000493
    H   H1   0.579520  0.506530  0.292380  0.118029
    H   H2   0.574410  0.506110  0.138810  0.175950
    H   H3   0.399000  0.491710  0.127460  0.197069
    H   H4   0.404820  0.492190  0.282430  0.117211
    H   H5   0.601000  0.508290  0.872530  0.194452
    H   H6   0.425580  0.493890  0.861190  0.169298
    H   H7   0.420480  0.493470  0.707630  0.144555
    H   H8   0.595170  0.507810  0.717560  0.128999
    C   C21  0.524000  0.713760  0.352830  -0.167617
    C   C22  0.476180  0.743920  0.647200  -0.106796
    C   C23  0.534490  0.757110  0.650630  -0.175591
    C   C24  0.465690  0.785030  0.349410  -0.119622
    C   C25  0.497570  0.659180  0.428480  -0.254401
    C   C26  0.497520  0.705510  0.426950  0.167405
    H   H9   0.495700  0.644150  0.375370  0.160127
    C   C27  0.502610  0.659720  0.571540  -0.198415
    C   C28  0.502670  0.706060  0.573080  0.127755
    H   H10  0.504490  0.645090  0.624650  0.127029
    C   C29  0.502610  0.840730  0.571550  -0.295158
    C   C30  0.502660  0.794400  0.573080  0.191092
    H   H11  0.504480  0.855760  0.624660  0.180390
    C   C31  0.497560  0.840190  0.428490  -0.198833
    C   C32  0.497510  0.793840  0.426950  0.142920
    H   H12  0.495690  0.854820  0.375380  0.122979
    C   C33  0.500100  0.633090  0.500010  -0.021010
    C   C34  0.500090  0.726790  0.500020  -0.017410
    C   C35  0.500090  0.866820  0.500020  -0.001246
    C   C36  0.500090  0.773120  0.500020  -0.031870
    H   H13  0.586110  0.694280  0.365780  0.082182
    H   H14  0.516430  0.693480  0.295170  0.080893
    H   H15  0.414070  0.785900  0.634250  0.069725
    H   H16  0.483750  0.718540  0.704860  0.059945
    H   H17  0.595950  0.715060  0.644940  0.084381
    H   H18  0.530970  0.782920  0.707640  0.076422
    H   H19  0.404230  0.804580  0.355100  0.072794
    H   H20  0.469210  0.804880  0.292400  0.061227
    C   C37  0.465430  0.285150  0.349400  -0.152061
    C   C38  0.534340  0.257190  0.650600  -0.111279
    C   C39  0.476020  0.244010  0.647200  -0.156016
    C   C40  0.523730  0.213890  0.352810  -0.107625
    C   C41  0.497340  0.340300  0.428470  -0.203193
    C   C42  0.497280  0.293960  0.426930  0.133724
    H   H21  0.495450  0.354940  0.375350  0.135380
    C   C43  0.502430  0.340810  0.571530  -0.163500
    C   C44  0.502480  0.294490  0.573070  0.112042
    H   H22  0.504320  0.355840  0.624640  0.114472
    C   C45  0.502420  0.159820  0.571540  -0.163271
    C   C46  0.502480  0.206160  0.573070  0.111512
    H   H23  0.504310  0.145180  0.624650  0.125727
    C   C47  0.497330  0.159300  0.428480  -0.169130
    C   C48  0.497280  0.205630  0.426940  0.114142
    H   H24  0.495430  0.144270  0.375360  0.118816
    C   C49  0.499890  0.366920  0.500000  -0.066156
    C   C50  0.499880  0.273230  0.500000  -0.006445
    C   C51  0.499870  0.133200  0.500010  -0.093516
    C   C52  0.499880  0.226890  0.500000  0.003379
    H   H25  0.403970  0.304710  0.355120  0.079732
    H   H26  0.468930  0.305010  0.292390  0.078004
    H   H27  0.595790  0.215140  0.644890  0.074979
    H   H28  0.530830  0.282990  0.707620  0.059537
    H   H29  0.413910  0.285990  0.634280  0.084083
    H   H30  0.483610  0.218620  0.704870  0.079505
    H   H31  0.585850  0.194400  0.365730  0.071664
    H   H32  0.516140  0.193610  0.295150  0.058323
    C   C53  0.729160  0.885900  0.513590  -0.039312
    C   C54  0.767640  0.865120  0.439360  -0.115251
    C   C55  0.847860  0.825080  0.443810  -0.084184
    C   C56  0.891970  0.804630  0.522990  0.115607
    C   C57  0.853360  0.825460  0.597020  -0.174721
    C   C58  0.773210  0.865470  0.592510  -0.067970
    C   C59  0.977550  0.762010  0.532590  0.053509
    C   C60  0.022440  0.738220  0.467940  0.047590
    C   C61  0.146640  0.674770  0.403520  -0.149785
    C   C62  0.108020  0.695600  0.477550  0.100687
    C   C63  0.152120  0.675150  0.556730  -0.056685
    C   C64  0.232340  0.635110  0.561190  -0.161429
    C   C65  0.270840  0.614330  0.486960  0.014530
    C   C66  0.226780  0.634760  0.408030  -0.107495
    H   H33  0.735190  0.880100  0.377770  0.132436
    H   H34  0.874050  0.810770  0.384820  0.177188
    H   H35  0.885370  0.810710  0.658860  0.201477
    H   H36  0.745230  0.880660  0.650690  0.105737
    H   H37  0.114630  0.689520  0.341670  0.193534
    H   H38  0.125940  0.689460  0.615720  0.170269
    H   H39  0.264790  0.620130  0.622780  0.152923
    H   H40  0.254770  0.619570  0.349850  0.113592
    C   C67  0.270840  0.113740  0.486490  0.033826
    C   C68  0.232350  0.134570  0.560720  -0.137922
    C   C69  0.152130  0.174660  0.556250  -0.060077
    C   C70  0.108030  0.195090  0.477070  0.098138
    C   C71  0.146650  0.174190  0.403050  -0.148912
    C   C72  0.226790  0.134140  0.407560  -0.145115
    C   C73  0.022450  0.237760  0.467470  0.059851
    C   C74  0.977550  0.261600  0.532100  0.047370
    C   C75  0.853350  0.325170  0.596510  -0.161464
    C   C76  0.891970  0.304270  0.522490  0.112633
    C   C77  0.847880  0.324690  0.443300  -0.096360
    C   C78  0.767660  0.364780  0.438830  -0.074785
    C   C79  0.729160  0.385630  0.513050  -0.026697
    C   C80  0.773200  0.365220  0.591980  -0.107879
    H   H41  0.264800  0.119610  0.622310  0.138555
    H   H42  0.125930  0.189020  0.615240  0.157207
    H   H43  0.114640  0.188930  0.341200  0.198653
    H   H44  0.254780  0.118900  0.349390  0.143327
    H   H45  0.885350  0.310440  0.658360  0.199477
    H   H46  0.874070  0.310340  0.384310  0.177242
    H   H47  0.735210  0.379740  0.377240  0.105639
    H   H48  0.745210  0.380460  0.650160  0.125047
    N   N3   0.436090  0.036100  0.696210  -0.070040
    C   C81  0.486650  0.983460  0.744850  -0.062964
    C   C82  0.489710  0.983790  0.833550  -0.111031
    C   C83  0.442070  0.037010  0.876210  0.147595
    C   C84  0.391620  0.089520  0.827450  -0.240234
    C   C85  0.388600  0.089150  0.738830  0.063118
    C   C86  0.442220  0.040710  0.970450  0.034171
    C   C87  0.487100  0.994480  0.025440  0.062994
    C   C88  0.537690  0.945680  0.168450  -0.189472
    C   C89  0.487240  0.998180  0.119680  0.125919
    C   C90  0.439600  0.051410  0.162340  -0.122032
    C   C91  0.442660  0.051740  0.251040  0.001436
    N   N4   0.493220  0.999100  0.299680  -0.125628
    C   C92  0.540710  0.946050  0.257060  -0.008163
    H   H49  0.523850  0.942000  0.713720  0.135695
    H   H50  0.529580  0.942100  0.867320  0.177386
    H   H51  0.354230  0.131170  0.858060  0.209169
    H   H52  0.349130  0.130340  0.703140  0.079910
    H   H53  0.575090  0.904020  0.137840  0.190348
    H   H54  0.399740  0.093090  0.128570  0.167933
    H   H55  0.405460  0.093200  0.282160  0.134960
    H   H56  0.580180  0.904860  0.292760  0.135238
    O   O17  0.415980  0.451980  0.020920  -0.325323
    O   O18  0.370610  0.530500  0.909160  -0.256614
    N   N5   0.421540  0.493560  0.984700  0.165125
    O   O19  0.654760  0.471590  0.983090  -0.316094
    O   O20  0.558660  0.545940  0.086810  -0.272647
    N   N6   0.578460  0.506440  0.015300  0.162651
    O   O21  0.983720  0.791180  0.687050  -0.309251
    O   O22  0.080760  0.683590  0.646540  -0.247921
    N   N7   0.014300  0.745460  0.622770  0.149758
    O   O23  0.016480  0.767160  0.313700  -0.309994
    O   O24  0.919030  0.758520  0.353760  -0.247902
    N   N8   0.985690  0.754770  0.377750  0.153491
    O   O25  0.016540  0.266580  0.313170  -0.309363
    O   O26  0.919000  0.258070  0.353330  -0.246401
    N   N9   0.985710  0.254270  0.377270  0.148790
    O   O27  0.983740  0.290850  0.686510  -0.310526
    O   O28  0.080700  0.183220  0.646130  -0.251931
    N   N10  0.014290  0.245090  0.622290  0.158003
    O   O29  0.378810  0.150200  0.967040  -0.324946
    O   O30  0.341150  0.113030  0.073920  -0.254760
    N   N11  0.386950  0.101800  0.004070  0.172377
    O   O31  0.621260  0.890960  0.033150  -0.317185
    O   O32  0.517430  0.916170  0.917680  -0.260293
    N   N12  0.542370  0.933390  0.991820  0.149829
