# Generated by REPEAT Assigner based on pymatgen
data_DB1-Cu2O8-ADC_A-DABCO_A_No26
_audit_creation_date              2022-05-24
_audit_creation_method            REPEAT_Assigner
_cell_length_a                    10.868700
_cell_length_b                    34.996400
_cell_length_c                    10.000000
_cell_angle_alpha                 90.000000
_cell_angle_beta                  90.000000
_cell_angle_gamma                 87.065600
_cell_volume                      3798.666382
_symmetry_space_group_name_H-M    P1
_symmetry_Int_Tables_number       1
loop_
    _symmetry_equiv_pos_site_id
    _symmetry_equiv_pos_as_xyz
    1  x,y,z
loop_
    _atom_site_type_symbol
    _atom_site_label
    _atom_site_fract_x
    _atom_site_fract_y
    _atom_site_fract_z
    _atom_type_partial_charge
    Cu  Cu1  0.500290  0.500000  0.627260  1.174705
    Cu  Cu2  0.499730  0.500010  0.372740  1.161027
    O   O1   0.660460  0.497340  0.618260  -0.448548
    O   O2   0.339760  0.502550  0.619100  -0.453673
    O   O3   0.499920  0.450210  0.618680  -0.415458
    O   O4   0.500290  0.549670  0.618680  -0.403905
    O   O5   0.500050  0.549790  0.381320  -0.511839
    O   O6   0.499770  0.450330  0.381320  -0.535102
    O   O7   0.339420  0.502610  0.381740  -0.500903
    O   O8   0.660260  0.497470  0.380900  -0.501615
    C   C1   0.731060  0.496240  0.499390  -0.017265
    C   C2   0.268950  0.503760  0.500600  0.029276
    C   C3   0.499850  0.428340  0.499990  0.658978
    C   C4   0.500170  0.571660  0.500000  0.645246
    Cu  Cu3  0.499990  0.000000  0.281880  1.188575
    Cu  Cu4  0.499950  0.000010  0.536390  1.175244
    O   O9   0.660180  0.997560  0.290480  -0.467632
    O   O10  0.339470  0.002560  0.290420  -0.539437
    O   O11  0.499650  0.049800  0.290440  -0.409584
    O   O12  0.500000  0.950320  0.290470  -0.367451
    O   O13  0.500240  0.950210  0.527830  -0.503277
    O   O14  0.499980  0.049680  0.527800  -0.527262
    O   O15  0.339630  0.002500  0.527780  -0.564147
    O   O16  0.660470  0.997430  0.527840  -0.511854
    C   C5   0.731030  0.996410  0.409180  -0.058204
    C   C6   0.268910  0.003590  0.409090  0.291392
    C   C7   0.499820  0.071670  0.409120  0.695625
    C   C8   0.500120  0.928340  0.409150  0.563525
    C   C9   0.500110  0.885660  0.409160  -0.242026
    C   C10  0.500240  0.865050  0.530080  0.079259
    C   C11  0.500230  0.825020  0.530240  -0.289048
    C   C12  0.500100  0.804430  0.408930  0.349157
    C   C13  0.499980  0.825100  0.288320  -0.323375
    C   C14  0.499990  0.865090  0.288240  0.247942
    C   C15  0.500090  0.761820  0.401440  -0.225019
    C   C16  0.500200  0.738180  0.507760  -0.232340
    C   C17  0.500310  0.674900  0.620870  -0.325215
    C   C18  0.500190  0.695570  0.500260  0.353769
    C   C19  0.500060  0.674980  0.378940  -0.291753
    C   C20  0.500060  0.634950  0.379100  0.098480
    C   C21  0.500180  0.614340  0.500010  -0.299617
    C   C22  0.500300  0.634910  0.620940  0.269945
    H   H1   0.500330  0.880140  0.624610  0.126224
    H   H2   0.500330  0.810840  0.625940  0.178637
    H   H3   0.499880  0.810240  0.193340  0.175911
    H   H4   0.500410  0.689760  0.715850  0.174667
    H   H5   0.499960  0.689160  0.283240  0.178498
    H   H6   0.499960  0.619860  0.284560  0.118539
    H   H7   0.499990  0.749900  0.302040  0.157928
    H   H8   0.500300  0.750100  0.607160  0.160135
    C   C23  0.499820  0.114340  0.409130  -0.284050
    C   C24  0.499900  0.134950  0.530050  0.077477
    C   C25  0.499890  0.174980  0.530220  -0.283916
    C   C26  0.499810  0.195580  0.408900  0.343303
    C   C27  0.499730  0.174910  0.288290  -0.326740
    C   C28  0.499740  0.134920  0.288210  0.266618
    C   C29  0.499800  0.238190  0.401420  -0.223653
    C   C30  0.499870  0.261820  0.507740  -0.230258
    C   C31  0.499940  0.325100  0.620850  -0.310650
    C   C32  0.499860  0.304430  0.500240  0.338601
    C   C33  0.499780  0.325030  0.378920  -0.277364
    C   C34  0.499770  0.365060  0.379090  0.060260
    C   C35  0.499850  0.385670  0.500000  -0.250125
    C   C36  0.499930  0.365090  0.620930  0.237364
    H   H9   0.499960  0.119860  0.624580  0.120463
    H   H10  0.499960  0.189160  0.625910  0.176984
    H   H11  0.499670  0.189780  0.193310  0.175575
    H   H12  0.500000  0.310240  0.715840  0.172171
    H   H13  0.499720  0.310850  0.283220  0.175910
    H   H14  0.499710  0.380150  0.284550  0.128717
    H   H15  0.499730  0.250110  0.302020  0.157662
    H   H16  0.499940  0.249900  0.607140  0.159043
    C   C37  0.917000  0.536490  0.535250  -0.312664
    C   C38  0.058330  0.538510  0.534860  -0.307366
    C   C39  0.130470  0.501830  0.500290  0.989151
    C   C40  0.078260  0.473630  0.596510  -0.243093
    C   C41  0.936920  0.471530  0.595760  -0.331671
    C   C42  0.868190  0.498160  0.499700  1.116123
    C   C43  0.931980  0.488910  0.368600  -0.291992
    C   C44  0.073460  0.490720  0.369060  -0.261525
    C   C45  0.916890  0.950250  0.372890  -0.308423
    C   C46  0.058210  0.943730  0.372940  -0.211352
    C   C47  0.130420  0.978120  0.407330  0.366727
    C   C48  0.078020  0.007980  0.311230  -0.000857
    C   C49  0.936690  0.014570  0.312320  -0.436808
    C   C50  0.868150  0.990130  0.408550  1.297831
    C   C51  0.932210  0.997350  0.539490  -0.385932
    C   C52  0.073690  0.991040  0.538690  -0.067605
    O   O17  0.580390  0.918490  0.137240  -0.261151
    O   O18  0.419190  0.874290  0.046220  -0.314378
    N   N1   0.499860  0.886120  0.156190  0.260886
    O   O19  0.581000  0.578940  0.771730  -0.259505
    O   O20  0.420000  0.628270  0.863150  -0.317041
    N   N2   0.500440  0.613870  0.752980  0.252610
    O   O21  0.419090  0.081530  0.137360  -0.262318
    O   O22  0.580130  0.125730  0.046030  -0.319563
    N   N3   0.499650  0.113890  0.156150  0.246614
    O   O23  0.419480  0.421050  0.771880  -0.274423
    O   O24  0.580640  0.371730  0.862980  -0.323108
    N   N4   0.500020  0.386120  0.752970  0.270306
