# Generated by REPEAT Assigner based on pymatgen
data_DB1-Zn2O8N2-irmof10_A-irmof20_A_No26
_audit_creation_date              2022-05-24
_audit_creation_method            REPEAT_Assigner
_cell_length_a                    12.701700
_cell_length_b                    27.847400
_cell_length_c                    14.262400
_cell_angle_alpha                 90.041600
_cell_angle_beta                  89.875500
_cell_angle_gamma                 89.787200
_cell_volume                      5044.695751
_symmetry_space_group_name_H-M    P1
_symmetry_Int_Tables_number       1
loop_
    _symmetry_equiv_pos_site_id
    _symmetry_equiv_pos_as_xyz
    1  x,y,z
loop_
    _atom_site_type_symbol
    _atom_site_label
    _atom_site_fract_x
    _atom_site_fract_y
    _atom_site_fract_z
    _atom_type_partial_charge
    O   O1   0.500970  0.430750  0.595200  -0.590375
    O   O2   0.500440  0.430750  0.404630  -0.587096
    C   C1   0.500650  0.406350  0.499930  0.440463
    Zn  Zn1  0.500000  0.500010  0.616230  0.991755
    O   O3   0.651800  0.500030  0.404530  -0.529501
    O   O4   0.651870  0.500090  0.595110  -0.518903
    C   C2   0.705350  0.500040  0.499850  0.429188
    O   O5   0.499230  0.569270  0.404800  -0.518549
    O   O6   0.499360  0.569260  0.595380  -0.524636
    C   C3   0.499270  0.593670  0.500080  0.345496
    Zn  Zn2  0.500010  0.500010  0.383770  0.985326
    O   O7   0.348210  0.499890  0.595470  -0.495222
    O   O8   0.348140  0.500000  0.404890  -0.469953
    C   C4   0.294660  0.499810  0.500160  0.358589
    O   O9   0.500090  0.025370  0.404850  -0.594998
    O   O10  0.499830  0.025370  0.595420  -0.591810
    C   C5   0.499840  0.049770  0.500120  0.441183
    Zn  Zn3  0.499260  0.956110  0.383820  0.991429
    O   O11  0.651360  0.955660  0.594770  -0.531510
    O   O12  0.651160  0.955590  0.404180  -0.518938
    C   C6   0.704780  0.955490  0.499180  0.433384
    O   O13  0.498960  0.886850  0.595260  -0.518297
    O   O14  0.498830  0.886860  0.404680  -0.527190
    C   C7   0.498930  0.862460  0.499980  0.345562
    Zn  Zn4  0.499600  0.956120  0.616280  0.989052
    O   O15  0.347500  0.956670  0.405330  -0.497653
    O   O16  0.347700  0.956550  0.595920  -0.474970
    C   C8   0.294080  0.956900  0.500920  0.374262
    N   N1   0.500000  0.500010  0.752960  -0.189029
    N   N2   0.500020  0.500000  0.247040  -0.167663
    C   C9   0.432870  0.530410  0.802580  0.138628
    C   C10  0.432250  0.530690  0.900910  -0.319992
    C   C11  0.567150  0.469600  0.197420  0.114635
    C   C12  0.567770  0.469320  0.099090  -0.308110
    C   C13  0.432890  0.530410  0.197770  0.127740
    C   C14  0.432260  0.530690  0.099450  -0.318000
    C   C15  0.567140  0.469600  0.802230  0.136636
    C   C16  0.567770  0.469320  0.900550  -0.326111
    C   C17  0.500010  0.500010  0.950460  0.186540
    C   C18  0.500020  0.500010  0.049540  0.175440
    H   H1   0.386330  0.551490  0.769050  0.090857
    H   H2   0.385530  0.551850  0.934270  0.151031
    H   H3   0.613690  0.448520  0.230950  0.118256
    H   H4   0.614500  0.448160  0.065730  0.160973
    H   H5   0.386350  0.551480  0.231540  0.103753
    H   H6   0.385530  0.551850  0.066330  0.140795
    H   H7   0.613670  0.448530  0.768460  0.122263
    H   H8   0.614490  0.448160  0.933670  0.158012
    C   C19  0.499110  0.678350  0.425680  0.433881
    S   S1   0.499240  0.676220  0.607380  -0.232699
    C   C20  0.499090  0.777770  0.574380  0.431292
    S   S2   0.498960  0.779910  0.392680  -0.233013
    C   C21  0.499200  0.647250  0.500060  0.042697
    C   C22  0.499000  0.808870  0.500000  0.045571
    C   C23  0.499130  0.728080  0.547950  -0.115017
    C   C24  0.499060  0.728040  0.452110  -0.117747
    C   C25  0.500540  0.354580  0.499950  0.040048
    C   C26  0.499960  0.101540  0.500090  0.042249
    C   C27  0.500710  0.329300  0.584060  -0.078578
    C   C28  0.500600  0.278940  0.584870  -0.226521
    C   C29  0.499790  0.126820  0.415980  -0.078693
    C   C30  0.499900  0.177180  0.415180  -0.227379
    C   C31  0.500250  0.126900  0.584170  -0.088123
    C   C32  0.500370  0.177260  0.584930  -0.223478
    C   C33  0.500240  0.329220  0.415870  -0.086095
    C   C34  0.500130  0.278860  0.415120  -0.223489
    C   C35  0.500310  0.253430  0.500010  0.122280
    C   C36  0.500190  0.202690  0.500040  0.122239
    H   H9   0.500910  0.346570  0.642350  0.113195
    H   H10  0.500720  0.261950  0.643410  0.142160
    H   H11  0.499590  0.109550  0.357700  0.114500
    H   H12  0.499770  0.194170  0.356630  0.141833
    H   H13  0.500380  0.109700  0.642480  0.118946
    H   H14  0.500570  0.194320  0.643450  0.141863
    H   H15  0.500120  0.346420  0.357570  0.117274
    H   H16  0.499930  0.261800  0.356600  0.142357
    C   C37  0.890860  0.499990  0.574310  0.470265
    S   S3   0.886560  0.499930  0.392610  -0.238290
    C   C38  0.109140  0.499860  0.425690  0.439087
    S   S4   0.113450  0.499920  0.607390  -0.224149
    C   C39  0.822830  0.499990  0.499910  -0.030514
    C   C40  0.177180  0.499860  0.500090  -0.004606
    C   C41  0.000150  0.499910  0.452080  -0.087021
    C   C42  0.999850  0.499940  0.547920  -0.113763
    N   N3   0.499080  0.956110  0.247090  -0.187008
    N   N4   0.498400  0.956120  0.753010  -0.167656
    C   C43  0.431950  0.925900  0.197810  0.137278
    C   C44  0.431200  0.925620  0.099480  -0.323768
    C   C45  0.565530  0.986330  0.802300  0.113097
    C   C46  0.566290  0.986610  0.900630  -0.308517
    C   C47  0.431410  0.925910  0.802610  0.124808
    C   C48  0.430930  0.925630  0.900950  -0.319685
    C   C49  0.566070  0.986330  0.197490  0.135284
    C   C50  0.566560  0.986610  0.099160  -0.325673
    C   C51  0.498810  0.956120  0.049590  0.187159
    C   C52  0.498670  0.956120  0.950520  0.178670
    H   H17  0.385510  0.904960  0.231570  0.095446
    H   H18  0.384480  0.904600  0.066350  0.151096
    H   H19  0.611970  0.007270  0.768540  0.119822
    H   H20  0.613000  0.007640  0.933760  0.160953
    H   H21  0.384880  0.904960  0.769070  0.106530
    H   H22  0.384300  0.904600  0.934300  0.141115
    H   H23  0.612600  0.007270  0.231030  0.123476
    H   H24  0.613190  0.007640  0.065810  0.157211
    C   C53  0.890190  0.955010  0.423790  0.468619
    S   S5   0.886140  0.955080  0.605510  -0.237227
    C   C54  0.108680  0.954520  0.571330  0.446625
    S   S6   0.112730  0.954440  0.389600  -0.218657
    C   C55  0.822260  0.955200  0.498530  -0.031546
    C   C56  0.176600  0.954320  0.496580  -0.022981
    C   C57  0.999650  0.954780  0.545480  -0.090655
    C   C58  0.999220  0.954750  0.449640  -0.110946
    O   O17  0.499060  0.664280  0.338890  -0.855455
    Li  Li1  0.498950  0.694460  0.234450  0.855945
    O   O18  0.499130  0.791850  0.661160  -0.855874
    Li  Li2  0.499240  0.761660  0.765610  0.856058
    O   O19  0.859830  0.500040  0.661080  -0.878362
    Li  Li3  0.925790  0.500050  0.765560  0.863058
    O   O20  0.140180  0.499810  0.338920  -0.863033
    Li  Li4  0.074220  0.499800  0.234450  0.864416
    O   O21  0.859030  0.955050  0.337180  -0.878116
    Li  Li5  0.924850  0.954850  0.232370  0.862887
    O   O22  0.139840  0.954470  0.657940  -0.863924
    Li  Li6  0.074020  0.954670  0.762740  0.864227
