# Generated by REPEAT Assigner based on pymatgen
data_DB1-Zn2O8N2-TED-AZO_No2
_audit_creation_date              2022-05-24
_audit_creation_method            REPEAT_Assigner
_cell_length_a                    9.589100
_cell_length_b                    17.118900
_cell_length_c                    17.114400
_cell_angle_alpha                 89.987400
_cell_angle_beta                  93.256800
_cell_angle_gamma                 93.479600
_cell_volume                      2799.688724
_symmetry_space_group_name_H-M    P1
_symmetry_Int_Tables_number       1
loop_
    _symmetry_equiv_pos_site_id
    _symmetry_equiv_pos_as_xyz
    1  x,y,z
loop_
    _atom_site_type_symbol
    _atom_site_label
    _atom_site_fract_x
    _atom_site_fract_y
    _atom_site_fract_z
    _atom_type_partial_charge
    O   O1   0.625880  0.500340  0.603850  -0.578313
    O   O2   0.395450  0.499910  0.603930  -0.611169
    O   O3   0.604350  0.500100  0.396450  -0.601908
    O   O4   0.374550  0.499700  0.396510  -0.535615
    O   O5   0.604300  0.396500  0.499190  -0.611610
    O   O6   0.395580  0.603500  0.499770  -0.626666
    O   O7   0.374290  0.396070  0.499270  -0.563737
    O   O8   0.625500  0.603950  0.499720  -0.560875
    C   C1   0.485430  0.359100  0.498810  0.647682
    C   C2   0.514300  0.640920  0.499490  0.661136
    Zn  Zn1  0.644910  0.500270  0.500250  1.037521
    Zn  Zn2  0.355160  0.499720  0.500340  1.055040
    C   C3   0.514470  0.500150  0.641000  0.657603
    C   C4   0.485650  0.499850  0.359290  0.642096
    N   N1   0.523310  0.729530  0.499190  -0.055370
    C   C5   0.401220  0.771470  0.499090  -0.259138
    C   C6   0.409870  0.853500  0.498930  -0.097396
    C   C7   0.540600  0.895270  0.498860  0.501972
    C   C8   0.662170  0.853930  0.498960  -0.472041
    C   C9   0.654000  0.771930  0.499120  0.165849
    N   N2   0.552850  0.979300  0.498700  -0.360320
    N   N3   0.446720  0.020730  0.498600  -0.359981
    C   C10  0.337400  0.146110  0.498340  -0.466067
    C   C11  0.458980  0.104770  0.498430  0.497747
    C   C12  0.589700  0.146540  0.498370  -0.092746
    C   C13  0.598350  0.228570  0.498210  -0.262849
    N   N4   0.476270  0.270510  0.498110  -0.048091
    C   C14  0.345570  0.228110  0.498170  0.158018
    H   H1   0.299440  0.740390  0.499140  0.194583
    H   H2   0.315080  0.884630  0.498850  0.070051
    H   H3   0.763320  0.885580  0.498910  0.160270
    H   H4   0.236250  0.114460  0.498390  0.159516
    H   H5   0.684490  0.115410  0.498440  0.069209
    H   H6   0.700130  0.259650  0.498160  0.193888
    C   C15  0.076290  0.431900  0.543080  0.162799
    C   C16  0.915700  0.432850  0.543330  -0.158594
    N   N5   0.851100  0.500590  0.501400  0.114683
    C   C17  0.911640  0.497530  0.422020  -0.148351
    C   C18  0.072380  0.497170  0.422130  0.067550
    N   N6   0.149220  0.499240  0.501620  -0.055577
    C   C19  0.092890  0.569680  0.539320  -0.068363
    C   C20  0.932130  0.570580  0.538900  0.040155
    H   H7   0.120360  0.431160  0.606350  -0.003082
    H   H8   0.105660  0.376370  0.512870  0.015220
    H   H9   0.868090  0.376110  0.515550  0.049359
    H   H10  0.883070  0.435400  0.606250  0.056298
    H   H11  0.864710  0.442740  0.390230  0.056897
    H   H12  0.881180  0.550820  0.386460  0.057069
    H   H13  0.100310  0.442460  0.389940  0.063484
    H   H14  0.114940  0.550640  0.389360  0.057168
    H   H15  0.136730  0.573600  0.602620  0.045626
    H   H16  0.130060  0.625000  0.507580  0.028356
    H   H17  0.898630  0.625500  0.507120  0.066456
    H   H18  0.905500  0.575210  0.602750  0.024325
    N   N7   0.523520  0.500150  0.729530  -0.060656
    C   C21  0.401450  0.499890  0.771740  -0.256932
    C   C22  0.410120  0.499850  0.853780  -0.097119
    C   C23  0.540850  0.500080  0.895270  0.496382
    C   C24  0.662410  0.500340  0.853650  -0.465847
    C   C25  0.654220  0.500380  0.771650  0.173732
    N   N8   0.553120  0.500050  0.979300  -0.358959
    N   N9   0.447000  0.499820  0.020980  -0.356394
    C   C26  0.337710  0.499520  0.146630  -0.489751
    C   C27  0.459270  0.499790  0.105010  0.507831
    C   C28  0.590000  0.500010  0.146500  -0.123620
    C   C29  0.598670  0.499970  0.228540  -0.207327
    N   N10  0.476600  0.499710  0.270750  -0.092497
    C   C30  0.345900  0.499490  0.228630  0.204913
    H   H19  0.299670  0.499710  0.740880  0.197428
    H   H20  0.315340  0.499650  0.885130  0.067134
    H   H21  0.763560  0.500520  0.885090  0.159274
    H   H22  0.236560  0.499350  0.115190  0.164759
    H   H23  0.684780  0.500210  0.115150  0.075027
    H   H24  0.700450  0.500150  0.259400  0.170298
    C   C31  0.790870  0.727910  0.499230  0.064324
    H   H25  0.849020  0.742160  0.545140  0.018029
    H   H26  0.768330  0.672500  0.499220  -0.090448
    H   H27  0.839900  0.741860  0.453390  0.029508
    C   C32  0.208700  0.272120  0.498070  0.055899
    H   H28  0.159880  0.258360  0.544020  0.023540
    H   H29  0.231220  0.327530  0.497840  -0.070681
    H   H30  0.150370  0.257700  0.452270  0.029903
    C   C33  0.791070  0.500670  0.727320  -0.048326
    H   H31  0.839850  0.454830  0.741040  0.051883
    H   H32  0.768550  0.500780  0.671950  -0.002813
    H   H33  0.849450  0.546580  0.741560  0.050953
    C   C34  0.209050  0.499190  0.272960  -0.029224
    H   H34  0.150850  0.453170  0.258900  0.038483
    H   H35  0.231600  0.499320  0.328330  -0.050344
    H   H36  0.160070  0.544910  0.259060  0.041872
