# generated using pymatgen
data_LiZn2H11C27(ClO3)3
_symmetry_space_group_name_H-M   'P 1'
_cell_length_a   30.29250000
_cell_length_b   25.88950000
_cell_length_c   10.00000000
_cell_angle_alpha   90.00000000
_cell_angle_beta   90.00000000
_cell_angle_gamma   89.71250000
_symmetry_Int_Tables_number   1
_chemical_formula_structural   LiZn2H11C27(ClO3)3
_chemical_formula_sum   'Li4 Zn8 H44 C108 Cl12 O36'
_cell_volume   7842.47805542
_cell_formula_units_Z   4
loop_
 _symmetry_equiv_pos_site_id
 _symmetry_equiv_pos_as_xyz
  1  'x, y, z'
loop_
 _atom_site_type_symbol
 _atom_site_label
 _atom_site_symmetry_multiplicity
 _atom_site_fract_x
 _atom_site_fract_y
 _atom_site_fract_z
 _atom_site_occupancy
  Li  Li1  1  0.38053000  0.82594000  0.13733000  1
  Li  Li2  1  0.35034000  0.67309000  0.04503000  1
  Li  Li3  1  0.11786000  0.82413000  0.86261000  1
  Li  Li4  1  0.14881000  0.67113000  0.95493000  1
  Zn  Zn1  1  0.50012000  0.49996000  0.33423000  1
  Zn  Zn2  1  0.49988000  0.50005000  0.66577000  1
  Zn  Zn3  1  0.99989000  0.49873000  0.66575000  1
  Zn  Zn4  1  0.00013000  0.49881000  0.33422000  1
  Zn  Zn5  1  0.49959000  0.91502000  0.66567000  1
  Zn  Zn6  1  0.49998000  0.91494000  0.33414000  1
  Zn  Zn7  1  0.99836000  0.91379000  0.33425000  1
  Zn  Zn8  1  0.99797000  0.91371000  0.66578000  1
  H  H1  1  0.71888000  0.49958000  0.29550000  1
  H  H2  1  0.78113000  0.49943000  0.70448000  1
  H  H3  1  0.85885000  0.49924000  0.29674000  1
  H  H4  1  0.78106000  0.49943000  0.29541000  1
  H  H5  1  0.64116000  0.49978000  0.70324000  1
  H  H6  1  0.71895000  0.49959000  0.70458000  1
  H  H7  1  0.28106000  0.49910000  0.29541000  1
  H  H8  1  0.21895000  0.49908000  0.70458000  1
  H  H9  1  0.14110000  0.49839000  0.29707000  1
  H  H10  1  0.21889000  0.49879000  0.29550000  1
  H  H11  1  0.35891000  0.49979000  0.70292000  1
  H  H12  1  0.28112000  0.49940000  0.70449000  1
  H  H13  1  0.44401000  0.79554000  0.33067000  1
  H  H14  1  0.44410000  0.62005000  0.33057000  1
  H  H15  1  0.54673000  0.66492000  0.64337000  1
  H  H16  1  0.54669000  0.74956000  0.64341000  1
  H  H17  1  0.50047000  0.24389000  0.29545000  1
  H  H18  1  0.49977000  0.17110000  0.70446000  1
  H  H19  1  0.50033000  0.08012000  0.29678000  1
  H  H20  1  0.50040000  0.17114000  0.29539000  1
  H  H21  1  0.49991000  0.33487000  0.70313000  1
  H  H22  1  0.49983000  0.24385000  0.70452000  1
  H  H23  1  0.05453000  0.79403000  0.66927000  1
  H  H24  1  0.05531000  0.61855000  0.66939000  1
  H  H25  1  0.95245000  0.66391000  0.35659000  1
  H  H26  1  0.95208000  0.74856000  0.35653000  1
  H  H27  1  0.00082000  0.24266000  0.70458000  1
  H  H28  1  0.00188000  0.16985000  0.29557000  1
  H  H29  1  0.00177000  0.07889000  0.70327000  1
  H  H30  1  0.00124000  0.16991000  0.70464000  1
  H  H31  1  0.00092000  0.33362000  0.29688000  1
  H  H32  1  0.00146000  0.24260000  0.29550000  1
  H  H33  1  0.71827000  0.91315000  0.70823000  1
  H  H34  1  0.78129000  0.91265000  0.30034000  1
  H  H35  1  0.85824000  0.91205000  0.70943000  1
  H  H36  1  0.78044000  0.91266000  0.70941000  1
  H  H37  1  0.64133000  0.91375000  0.29913000  1
  H  H38  1  0.71912000  0.91314000  0.29916000  1
  H  H39  1  0.28045000  0.91814000  0.70067000  1
  H  H40  1  0.21912000  0.91880000  0.29042000  1
  H  H41  1  0.14050000  0.92029000  0.69656000  1
  H  H42  1  0.21828000  0.91910000  0.69949000  1
  H  H43  1  0.35908000  0.91665000  0.29452000  1
  H  H44  1  0.28129000  0.91784000  0.29160000  1
  C  C1  1  0.50028000  0.39926000  0.50010000  1
  C  C2  1  0.58610000  0.49991000  0.50024000  1
  C  C3  1  0.49969000  0.60075000  0.49989000  1
  C  C4  1  0.41390000  0.49992000  0.49976000  1
  C  C5  1  0.00023000  0.39803000  0.49990000  1
  C  C6  1  0.91390000  0.49911000  0.49974000  1
  C  C7  1  0.99982000  0.59952000  0.50008000  1
  C  C8  1  0.08611000  0.49826000  0.50023000  1
  C  C9  1  0.49995000  0.01572000  0.49981000  1
  C  C10  1  0.58589000  0.91419000  0.50117000  1
  C  C11  1  0.49957000  0.81424000  0.50001000  1
  C  C12  1  0.41368000  0.91595000  0.49865000  1
  C  C13  1  0.99749000  0.01449000  0.50010000  1
  C  C14  1  0.91206000  0.91338000  0.49876000  1
  C  C15  1  0.99887000  0.81301000  0.49993000  1
  C  C16  1  0.08426000  0.91430000  0.50128000  1
  C  C17  1  0.63369000  0.49980000  0.50017000  1
  C  C18  1  0.86632000  0.49922000  0.49981000  1
  C  C19  1  0.65695000  0.49974000  0.38019000  1
  C  C20  1  0.70325000  0.49962000  0.37901000  1
  C  C21  1  0.84306000  0.49928000  0.61979000  1
  C  C22  1  0.79676000  0.49940000  0.62098000  1
  C  C23  1  0.84302000  0.49928000  0.37991000  1
  C  C24  1  0.79672000  0.49939000  0.37887000  1
  C  C25  1  0.65699000  0.49974000  0.62007000  1
  C  C26  1  0.70329000  0.49963000  0.62112000  1
  C  C27  1  0.72668000  0.49957000  0.50003000  1
  C  C28  1  0.77333000  0.49945000  0.49996000  1
  C  C29  1  0.36631000  0.49968000  0.49983000  1
  C  C30  1  0.13370000  0.49850000  0.50016000  1
  C  C31  1  0.34302000  0.49948000  0.37992000  1
  C  C32  1  0.29672000  0.49924000  0.37887000  1
  C  C33  1  0.15699000  0.49871000  0.62007000  1
  C  C34  1  0.20329000  0.49894000  0.62112000  1
  C  C35  1  0.15696000  0.49853000  0.38019000  1
  C  C36  1  0.20325000  0.49877000  0.37901000  1
  C  C37  1  0.34305000  0.49965000  0.61980000  1
  C  C38  1  0.29676000  0.49942000  0.62098000  1
  C  C39  1  0.27333000  0.49921000  0.49996000  1
  C  C40  1  0.22668000  0.49897000  0.50003000  1
  C  C41  1  0.49960000  0.75788000  0.49998000  1
  C  C42  1  0.47112000  0.73159000  0.41315000  1
  C  C43  1  0.52811000  0.73128000  0.58678000  1
  C  C44  1  0.44328000  0.75968000  0.32836000  1
  C  C45  1  0.41446000  0.73499000  0.24052000  1
  C  C46  1  0.49966000  0.65711000  0.49992000  1
  C  C47  1  0.52814000  0.68340000  0.58675000  1
  C  C48  1  0.47115000  0.68371000  0.41312000  1
  C  C49  1  0.44333000  0.65592000  0.32830000  1
  C  C50  1  0.41449000  0.68092000  0.24049000  1
  C  C51  1  0.50023000  0.34359000  0.50006000  1
  C  C52  1  0.50000000  0.07140000  0.49985000  1
  C  C53  1  0.50039000  0.31636000  0.38010000  1
  C  C54  1  0.50035000  0.26219000  0.37894000  1
  C  C55  1  0.49984000  0.09863000  0.61981000  1
  C  C56  1  0.49988000  0.15280000  0.62097000  1
  C  C57  1  0.50021000  0.09865000  0.37993000  1
  C  C58  1  0.50026000  0.15282000  0.37886000  1
  C  C59  1  0.50002000  0.31634000  0.61998000  1
  C  C60  1  0.49997000  0.26217000  0.62105000  1
  C  C61  1  0.50014000  0.23478000  0.49998000  1
  C  C62  1  0.50009000  0.18020000  0.49993000  1
  C  C63  1  0.99912000  0.75664000  0.49997000  1
  C  C64  1  0.02773000  0.73022000  0.58680000  1
  C  C65  1  0.97074000  0.73019000  0.41317000  1
  C  C66  1  0.05544000  0.75817000  0.67159000  1
  C  C67  1  0.08438000  0.73334000  0.75943000  1
  C  C68  1  0.99957000  0.65588000  0.50004000  1
  C  C69  1  0.97096000  0.68230000  0.41320000  1
  C  C70  1  0.02795000  0.68233000  0.58684000  1
  C  C71  1  0.05590000  0.65441000  0.67166000  1
  C  C72  1  0.08462000  0.67927000  0.75946000  1
  C  C73  1  0.00056000  0.34235000  0.49995000  1
  C  C74  1  0.00214000  0.07016000  0.50020000  1
  C  C75  1  0.00053000  0.31513000  0.61991000  1
  C  C76  1  0.00084000  0.26096000  0.62108000  1
  C  C77  1  0.00217000  0.09738000  0.38023000  1
  C  C78  1  0.00185000  0.15155000  0.37907000  1
  C  C79  1  0.00179000  0.09742000  0.62011000  1
  C  C80  1  0.00148000  0.15159000  0.62118000  1
  C  C81  1  0.00090000  0.31510000  0.38004000  1
  C  C82  1  0.00122000  0.26093000  0.37897000  1
  C  C83  1  0.00119000  0.23355000  0.50005000  1
  C  C84  1  0.00151000  0.17897000  0.50010000  1
  C  C85  1  0.63347000  0.91381000  0.50207000  1
  C  C86  1  0.86609000  0.91199000  0.50649000  1
  C  C87  1  0.65650000  0.91363000  0.62245000  1
  C  C88  1  0.70279000  0.91327000  0.62445000  1
  C  C89  1  0.84306000  0.91217000  0.38611000  1
  C  C90  1  0.79677000  0.91253000  0.38412000  1
  C  C91  1  0.84257000  0.91218000  0.62599000  1
  C  C92  1  0.79627000  0.91254000  0.62622000  1
  C  C93  1  0.65700000  0.91363000  0.38258000  1
  C  C94  1  0.70330000  0.91327000  0.38234000  1
  C  C95  1  0.72646000  0.91309000  0.50384000  1
  C  C96  1  0.77311000  0.91272000  0.50473000  1
  C  C97  1  0.36610000  0.91668000  0.49774000  1
  C  C98  1  0.13348000  0.92026000  0.49334000  1
  C  C99  1  0.34257000  0.91713000  0.61724000  1
  C  C100  1  0.29627000  0.91784000  0.61748000  1
  C  C101  1  0.15701000  0.91981000  0.37385000  1
  C  C102  1  0.20330000  0.91910000  0.37361000  1
  C  C103  1  0.15651000  0.91999000  0.61372000  1
  C  C104  1  0.20280000  0.91928000  0.61571000  1
  C  C105  1  0.34306000  0.91695000  0.37737000  1
  C  C106  1  0.29677000  0.91766000  0.37538000  1
  C  C107  1  0.27311000  0.91811000  0.49598000  1
  C  C108  1  0.22647000  0.91883000  0.49510000  1
  Cl  Cl1  1  0.62788000  0.49981000  0.22781000  1
  Cl  Cl2  1  0.87213000  0.49921000  0.77218000  1
  Cl  Cl3  1  0.37204000  0.49951000  0.22745000  1
  Cl  Cl4  1  0.12797000  0.49867000  0.77254000  1
  Cl  Cl5  1  0.50066000  0.35036000  0.22770000  1
  Cl  Cl6  1  0.49957000  0.06463000  0.77221000  1
  Cl  Cl7  1  0.00009000  0.34914000  0.77231000  1
  Cl  Cl8  1  0.00260000  0.06338000  0.22784000  1
  Cl  Cl9  1  0.62714000  0.91386000  0.77433000  1
  Cl  Cl10  1  0.87242000  0.91194000  0.23424000  1
  Cl  Cl11  1  0.37130000  0.91680000  0.77022000  1
  Cl  Cl12  1  0.12827000  0.92014000  0.22087000  1
  O  O1  1  0.50051000  0.42547000  0.36422000  1
  O  O2  1  0.50009000  0.42555000  0.63602000  1
  O  O3  1  0.56355000  0.49997000  0.63618000  1
  O  O4  1  0.56378000  0.49997000  0.36437000  1
  O  O5  1  0.49957000  0.57454000  0.63578000  1
  O  O6  1  0.49983000  0.57446000  0.36398000  1
  O  O7  1  0.43645000  0.49994000  0.36382000  1
  O  O8  1  0.43622000  0.50013000  0.63563000  1
  O  O9  1  0.99987000  0.42424000  0.63578000  1
  O  O10  1  0.00029000  0.42432000  0.36397000  1
  O  O11  1  0.93646000  0.49905000  0.36380000  1
  O  O12  1  0.93623000  0.49905000  0.63562000  1
  O  O13  1  0.00007000  0.57330000  0.36419000  1
  O  O14  1  0.99981000  0.57323000  0.63600000  1
  O  O15  1  0.06356000  0.49839000  0.63617000  1
  O  O16  1  0.06379000  0.49858000  0.36435000  1
  O  O17  1  0.49996000  0.98951000  0.63569000  1
  O  O18  1  0.50005000  0.98943000  0.36388000  1
  O  O19  1  0.56359000  0.91436000  0.36483000  1
  O  O20  1  0.56330000  0.91436000  0.63665000  1
  O  O21  1  0.49969000  0.84045000  0.36412000  1
  O  O22  1  0.49943000  0.84053000  0.63593000  1
  O  O23  1  0.43598000  0.91571000  0.63498000  1
  O  O24  1  0.43626000  0.91551000  0.36316000  1
  O  O25  1  0.99762000  0.98828000  0.36422000  1
  O  O26  1  0.99753000  0.98821000  0.63603000  1
  O  O27  1  0.93436000  0.91345000  0.63509000  1
  O  O28  1  0.93465000  0.91344000  0.36327000  1
  O  O29  1  0.99863000  0.83922000  0.63582000  1
  O  O30  1  0.99888000  0.83929000  0.36401000  1
  O  O31  1  0.06197000  0.91416000  0.36495000  1
  O  O32  1  0.06168000  0.91397000  0.63676000  1
  O  O33  1  0.38864000  0.76118000  0.16189000  1
  O  O34  1  0.38869000  0.65501000  0.16183000  1
  O  O35  1  0.11008000  0.75941000  0.83806000  1
  O  O36  1  0.11055000  0.65323000  0.83813000  1
