# generated using pymatgen
data_AlH10C13N3O5
_symmetry_space_group_name_H-M   'P 1'
_cell_length_a   6.60720000
_cell_length_b   10.73040000
_cell_length_c   17.07400000
_cell_angle_alpha   91.43250000
_cell_angle_beta   97.83240000
_cell_angle_gamma   72.06890000
_symmetry_Int_Tables_number   1
_chemical_formula_structural   AlH10C13N3O5
_chemical_formula_sum   'Al2 H20 C26 N6 O10'
_cell_volume   1140.78406094
_cell_formula_units_Z   2
loop_
 _symmetry_equiv_pos_site_id
 _symmetry_equiv_pos_as_xyz
  1  'x, y, z'
loop_
 _atom_site_type_symbol
 _atom_site_label
 _atom_site_symmetry_multiplicity
 _atom_site_fract_x
 _atom_site_fract_y
 _atom_site_fract_z
 _atom_site_occupancy
  Al  Al1  1  0.00000000  0.50000000  0.50000000  1
  Al  Al2  1  0.50000000  0.50000000  0.50000000  1
  H  H1  1  0.82715000  0.39165000  0.56523000  1
  H  H2  1  0.17285000  0.60835000  0.43477000  1
  H  H3  1  0.33882000  0.50171000  0.26189000  1
  H  H4  1  0.28945000  0.50076000  0.11618000  1
  H  H5  1  0.93984000  0.50076000  0.11619000  1
  H  H6  1  0.06016000  0.49924000  0.88381000  1
  H  H7  1  0.71055000  0.49924000  0.88382000  1
  H  H8  1  0.66118000  0.49829000  0.73811000  1
  H  H9  1  0.60743000  0.22653000  0.40104000  1
  H  H10  1  0.84943000  0.12341000  0.31429000  1
  H  H11  1  0.82929000  0.78158000  0.39929000  1
  H  H12  1  0.96496000  0.89171000  0.31337000  1
  H  H13  1  0.12471000  0.43786000  0.32744000  1
  H  H14  1  0.13828000  0.56593000  0.25322000  1
  H  H15  1  0.94016000  0.43359000  0.67426000  1
  H  H16  1  0.79685000  0.56262000  0.74508000  1
  H  H17  1  0.45051000  0.77106000  0.63687000  1
  H  H18  1  0.16492000  0.89028000  0.61254000  1
  H  H19  1  0.06692000  0.21998000  0.58376000  1
  H  H20  1  0.22095000  0.09832000  0.66824000  1
  C  C1  1  0.36505000  0.27066000  0.50107000  1
  C  C2  1  0.29993000  0.49764000  0.63843000  1
  C  C3  1  0.63496000  0.72934000  0.49893000  1
  C  C4  1  0.70007000  0.50236000  0.36157000  1
  C  C5  1  0.66930000  0.50178000  0.27334000  1
  C  C6  1  0.47107000  0.50151000  0.23071000  1
  C  C7  1  0.44265000  0.50096000  0.14785000  1
  C  C8  1  0.61160000  0.50069000  0.10593000  1
  C  C9  1  0.80878000  0.50097000  0.14795000  1
  C  C10  1  0.83789000  0.50151000  0.23078000  1
  C  C11  1  0.19122000  0.49904000  0.85205000  1
  C  C12  1  0.38840000  0.49931000  0.89408000  1
  C  C13  1  0.55735000  0.49904000  0.85216000  1
  C  C14  1  0.52893000  0.49849000  0.76929000  1
  C  C15  1  0.33070000  0.49822000  0.72666000  1
  C  C16  1  0.16211000  0.49849000  0.76922000  1
  C  C17  1  0.43631000  0.12774000  0.50050000  1
  C  C18  1  0.58169000  0.06279000  0.44905000  1
  C  C19  1  0.35778000  0.05863000  0.55143000  1
  C  C20  1  0.65573000  0.13565000  0.39933000  1
  C  C21  1  0.80039000  0.07476000  0.34731000  1
  C  C22  1  0.56369000  0.87226000  0.49950000  1
  C  C23  1  0.41832000  0.93721000  0.55095000  1
  C  C24  1  0.64223000  0.94137000  0.44858000  1
  C  C25  1  0.78690000  0.87257000  0.39830000  1
  C  C26  1  0.86875000  0.93766000  0.34677000  1
  N  N1  1  0.58740000  0.50014000  0.02104000  1
  N  N2  1  0.41260000  0.49986000  0.97896000  1
  N  N3  1  0.05258000  0.50179000  0.27433000  1
  N  N4  1  0.94742000  0.49821000  0.72567000  1
  N  N5  1  0.33744000  0.85930000  0.60488000  1
  N  N6  1  0.20141000  0.13213000  0.60596000  1
  O  O1  1  0.16155000  0.33041000  0.50130000  1
  O  O2  1  0.46106000  0.49741000  0.60236000  1
  O  O3  1  0.49104000  0.66959000  0.49870000  1
  O  O4  1  0.88637000  0.50260000  0.39764000  1
  O  O5  1  0.83846000  0.66959000  0.49870000  1
  O  O6  1  0.53895000  0.50260000  0.39764000  1
  O  O7  1  0.50897000  0.33041000  0.50130000  1
  O  O8  1  0.11364000  0.49741000  0.60236000  1
  O  O9  1  0.77905000  0.45920000  0.52456000  1
  O  O10  1  0.22095000  0.54080000  0.47544000  1
