# generated using pymatgen
data_CuH6(C3N4)2
_symmetry_space_group_name_H-M   'P 1'
_cell_length_a   23.17010000
_cell_length_b   21.92360000
_cell_length_c   7.05280000
_cell_angle_alpha   90.00000000
_cell_angle_beta   90.00000000
_cell_angle_gamma   121.89900000
_symmetry_Int_Tables_number   1
_chemical_formula_structural   CuH6(C3N4)2
_chemical_formula_sum   'Cu8 H48 C48 N64'
_cell_volume   3041.58019399
_cell_formula_units_Z   8
loop_
 _symmetry_equiv_pos_site_id
 _symmetry_equiv_pos_as_xyz
  1  'x, y, z'
loop_
 _atom_site_type_symbol
 _atom_site_label
 _atom_site_symmetry_multiplicity
 _atom_site_fract_x
 _atom_site_fract_y
 _atom_site_fract_z
 _atom_site_occupancy
  Cu  Cu1  1  0.50000000  0.50000000  0.00000000  1
  Cu  Cu2  1  0.50000000  0.50000000  0.50000000  1
  Cu  Cu3  1  0.50000000  0.00000000  0.84600000  1
  Cu  Cu4  1  0.50000000  0.00000000  0.34600000  1
  Cu  Cu5  1  0.00000000  0.00000000  0.15400000  1
  Cu  Cu6  1  0.00000000  0.00000000  0.65400000  1
  Cu  Cu7  1  0.00000000  0.50000000  0.00000000  1
  Cu  Cu8  1  0.00000000  0.50000000  0.50000000  1
  H  H1  1  0.53990000  0.76844000  0.32787000  1
  H  H2  1  0.49998000  0.69102000  0.41526000  1
  H  H3  1  0.46021000  0.72399000  0.32764000  1
  H  H4  1  0.53989000  0.77621000  0.01814000  1
  H  H5  1  0.49981000  0.80887000  0.93074000  1
  H  H6  1  0.46020000  0.73147000  0.01836000  1
  H  H7  1  0.46009000  0.23155000  0.82787000  1
  H  H8  1  0.50002000  0.30898000  0.91526000  1
  H  H9  1  0.53979000  0.27601000  0.82764000  1
  H  H10  1  0.46011000  0.22379000  0.51814000  1
  H  H11  1  0.50019000  0.19113000  0.43074000  1
  H  H12  1  0.53980000  0.26853000  0.51836000  1
  H  H13  1  0.72854000  0.76844000  0.67213000  1
  H  H14  1  0.69104000  0.69102000  0.58474000  1
  H  H15  1  0.76378000  0.72399000  0.67236000  1
  H  H16  1  0.73632000  0.77621000  0.98186000  1
  H  H17  1  0.80905000  0.80887000  0.06926000  1
  H  H18  1  0.77127000  0.73147000  0.98164000  1
  H  H19  1  0.27146000  0.23155000  0.17213000  1
  H  H20  1  0.30896000  0.30898000  0.08474000  1
  H  H21  1  0.23622000  0.27601000  0.17236000  1
  H  H22  1  0.26368000  0.22379000  0.48186000  1
  H  H23  1  0.19095000  0.19113000  0.56926000  1
  H  H24  1  0.22873000  0.26853000  0.48164000  1
  H  H25  1  0.27146000  0.73155000  0.51814000  1
  H  H26  1  0.30896000  0.80898000  0.43074000  1
  H  H27  1  0.23622000  0.77601000  0.51836000  1
  H  H28  1  0.26368000  0.72379000  0.82787000  1
  H  H29  1  0.19095000  0.69113000  0.91526000  1
  H  H30  1  0.22873000  0.76853000  0.82764000  1
  H  H31  1  0.72854000  0.26845000  0.01814000  1
  H  H32  1  0.69104000  0.19102000  0.93074000  1
  H  H33  1  0.76378000  0.22399000  0.01836000  1
  H  H34  1  0.73632000  0.27621000  0.32787000  1
  H  H35  1  0.80905000  0.30887000  0.41526000  1
  H  H36  1  0.77127000  0.23147000  0.32764000  1
  H  H37  1  0.96009000  0.73155000  0.48186000  1
  H  H38  1  0.00002000  0.80898000  0.56926000  1
  H  H39  1  0.03979000  0.77601000  0.48164000  1
  H  H40  1  0.96011000  0.72379000  0.17213000  1
  H  H41  1  0.00019000  0.69113000  0.08474000  1
  H  H42  1  0.03980000  0.76853000  0.17236000  1
  H  H43  1  0.03990000  0.26845000  0.98186000  1
  H  H44  1  0.99998000  0.19102000  0.06926000  1
  H  H45  1  0.96021000  0.22399000  0.98164000  1
  H  H46  1  0.03989000  0.27621000  0.67213000  1
  H  H47  1  0.99981000  0.30887000  0.58474000  1
  H  H48  1  0.96020000  0.23147000  0.67236000  1
  C  C1  1  0.66616000  0.66627000  0.25000000  1
  C  C2  1  0.49988000  0.33372000  0.25000000  1
  C  C3  1  0.33384000  0.33372000  0.75000000  1
  C  C4  1  0.50012000  0.66627000  0.75000000  1
  C  C5  1  0.33384000  0.83372000  0.09600000  1
  C  C6  1  0.50012000  0.16628000  0.09600000  1
  C  C7  1  0.66616000  0.16628000  0.59600000  1
  C  C8  1  0.49988000  0.83372000  0.59600000  1
  C  C9  1  0.99988000  0.83372000  0.90400000  1
  C  C10  1  0.16616000  0.16628000  0.90400000  1
  C  C11  1  0.00012000  0.16628000  0.40400000  1
  C  C12  1  0.83384000  0.83372000  0.40400000  1
  C  C13  1  0.00012000  0.66627000  0.75000000  1
  C  C14  1  0.83384000  0.33372000  0.75000000  1
  C  C15  1  0.99988000  0.33372000  0.25000000  1
  C  C16  1  0.16616000  0.66627000  0.25000000  1
  C  C17  1  0.49998000  0.76661000  0.59339000  1
  C  C18  1  0.50002000  0.73339000  0.75261000  1
  C  C19  1  0.50002000  0.23339000  0.09339000  1
  C  C20  1  0.49998000  0.26661000  0.25261000  1
  C  C21  1  0.76664000  0.76661000  0.40661000  1
  C  C22  1  0.73336000  0.73339000  0.24739000  1
  C  C23  1  0.23336000  0.23339000  0.90661000  1
  C  C24  1  0.26664000  0.26661000  0.74739000  1
  C  C25  1  0.23336000  0.73339000  0.25261000  1
  C  C26  1  0.26664000  0.76661000  0.09339000  1
  C  C27  1  0.76664000  0.26661000  0.75261000  1
  C  C28  1  0.73336000  0.23339000  0.59339000  1
  C  C29  1  0.00002000  0.73339000  0.74739000  1
  C  C30  1  0.99998000  0.76661000  0.90661000  1
  C  C31  1  0.99998000  0.26661000  0.24739000  1
  C  C32  1  0.00002000  0.23339000  0.40661000  1
  C  C33  1  0.50002000  0.73445000  0.39734000  1
  C  C34  1  0.49998000  0.76555000  0.94867000  1
  C  C35  1  0.49998000  0.26555000  0.89734000  1
  C  C36  1  0.50002000  0.23445000  0.44867000  1
  C  C37  1  0.73443000  0.73445000  0.60267000  1
  C  C38  1  0.76557000  0.76555000  0.05133000  1
  C  C39  1  0.26557000  0.26555000  0.10267000  1
  C  C40  1  0.23443000  0.23445000  0.55133000  1
  C  C41  1  0.26557000  0.76555000  0.44867000  1
  C  C42  1  0.23443000  0.73445000  0.89734000  1
  C  C43  1  0.73443000  0.23445000  0.94867000  1
  C  C44  1  0.76557000  0.26555000  0.39734000  1
  C  C45  1  0.99998000  0.76555000  0.55133000  1
  C  C46  1  0.00002000  0.73445000  0.10267000  1
  C  C47  1  0.00002000  0.23445000  0.05133000  1
  C  C48  1  0.99998000  0.26555000  0.60267000  1
  N  N1  1  0.57636000  0.57575000  0.15620000  1
  N  N2  1  0.63246000  0.63263000  0.09290000  1
  N  N3  1  0.50061000  0.42425000  0.34380000  1
  N  N4  1  0.49983000  0.36737000  0.40710000  1
  N  N5  1  0.42364000  0.42425000  0.65620000  1
  N  N6  1  0.36754000  0.36737000  0.59290000  1
  N  N7  1  0.49939000  0.57575000  0.84380000  1
  N  N8  1  0.50017000  0.63263000  0.90710000  1
  N  N9  1  0.42364000  0.42425000  0.84380000  1
  N  N10  1  0.36754000  0.36737000  0.90710000  1
  N  N11  1  0.49939000  0.57575000  0.65620000  1
  N  N12  1  0.50017000  0.63263000  0.59290000  1
  N  N13  1  0.57636000  0.57575000  0.34380000  1
  N  N14  1  0.63246000  0.63263000  0.40710000  1
  N  N15  1  0.50061000  0.42425000  0.15620000  1
  N  N16  1  0.49983000  0.36737000  0.09290000  1
  N  N17  1  0.42364000  0.92425000  0.00220000  1
  N  N18  1  0.36754000  0.86737000  0.93890000  1
  N  N19  1  0.49939000  0.07575000  0.18980000  1
  N  N20  1  0.50017000  0.13263000  0.25310000  1
  N  N21  1  0.57636000  0.07575000  0.50220000  1
  N  N22  1  0.63246000  0.13263000  0.43890000  1
  N  N23  1  0.50061000  0.92425000  0.68980000  1
  N  N24  1  0.49983000  0.86737000  0.75310000  1
  N  N25  1  0.57636000  0.07575000  0.68980000  1
  N  N26  1  0.63246000  0.13263000  0.75310000  1
  N  N27  1  0.50061000  0.92425000  0.50220000  1
  N  N28  1  0.49983000  0.86737000  0.43890000  1
  N  N29  1  0.42364000  0.92425000  0.18980000  1
  N  N30  1  0.36754000  0.86737000  0.25310000  1
  N  N31  1  0.49939000  0.07575000  0.00220000  1
  N  N32  1  0.50017000  0.13263000  0.93890000  1
  N  N33  1  0.00061000  0.92425000  0.99780000  1
  N  N34  1  0.99983000  0.86737000  0.06110000  1
  N  N35  1  0.07636000  0.07575000  0.81020000  1
  N  N36  1  0.13246000  0.13263000  0.74690000  1
  N  N37  1  0.99939000  0.07575000  0.49780000  1
  N  N38  1  0.00017000  0.13263000  0.56110000  1
  N  N39  1  0.92364000  0.92425000  0.31020000  1
  N  N40  1  0.86754000  0.86737000  0.24690000  1
  N  N41  1  0.99939000  0.07575000  0.31020000  1
  N  N42  1  0.00017000  0.13263000  0.24690000  1
  N  N43  1  0.92364000  0.92425000  0.49780000  1
  N  N44  1  0.86754000  0.86737000  0.56110000  1
  N  N45  1  0.00061000  0.92425000  0.81020000  1
  N  N46  1  0.99983000  0.86737000  0.74690000  1
  N  N47  1  0.07636000  0.07575000  0.99780000  1
  N  N48  1  0.13246000  0.13263000  0.06110000  1
  N  N49  1  0.99939000  0.57575000  0.84380000  1
  N  N50  1  0.00017000  0.63263000  0.90710000  1
  N  N51  1  0.92364000  0.42425000  0.65620000  1
  N  N52  1  0.86754000  0.36737000  0.59290000  1
  N  N53  1  0.00061000  0.42425000  0.34380000  1
  N  N54  1  0.99983000  0.36737000  0.40710000  1
  N  N55  1  0.07636000  0.57575000  0.15620000  1
  N  N56  1  0.13246000  0.63263000  0.09290000  1
  N  N57  1  0.00061000  0.42425000  0.15620000  1
  N  N58  1  0.99983000  0.36737000  0.09290000  1
  N  N59  1  0.07636000  0.57575000  0.34380000  1
  N  N60  1  0.13246000  0.63263000  0.40710000  1
  N  N61  1  0.99939000  0.57575000  0.65620000  1
  N  N62  1  0.00017000  0.63263000  0.59290000  1
  N  N63  1  0.92364000  0.42425000  0.84380000  1
  N  N64  1  0.86754000  0.36737000  0.90710000  1
