# Generated by REPEAT Assigner based on pymatgen
data_DB1-Cu2O8N2-BDC_A-irmof8_A_No119
_audit_creation_date              2022-05-24
_audit_creation_method            REPEAT_Assigner
_cell_length_a                    23.690600
_cell_length_b                    10.700300
_cell_length_c                    9.129300
_cell_angle_alpha                 89.999200
_cell_angle_beta                  89.998700
_cell_angle_gamma                 89.892100
_cell_volume                      2314.241741
_symmetry_space_group_name_H-M    P1
_symmetry_Int_Tables_number       1
loop_
    _symmetry_equiv_pos_site_id
    _symmetry_equiv_pos_as_xyz
    1  x,y,z
loop_
    _atom_site_type_symbol
    _atom_site_label
    _atom_site_fract_x
    _atom_site_fract_y
    _atom_site_fract_z
    _atom_type_partial_charge
    Cu  Cu1  0.500000  0.499990  0.360600  0.873384
    Cu  Cu2  0.500000  0.499990  0.639390  1.024668
    O   O1   0.573400  0.499990  0.369990  -0.510197
    O   O2   0.426460  0.500360  0.370000  -0.551317
    O   O3   0.499870  0.662840  0.370000  -0.499565
    O   O4   0.499990  0.337520  0.370000  -0.459654
    O   O5   0.500120  0.337150  0.630000  -0.484752
    O   O6   0.500030  0.662470  0.629990  -0.484803
    O   O7   0.426550  0.500170  0.630000  -0.581290
    O   O8   0.573550  0.499580  0.629990  -0.594161
    C   C1   0.605870  0.499770  0.499990  0.448878
    C   C2   0.394140  0.500220  0.500010  0.587642
    C   C3   0.499960  0.734380  0.499990  0.571775
    C   C4   0.500050  0.265610  0.500000  0.549575
    Cu  Cu3  0.048330  0.499280  0.639440  0.875824
    Cu  Cu4  0.048330  0.500170  0.360650  1.045060
    O   O9   0.974940  0.499390  0.630050  -0.505369
    O   O10  0.121880  0.499610  0.630040  -0.547104
    O   O11  0.048230  0.662160  0.630750  -0.505225
    O   O12  0.048590  0.336840  0.629340  -0.471059
    O   O13  0.048460  0.337290  0.369340  -0.503415
    O   O14  0.048060  0.662610  0.370750  -0.493883
    O   O15  0.121790  0.500240  0.370050  -0.578795
    O   O16  0.974790  0.499800  0.370050  -0.595242
    C   C5   0.942470  0.499610  0.500050  0.443850
    C   C6   0.154200  0.499840  0.500040  0.580303
    C   C7   0.048020  0.734110  0.501060  0.576197
    C   C8   0.048640  0.265340  0.499030  0.556873
    N   N1   0.500000  0.499990  0.846570  -0.274572
    N   N2   0.500000  0.499990  0.153420  -0.221799
    C   C9   0.535830  0.420640  0.923810  0.208989
    C   C10  0.464180  0.579350  0.076180  0.136541
    C   C11  0.535830  0.420640  0.076180  0.136842
    C   C12  0.464180  0.579350  0.923810  0.144216
    C   C13  0.499980  0.869100  0.500000  -0.245619
    C   C14  0.500020  0.130890  0.500000  -0.267427
    C   C15  0.500080  0.934990  0.631380  0.046971
    C   C16  0.499930  0.064990  0.368620  0.100046
    C   C17  0.500100  0.064990  0.631380  0.101693
    C   C18  0.499910  0.935000  0.368620  0.055673
    C   C19  0.841860  0.499490  0.607250  -0.327833
    C   C20  0.862960  0.499880  0.350870  -0.288947
    C   C21  0.805670  0.499970  0.311240  0.185124
    C   C22  0.765280  0.499810  0.425900  0.096998
    C   C23  0.706470  0.499890  0.392800  -0.325205
    C   C24  0.685380  0.499500  0.649170  -0.283999
    C   C25  0.742660  0.499410  0.688800  0.183939
    C   C26  0.783060  0.499570  0.574140  0.096784
    C   C27  0.879970  0.499640  0.500040  0.110204
    C   C28  0.668360  0.499740  0.500010  0.106349
    H   H1   0.855060  0.499280  0.721880  0.170681
    H   H2   0.894930  0.499990  0.266360  0.252532
    H   H3   0.693270  0.500110  0.278170  0.169503
    H   H4   0.653400  0.499380  0.733660  0.250200
    C   C29  0.333290  0.500120  0.500010  -0.242536
    C   C30  0.215050  0.499940  0.500030  -0.232644
    C   C31  0.303520  0.500170  0.368640  0.072803
    C   C32  0.244810  0.499890  0.631400  0.062863
    C   C33  0.244810  0.500080  0.368650  0.062369
    C   C34  0.303530  0.499980  0.631400  0.071551
    N   N3   0.048330  0.500820  0.153480  -0.277518
    N   N4   0.048330  0.501790  0.846620  -0.221247
    C   C35  0.012630  0.421750  0.075890  0.209508
    C   C36  0.084040  0.580870  0.924210  0.140895
    C   C37  0.012630  0.422230  0.923520  0.140209
    C   C38  0.084040  0.580390  0.076580  0.146573
    C   C39  0.047800  0.868820  0.501640  -0.248570
    C   C40  0.047360  0.130620  0.502760  -0.266732
    C   C41  0.047600  0.935140  0.370540  0.053100
    C   C42  0.047560  0.064310  0.633860  0.103183
    C   C43  0.047390  0.065130  0.371100  0.095646
    C   C44  0.047780  0.934310  0.633300  0.055414
    C   C45  0.575980  0.331680  0.838800  -0.490656
    H   H5   0.614400  0.350240  0.864040  0.126061
    H   H6   0.570690  0.343150  0.735410  0.196020
    H   H7   0.567700  0.246650  0.864370  0.139407
    C   C46  0.424020  0.668300  0.161200  -0.412392
    H   H8   0.432420  0.753350  0.135950  0.113559
    H   H9   0.429200  0.656570  0.264580  0.162778
    H   H10  0.385610  0.650000  0.135620  0.124626
    C   C47  0.575980  0.331680  0.161190  -0.311253
    H   H11  0.567580  0.246630  0.135950  0.079847
    H   H12  0.570810  0.343420  0.264580  0.142677
    H   H13  0.614400  0.349990  0.135620  0.085525
    C   C48  0.424020  0.668300  0.838800  -0.401635
    H   H14  0.385600  0.649750  0.864050  0.121441
    H   H15  0.429320  0.656840  0.735410  0.153374
    H   H16  0.432310  0.753340  0.864370  0.113295
    C   C49  0.500160  0.862460  0.778650  -0.185022
    H   H17  0.533330  0.883830  0.833550  0.036346
    H   H18  0.500050  0.774250  0.759450  0.132226
    H   H19  0.467160  0.884440  0.834030  0.068108
    C   C50  0.499840  0.137530  0.221350  -0.240341
    H   H20  0.532930  0.115830  0.166160  0.094617
    H   H21  0.499780  0.225740  0.240560  0.128181
    H   H22  0.466760  0.115870  0.166260  0.049623
    C   C51  0.500210  0.137510  0.778660  -0.216623
    H   H23  0.467110  0.116140  0.833850  0.044107
    H   H24  0.500290  0.225720  0.759450  0.122208
    H   H25  0.533280  0.115530  0.833740  0.078354
    C   C52  0.499800  0.862470  0.221340  -0.203605
    H   H26  0.466640  0.884170  0.166450  0.071673
    H   H27  0.499890  0.774260  0.240550  0.153772
    H   H28  0.532810  0.884130  0.165960  0.036377
    C   C53  0.336280  0.500330  0.221360  -0.210372
    H   H29  0.326640  0.427010  0.166240  0.056668
    H   H30  0.376120  0.500570  0.240560  0.153533
    H   H31  0.326340  0.573520  0.166200  0.053548
    C   C54  0.212050  0.499730  0.778690  -0.195772
    H   H32  0.221870  0.426350  0.833650  0.052809
    H   H33  0.172210  0.499870  0.759490  0.149558
    H   H34  0.221820  0.572860  0.833990  0.049631
    C   C55  0.212050  0.500140  0.221380  -0.173774
    H   H35  0.221690  0.573540  0.166410  0.046063
    H   H36  0.172210  0.499870  0.240590  0.144342
    H   H37  0.221990  0.427030  0.166070  0.046490
    C   C56  0.336290  0.499920  0.778670  -0.187277
    H   H38  0.326480  0.573210  0.833790  0.049688
    H   H39  0.376130  0.499810  0.759460  0.147505
    H   H40  0.326520  0.426700  0.833830  0.050628
    C   C57  0.972600  0.332560  0.160520  -0.504417
    H   H41  0.934150  0.351240  0.135360  0.129250
    H   H42  0.977880  0.343700  0.263960  0.203919
    H   H43  0.981020  0.247600  0.134580  0.142811
    C   C58  0.124060  0.670050  0.839580  -0.440320
    H   H44  0.115530  0.755030  0.865190  0.124061
    H   H45  0.118900  0.658650  0.736140  0.168964
    H   H46  0.162500  0.651630  0.865070  0.131283
    C   C59  0.972600  0.333580  0.838130  -0.334434
    H   H47  0.981130  0.248450  0.863000  0.086893
    H   H48  0.977760  0.345640  0.734790  0.153628
    H   H49  0.934160  0.351850  0.863780  0.089610
    C   C60  0.124060  0.669030  0.161970  -0.421329
    H   H50  0.162510  0.650520  0.136650  0.127041
    H   H51  0.118780  0.657240  0.265310  0.158122
    H   H52  0.115650  0.754150  0.136770  0.119360
    C   C61  0.047630  0.863070  0.222960  -0.186737
    H   H53  0.014430  0.884650  0.168150  0.036743
    H   H54  0.047870  0.774800  0.241780  0.133704
    H   H55  0.080600  0.885190  0.167670  0.067231
    C   C62  0.047530  0.136370  0.781450  -0.244000
    H   H56  0.014480  0.114530  0.836540  0.093610
    H   H57  0.047460  0.224640  0.762620  0.132936
    H   H58  0.080650  0.114510  0.836440  0.050047
    C   C63  0.047170  0.138120  0.224140  -0.222618
    H   H59  0.080300  0.116890  0.168860  0.044659
    H   H60  0.046950  0.226270  0.243730  0.132588
    H   H61  0.014130  0.116350  0.168960  0.078218
    C   C64  0.047990  0.861320  0.780260  -0.202067
    H   H62  0.081120  0.882810  0.835250  0.071360
    H   H63  0.048040  0.773170  0.760680  0.154469
    H   H64  0.014950  0.882830  0.835740  0.037180
    O   O17  0.761410  0.499140  0.846880  -0.474138
    H   H65  0.808220  0.499110  0.851870  0.339935
    O   O18  0.786920  0.500220  0.153160  -0.474987
    H   H66  0.740110  0.500240  0.148160  0.340537
