# generated using pymatgen
data_LiZn2H20(C11O3)3
_symmetry_space_group_name_H-M   'P 1'
_cell_length_a   30.43920000
_cell_length_b   28.40990000
_cell_length_c   10.00000000
_cell_angle_alpha   90.00000000
_cell_angle_beta   90.00000000
_cell_angle_gamma   89.71510000
_symmetry_Int_Tables_number   1
_chemical_formula_structural   LiZn2H20(C11O3)3
_chemical_formula_sum   'Li4 Zn8 H80 C132 O36'
_cell_volume   8647.63937244
_cell_formula_units_Z   4
loop_
 _symmetry_equiv_pos_site_id
 _symmetry_equiv_pos_as_xyz
  1  'x, y, z'
loop_
 _atom_site_type_symbol
 _atom_site_label
 _atom_site_symmetry_multiplicity
 _atom_site_fract_x
 _atom_site_fract_y
 _atom_site_fract_z
 _atom_site_occupancy
  Li  Li1  1  0.49922000  0.68930000  0.94469000  1
  Li  Li2  1  0.50002000  0.77502000  0.05524000  1
  Li  Li3  1  0.99978000  0.68815000  0.05524000  1
  Li  Li4  1  0.99852000  0.77390000  0.94467000  1
  Zn  Zn1  1  0.50012000  0.49997000  0.33423000  1
  Zn  Zn2  1  0.49988000  0.50005000  0.66577000  1
  Zn  Zn3  1  0.99989000  0.49884000  0.66575000  1
  Zn  Zn4  1  0.00013000  0.49891000  0.33422000  1
  Zn  Zn5  1  0.49956000  0.96434000  0.66570000  1
  Zn  Zn6  1  0.49995000  0.96426000  0.33417000  1
  Zn  Zn7  1  0.99797000  0.96321000  0.33416000  1
  Zn  Zn8  1  0.99758000  0.96314000  0.66569000  1
  H  H1  1  0.64602000  0.49978000  0.30332000  1
  H  H2  1  0.64609000  0.49979000  0.69698000  1
  H  H3  1  0.85399000  0.49932000  0.69666000  1
  H  H4  1  0.85392000  0.49931000  0.30300000  1
  H  H5  1  0.74008000  0.55546000  0.27959000  1
  H  H6  1  0.70655000  0.51415000  0.17438000  1
  H  H7  1  0.74046000  0.44368000  0.72043000  1
  H  H8  1  0.70673000  0.48514000  0.82574000  1
  H  H9  1  0.75963000  0.55542000  0.72038000  1
  H  H10  1  0.79338000  0.51397000  0.82560000  1
  H  H11  1  0.75985000  0.44363000  0.27957000  1
  H  H12  1  0.79335000  0.48494000  0.17425000  1
  H  H13  1  0.35392000  0.49952000  0.30301000  1
  H  H14  1  0.35398000  0.49978000  0.69667000  1
  H  H15  1  0.14609000  0.49882000  0.69697000  1
  H  H16  1  0.14603000  0.49856000  0.30331000  1
  H  H17  1  0.26019000  0.44318000  0.27987000  1
  H  H18  1  0.29345000  0.48464000  0.17433000  1
  H  H19  1  0.25929000  0.55525000  0.72009000  1
  H  H20  1  0.29329000  0.51410000  0.82553000  1
  H  H21  1  0.24079000  0.44338000  0.72072000  1
  H  H22  1  0.20682000  0.48468000  0.82581000  1
  H  H23  1  0.23975000  0.55487000  0.27929000  1
  H  H24  1  0.20647000  0.51326000  0.17430000  1
  H  H25  1  0.49940000  0.79961000  0.70253000  1
  H  H26  1  0.49977000  0.83286000  0.28669000  1
  H  H27  1  0.49984000  0.66470000  0.29740000  1
  H  H28  1  0.49947000  0.63145000  0.71322000  1
  H  H29  1  0.50052000  0.34354000  0.30323000  1
  H  H30  1  0.49990000  0.34351000  0.69688000  1
  H  H31  1  0.49969000  0.12076000  0.69671000  1
  H  H32  1  0.50030000  0.12080000  0.30305000  1
  H  H33  1  0.55262000  0.24227000  0.28032000  1
  H  H34  1  0.51420000  0.27856000  0.17453000  1
  H  H35  1  0.44760000  0.24290000  0.71964000  1
  H  H36  1  0.48610000  0.27867000  0.82548000  1
  H  H37  1  0.55191000  0.22137000  0.72112000  1
  H  H38  1  0.51309000  0.18557000  0.82580000  1
  H  H39  1  0.44827000  0.22208000  0.27880000  1
  H  H40  1  0.48702000  0.18581000  0.17406000  1
  H  H41  1  0.99901000  0.79847000  0.29738000  1
  H  H42  1  0.99846000  0.83174000  0.71321000  1
  H  H43  1  0.99929000  0.66357000  0.70254000  1
  H  H44  1  0.99984000  0.63030000  0.28673000  1
  H  H45  1  0.00033000  0.34242000  0.69680000  1
  H  H46  1  0.00094000  0.34237000  0.30314000  1
  H  H47  1  0.00235000  0.11962000  0.30338000  1
  H  H48  1  0.00173000  0.11967000  0.69703000  1
  H  H49  1  0.94877000  0.24138000  0.71974000  1
  H  H50  1  0.98699000  0.27750000  0.82552000  1
  H  H51  1  0.05378000  0.24152000  0.28042000  1
  H  H52  1  0.01509000  0.27746000  0.17456000  1
  H  H53  1  0.94958000  0.22046000  0.27894000  1
  H  H54  1  0.98859000  0.18449000  0.17427000  1
  H  H55  1  0.05322000  0.22072000  0.72126000  1
  H  H56  1  0.01467000  0.18462000  0.82601000  1
  H  H57  1  0.64540000  0.96315000  0.69917000  1
  H  H58  1  0.64621000  0.96314000  0.30552000  1
  H  H59  1  0.85411000  0.96164000  0.30949000  1
  H  H60  1  0.85330000  0.96166000  0.70315000  1
  H  H61  1  0.73948000  0.90658000  0.72456000  1
  H  H62  1  0.70570000  0.94821000  0.82918000  1
  H  H63  1  0.74057000  0.01835000  0.28373000  1
  H  H64  1  0.70709000  0.97721000  0.17783000  1
  H  H65  1  0.75985000  0.90643000  0.28411000  1
  H  H66  1  0.79377000  0.94757000  0.17949000  1
  H  H67  1  0.75913000  0.01822000  0.72492000  1
  H  H68  1  0.79247000  0.97660000  0.83083000  1
  H  H69  1  0.35330000  0.96617000  0.69435000  1
  H  H70  1  0.35411000  0.96590000  0.30070000  1
  H  H71  1  0.14622000  0.96883000  0.29674000  1
  H  H72  1  0.14541000  0.96909000  0.69039000  1
  H  H73  1  0.25947000  0.02340000  0.71585000  1
  H  H74  1  0.29257000  0.98162000  0.82196000  1
  H  H75  1  0.25952000  0.91133000  0.27562000  1
  H  H76  1  0.29368000  0.95216000  0.17077000  1
  H  H77  1  0.24091000  0.02337000  0.27466000  1
  H  H78  1  0.20718000  0.98240000  0.16897000  1
  H  H79  1  0.23915000  0.91190000  0.71606000  1
  H  H80  1  0.20562000  0.95382000  0.82047000  1
  C  C1  1  0.50027000  0.40820000  0.50011000  1
  C  C2  1  0.58569000  0.49992000  0.50024000  1
  C  C3  1  0.49969000  0.59181000  0.49989000  1
  C  C4  1  0.41431000  0.49993000  0.49976000  1
  C  C5  1  0.00023000  0.40707000  0.49990000  1
  C  C6  1  0.91432000  0.49918000  0.49974000  1
  C  C7  1  0.99983000  0.59068000  0.50007000  1
  C  C8  1  0.08570000  0.49841000  0.50023000  1
  C  C9  1  0.49993000  0.05610000  0.49983000  1
  C  C10  1  0.58544000  0.96358000  0.50119000  1
  C  C11  1  0.49955000  0.87250000  0.50004000  1
  C  C12  1  0.41407000  0.96519000  0.49867000  1
  C  C13  1  0.99711000  0.05498000  0.50001000  1
  C  C14  1  0.91209000  0.96284000  0.49867000  1
  C  C15  1  0.99848000  0.87137000  0.49985000  1
  C  C16  1  0.08346000  0.96367000  0.50119000  1
  C  C17  1  0.72908000  0.51751000  0.26489000  1
  C  C18  1  0.72926000  0.48168000  0.73516000  1
  C  C19  1  0.77083000  0.51742000  0.73509000  1
  C  C20  1  0.77085000  0.48158000  0.26483000  1
  C  C21  1  0.66068000  0.49975000  0.38717000  1
  C  C22  1  0.70640000  0.49965000  0.38468000  1
  C  C23  1  0.66071000  0.49975000  0.61309000  1
  C  C24  1  0.70644000  0.49965000  0.61544000  1
  C  C25  1  0.83933000  0.49935000  0.61281000  1
  C  C26  1  0.79361000  0.49945000  0.61531000  1
  C  C27  1  0.83929000  0.49935000  0.38690000  1
  C  C28  1  0.79357000  0.49945000  0.38454000  1
  C  C29  1  0.63468000  0.49981000  0.50017000  1
  C  C30  1  0.72714000  0.49960000  0.50003000  1
  C  C31  1  0.86533000  0.49929000  0.49982000  1
  C  C32  1  0.77287000  0.49950000  0.49996000  1
  C  C33  1  0.27096000  0.48119000  0.26493000  1
  C  C34  1  0.27072000  0.51734000  0.73499000  1
  C  C35  1  0.22936000  0.48131000  0.73525000  1
  C  C36  1  0.22898000  0.51683000  0.26480000  1
  C  C37  1  0.33929000  0.49951000  0.38691000  1
  C  C38  1  0.29357000  0.49929000  0.38455000  1
  C  C39  1  0.33933000  0.49966000  0.61282000  1
  C  C40  1  0.29361000  0.49945000  0.61531000  1
  C  C41  1  0.16072000  0.49883000  0.61308000  1
  C  C42  1  0.20644000  0.49905000  0.61544000  1
  C  C43  1  0.16068000  0.49868000  0.38716000  1
  C  C44  1  0.20641000  0.49889000  0.38467000  1
  C  C45  1  0.36532000  0.49970000  0.49983000  1
  C  C46  1  0.27287000  0.49927000  0.49996000  1
  C  C47  1  0.13469000  0.49864000  0.50016000  1
  C  C48  1  0.22714000  0.49906000  0.50003000  1
  C  C49  1  0.49950000  0.78860000  0.59787000  1
  C  C50  1  0.49971000  0.80620000  0.36382000  1
  C  C51  1  0.49977000  0.75843000  0.32763000  1
  C  C52  1  0.49969000  0.72474000  0.43230000  1
  C  C53  1  0.49974000  0.67571000  0.40206000  1
  C  C54  1  0.49953000  0.65811000  0.63610000  1
  C  C55  1  0.49947000  0.70588000  0.67230000  1
  C  C56  1  0.49955000  0.73957000  0.56763000  1
  C  C57  1  0.49957000  0.82039000  0.50001000  1
  C  C58  1  0.49967000  0.64392000  0.49992000  1
  C  C59  1  0.51721000  0.25439000  0.26510000  1
  C  C60  1  0.48303000  0.25456000  0.73487000  1
  C  C61  1  0.51644000  0.20970000  0.73532000  1
  C  C62  1  0.48372000  0.20996000  0.26458000  1
  C  C63  1  0.50037000  0.32785000  0.38708000  1
  C  C64  1  0.50033000  0.27886000  0.38462000  1
  C  C65  1  0.50002000  0.32783000  0.61300000  1
  C  C66  1  0.49997000  0.27884000  0.61539000  1
  C  C67  1  0.49983000  0.13646000  0.61285000  1
  C  C68  1  0.49988000  0.18545000  0.61531000  1
  C  C69  1  0.50018000  0.13648000  0.38693000  1
  C  C70  1  0.50024000  0.18547000  0.38455000  1
  C  C71  1  0.50022000  0.35571000  0.50007000  1
  C  C72  1  0.50012000  0.25665000  0.49999000  1
  C  C73  1  0.49998000  0.10859000  0.49987000  1
  C  C74  1  0.50008000  0.20766000  0.49995000  1
  C  C75  1  0.99897000  0.78747000  0.40204000  1
  C  C76  1  0.99867000  0.80507000  0.63608000  1
  C  C77  1  0.99886000  0.75731000  0.67229000  1
  C  C78  1  0.99912000  0.72361000  0.56763000  1
  C  C79  1  0.99933000  0.67458000  0.59788000  1
  C  C80  1  0.99964000  0.65697000  0.36384000  1
  C  C81  1  0.99944000  0.70474000  0.32763000  1
  C  C82  1  0.99918000  0.73843000  0.43229000  1
  C  C83  1  0.99873000  0.81925000  0.49989000  1
  C  C84  1  0.99958000  0.64279000  0.50003000  1
  C  C85  1  0.98411000  0.25334000  0.73495000  1
  C  C86  1  0.01828000  0.25334000  0.26518000  1
  C  C87  1  0.98512000  0.20863000  0.26474000  1
  C  C88  1  0.01783000  0.20876000  0.73548000  1
  C  C89  1  0.00056000  0.32672000  0.61295000  1
  C  C90  1  0.00086000  0.27773000  0.61542000  1
  C  C91  1  0.00091000  0.32669000  0.38703000  1
  C  C92  1  0.00122000  0.27770000  0.38466000  1
  C  C93  1  0.00212000  0.13531000  0.38723000  1
  C  C94  1  0.00181000  0.18430000  0.38476000  1
  C  C95  1  0.00176000  0.13534000  0.61315000  1
  C  C96  1  0.00145000  0.18433000  0.61552000  1
  C  C97  1  0.00056000  0.35458000  0.49996000  1
  C  C98  1  0.00118000  0.25551000  0.50006000  1
  C  C99  1  0.00212000  0.10746000  0.50022000  1
  C  C100  1  0.00149000  0.20652000  0.50011000  1
  C  C101  1  0.72841000  0.94464000  0.73906000  1
  C  C102  1  0.72944000  0.98046000  0.26881000  1
  C  C103  1  0.77105000  0.94432000  0.26961000  1
  C  C104  1  0.77013000  0.98017000  0.73985000  1
  C  C105  1  0.66022000  0.96304000  0.61558000  1
  C  C106  1  0.70593000  0.96271000  0.61888000  1
  C  C107  1  0.66068000  0.96303000  0.38967000  1
  C  C108  1  0.70641000  0.96271000  0.38812000  1
  C  C109  1  0.83930000  0.96175000  0.39308000  1
  C  C110  1  0.79358000  0.96208000  0.38979000  1
  C  C111  1  0.83883000  0.96176000  0.61900000  1
  C  C112  1  0.79310000  0.96209000  0.62055000  1
  C  C113  1  0.63443000  0.96322000  0.50213000  1
  C  C114  1  0.72689000  0.96256000  0.50390000  1
  C  C115  1  0.86508000  0.96157000  0.50654000  1
  C  C116  1  0.77262000  0.96223000  0.50477000  1
  C  C117  1  0.27025000  0.98528000  0.73097000  1
  C  C118  1  0.27094000  0.94913000  0.26091000  1
  C  C119  1  0.22955000  0.98555000  0.25993000  1
  C  C120  1  0.22831000  0.95004000  0.73037000  1
  C  C121  1  0.33884000  0.96632000  0.61020000  1
  C  C122  1  0.29311000  0.96696000  0.61175000  1
  C  C123  1  0.33930000  0.96617000  0.38429000  1
  C  C124  1  0.29358000  0.96681000  0.38099000  1
  C  C125  1  0.16069000  0.96868000  0.38089000  1
  C  C126  1  0.20642000  0.96803000  0.37933000  1
  C  C127  1  0.16023000  0.96883000  0.60680000  1
  C  C128  1  0.20594000  0.96819000  0.61010000  1
  C  C129  1  0.36508000  0.96588000  0.49774000  1
  C  C130  1  0.27262000  0.96718000  0.49598000  1
  C  C131  1  0.13444000  0.96912000  0.49335000  1
  C  C132  1  0.22690000  0.96782000  0.49511000  1
  O  O1  1  0.50051000  0.43208000  0.36422000  1
  O  O2  1  0.50008000  0.43216000  0.63603000  1
  O  O3  1  0.56324000  0.49998000  0.63619000  1
  O  O4  1  0.56347000  0.49997000  0.36437000  1
  O  O5  1  0.49958000  0.56793000  0.63578000  1
  O  O6  1  0.49984000  0.56785000  0.36397000  1
  O  O7  1  0.43676000  0.49994000  0.36382000  1
  O  O8  1  0.43653000  0.50012000  0.63563000  1
  O  O9  1  0.99987000  0.43095000  0.63578000  1
  O  O10  1  0.00029000  0.43102000  0.36398000  1
  O  O11  1  0.93677000  0.49912000  0.36380000  1
  O  O12  1  0.93654000  0.49913000  0.63562000  1
  O  O13  1  0.00007000  0.56679000  0.36419000  1
  O  O14  1  0.99981000  0.56673000  0.63599000  1
  O  O15  1  0.06325000  0.49853000  0.63617000  1
  O  O16  1  0.06348000  0.49870000  0.36435000  1
  O  O17  1  0.49993000  0.03222000  0.63572000  1
  O  O18  1  0.50002000  0.03215000  0.36391000  1
  O  O19  1  0.56326000  0.96373000  0.36486000  1
  O  O20  1  0.56297000  0.96374000  0.63668000  1
  O  O21  1  0.49966000  0.89638000  0.36415000  1
  O  O22  1  0.49940000  0.89646000  0.63595000  1
  O  O23  1  0.43626000  0.96496000  0.63500000  1
  O  O24  1  0.43654000  0.96478000  0.36319000  1
  O  O25  1  0.99724000  0.03109000  0.36413000  1
  O  O26  1  0.99715000  0.03102000  0.63594000  1
  O  O27  1  0.93428000  0.96290000  0.63500000  1
  O  O28  1  0.93457000  0.96289000  0.36318000  1
  O  O29  1  0.99823000  0.89525000  0.63573000  1
  O  O30  1  0.99849000  0.89532000  0.36393000  1
  O  O31  1  0.06127000  0.96354000  0.36486000  1
  O  O32  1  0.06099000  0.96337000  0.63667000  1
  O  O33  1  0.49935000  0.71932000  0.79636000  1
  O  O34  1  0.49990000  0.74500000  0.20357000  1
  O  O35  1  0.99949000  0.71817000  0.20357000  1
  O  O36  1  0.99880000  0.74388000  0.79635000  1
