# Generated by REPEAT Assigner based on pymatgen
data_DB1-Cu2O8N2-TED-irmof10_No4
_audit_creation_date              2022-05-24
_audit_creation_method            REPEAT_Assigner
_cell_length_a                    14.940500
_cell_length_b                    14.935900
_cell_length_c                    9.615400
_cell_angle_alpha                 90.000000
_cell_angle_beta                  90.000000
_cell_angle_gamma                 90.110100
_cell_volume                      2145.670760
_symmetry_space_group_name_H-M    P1
_symmetry_Int_Tables_number       1
loop_
    _symmetry_equiv_pos_site_id
    _symmetry_equiv_pos_as_xyz
    1  x,y,z
loop_
    _atom_site_type_symbol
    _atom_site_label
    _atom_site_fract_x
    _atom_site_fract_y
    _atom_site_fract_z
    _atom_type_partial_charge
    O   O1   0.500000  0.623170  0.385260  -0.616134
    O   O2   0.500000  0.623170  0.614740  -0.615909
    O   O3   0.500000  0.377310  0.385550  -0.590030
    O   O4   0.500000  0.377310  0.614450  -0.591530
    O   O5   0.377090  0.499160  0.385480  -0.669752
    O   O6   0.622920  0.499630  0.614510  -0.666411
    O   O7   0.377090  0.499160  0.614510  -0.674185
    O   O8   0.622920  0.499630  0.385480  -0.660907
    C   C1   0.334960  0.498690  0.500000  0.716274
    C   C2   0.665040  0.499330  0.500000  0.700517
    Cu  Cu1  0.500000  0.500330  0.358030  0.996404
    Cu  Cu2  0.500000  0.500330  0.641970  1.016039
    C   C3   0.500000  0.665230  0.500000  0.671886
    C   C4   0.500000  0.335180  0.500000  0.581643
    N   N1   0.235830  0.497870  0.500000  0.048416
    N   N2   0.764180  0.498890  0.500000  0.060876
    C   C5   0.188630  0.497970  0.375260  -0.076817
    C   C6   0.094760  0.498170  0.374100  -0.065823
    C   C7   0.811370  0.498780  0.624740  -0.084527
    C   C8   0.905240  0.498580  0.625890  -0.061280
    C   C9   0.811370  0.498780  0.375260  -0.130799
    C   C10  0.905240  0.498580  0.374100  -0.415592
    C   C11  0.188630  0.497970  0.624740  -0.118774
    C   C12  0.094760  0.498170  0.625890  -0.424725
    C   C13  0.047290  0.498280  0.500000  0.167502
    C   C14  0.952710  0.498480  0.500000  0.161216
    H   H1   0.220750  0.497900  0.288790  0.111943
    H   H2   0.779250  0.498850  0.711200  0.115161
    H   H3   0.779250  0.498850  0.288790  0.146217
    H   H4   0.936970  0.498510  0.287280  0.313743
    H   H5   0.220750  0.497900  0.711200  0.141856
    H   H6   0.063030  0.498240  0.712720  0.316990
    C   C15  0.577820  0.455290  0.080290  -0.079023
    C   C16  0.578340  0.455950  0.920000  -0.008324
    N   N3   0.500000  0.501860  0.851270  -0.035088
    C   C17  0.420900  0.456620  0.919380  0.002849
    C   C18  0.420430  0.456740  0.079710  -0.070901
    N   N4   0.499490  0.501410  0.148720  0.034345
    C   C19  0.500370  0.592510  0.080530  0.045650
    C   C20  0.500240  0.592760  0.920140  0.073885
    H   H7   0.642110  0.488380  0.118470  0.045038
    H   H8   0.576710  0.383170  0.119090  0.044612
    H   H9   0.580720  0.383710  0.881960  0.026284
    H   H10  0.640900  0.491970  0.881320  0.047236
    H   H11  0.418170  0.384200  0.882150  0.027014
    H   H12  0.356570  0.491410  0.885850  0.033147
    H   H13  0.416880  0.384400  0.117160  0.039294
    H   H14  0.358460  0.493400  0.118730  0.055672
    H   H15  0.562200  0.630320  0.117910  0.013273
    H   H16  0.438490  0.631560  0.113850  0.006752
    H   H17  0.438870  0.631200  0.883050  0.014365
    H   H18  0.562590  0.631390  0.887110  0.007730
    N   N5   0.500000  0.236090  0.500000  0.145631
    N   N6   0.500000  0.764290  0.500000  -0.015834
    C   C21  0.500000  0.188880  0.375260  -0.162196
    C   C22  0.500000  0.094980  0.374100  -0.032977
    C   C23  0.500000  0.811500  0.624740  -0.002948
    C   C24  0.500000  0.905400  0.625890  -0.102617
    C   C25  0.500000  0.811500  0.375260  -0.028941
    C   C26  0.500000  0.905400  0.374100  -0.484751
    C   C27  0.500000  0.188880  0.624740  -0.194785
    C   C28  0.500000  0.094980  0.625890  -0.387405
    C   C29  0.500000  0.047500  0.500000  0.149535
    C   C30  0.500000  0.952890  0.500000  0.191615
    H   H19  0.500000  0.221010  0.288790  0.152910
    H   H20  0.500000  0.779370  0.711200  0.081811
    H   H21  0.500000  0.779370  0.288790  0.103484
    H   H22  0.500000  0.937140  0.287280  0.335683
    H   H23  0.500000  0.221010  0.711200  0.176682
    H   H24  0.500000  0.063240  0.712720  0.304903
    Cl  Cl1  0.036590  0.498300  0.214940  -0.088451
    Cl  Cl2  0.963410  0.498460  0.785060  -0.089672
    Cl  Cl3  0.500000  0.036790  0.214940  -0.096303
    Cl  Cl4  0.500000  0.963590  0.785060  -0.082675
