# Generated by REPEAT Assigner based on pymatgen
data_DB1-Zn2O8N2-irmof14_A-irmof20_A_No34
_audit_creation_date              2022-05-24
_audit_creation_method            REPEAT_Assigner
_cell_length_a                    12.701700
_cell_length_b                    27.798700
_cell_length_c                    14.421900
_cell_angle_alpha                 90.041500
_cell_angle_beta                  89.875500
_cell_angle_gamma                 89.787300
_cell_volume                      5092.190979
_symmetry_space_group_name_H-M    P1
_symmetry_Int_Tables_number       1
loop_
    _symmetry_equiv_pos_site_id
    _symmetry_equiv_pos_as_xyz
    1  x,y,z
loop_
    _atom_site_type_symbol
    _atom_site_label
    _atom_site_fract_x
    _atom_site_fract_y
    _atom_site_fract_z
    _atom_type_partial_charge
    O   O1   0.500970  0.430630  0.594150  -0.647460
    O   O2   0.500440  0.430630  0.405680  -0.613312
    C   C1   0.500650  0.406180  0.499930  0.551921
    Zn  Zn1  0.500000  0.500010  0.614940  0.933309
    O   O3   0.651800  0.500030  0.405580  -0.475629
    O   O4   0.651870  0.500090  0.594060  -0.381512
    C   C2   0.705350  0.500040  0.499850  0.357022
    O   O5   0.499230  0.569390  0.405850  -0.392923
    O   O6   0.499360  0.569380  0.594320  -0.471132
    C   C3   0.499270  0.593830  0.500080  0.329435
    Zn  Zn2  0.500010  0.500010  0.385060  0.956922
    O   O7   0.348210  0.499890  0.594420  -0.560751
    O   O8   0.348140  0.500000  0.405940  -0.643117
    C   C4   0.294660  0.499810  0.500150  0.595718
    O   O9   0.500090  0.026290  0.405900  -0.651408
    O   O10  0.499830  0.026290  0.594370  -0.613263
    C   C5   0.499850  0.050730  0.500120  0.510892
    Zn  Zn3  0.499270  0.956910  0.385110  0.939647
    O   O11  0.651370  0.956460  0.593720  -0.520351
    O   O12  0.651170  0.956390  0.405250  -0.397625
    C   C6   0.704780  0.956290  0.499190  0.408603
    O   O13  0.498970  0.887530  0.594200  -0.601301
    O   O14  0.498830  0.887540  0.405730  -0.515528
    C   C7   0.498930  0.863090  0.499980  0.478806
    Zn  Zn4  0.499600  0.956920  0.614990  1.035566
    O   O15  0.347500  0.957470  0.406380  -0.564032
    O   O16  0.347700  0.957350  0.594860  -0.614468
    C   C8   0.294080  0.957700  0.500910  0.593574
    C   C9   0.566680  0.469760  0.800770  -0.103049
    C   C10  0.563420  0.471240  0.897800  0.058729
    C   C11  0.628470  0.441730  0.951270  -0.212695
    H   H1   0.612670  0.448890  0.770370  0.174496
    H   H2   0.674460  0.420860  0.920640  0.164286
    C   C12  0.433330  0.530260  0.801110  -0.120723
    C   C13  0.436600  0.528780  0.898130  0.078193
    C   C14  0.371560  0.558280  0.951940  -0.138700
    H   H3   0.387330  0.551120  0.770960  0.144044
    H   H4   0.325560  0.579150  0.921540  0.133066
    C   C15  0.433340  0.530250  0.199230  -0.129805
    C   C16  0.436610  0.528770  0.102200  0.086956
    C   C17  0.371560  0.558280  0.048730  -0.230288
    H   H5   0.387350  0.551120  0.229630  0.175954
    H   H6   0.325570  0.579150  0.079360  0.170805
    C   C18  0.566700  0.469760  0.198890  -0.168138
    C   C19  0.563430  0.471240  0.101870  0.114040
    C   C20  0.628470  0.441730  0.048060  -0.167001
    H   H7   0.612690  0.448890  0.229040  0.161421
    H   H8   0.674460  0.420860  0.078460  0.139399
    N   N1   0.500000  0.500010  0.750160  0.055945
    C   C21  0.500010  0.500010  0.954230  0.086386
    N   N2   0.500020  0.500000  0.249840  0.082569
    C   C22  0.500010  0.500010  0.045770  0.053551
    C   C23  0.499110  0.678660  0.426500  0.072618
    S   S1   0.499240  0.676520  0.606190  0.138552
    C   C24  0.499090  0.778260  0.573560  -0.131545
    H   H9   0.499120  0.788370  0.635080  0.175577
    S   S2   0.498960  0.780400  0.393860  0.155872
    C   C25  0.499200  0.647510  0.500060  -0.078069
    C   C26  0.499000  0.809410  0.500000  -0.110336
    C   C27  0.499130  0.728480  0.547420  0.034776
    C   C28  0.499060  0.728440  0.452640  -0.060298
    C   C29  0.500250  0.331690  0.417370  -0.227530
    C   C30  0.500150  0.281350  0.421440  0.126669
    C   C31  0.499860  0.253480  0.340880  -0.215362
    H   H10  0.500130  0.347370  0.360380  0.162957
    H   H11  0.499740  0.269290  0.283900  0.138955
    C   C32  0.500720  0.331770  0.582570  -0.203953
    C   C33  0.500590  0.281430  0.578550  0.104367
    C   C34  0.500750  0.253650  0.659140  -0.202051
    H   H12  0.500910  0.347510  0.639540  0.163777
    H   H13  0.500950  0.269510  0.716110  0.136157
    C   C35  0.500250  0.125230  0.582680  -0.264590
    C   C36  0.500350  0.175570  0.578610  0.145133
    C   C37  0.500640  0.203430  0.659170  -0.220078
    H   H14  0.500370  0.109550  0.639660  0.174212
    H   H15  0.500760  0.187630  0.716150  0.140200
    C   C38  0.499780  0.125150  0.417480  -0.222333
    C   C39  0.499910  0.175490  0.421500  0.109925
    C   C40  0.499750  0.203270  0.340910  -0.200849
    H   H16  0.499590  0.109410  0.360510  0.168608
    H   H17  0.499550  0.187410  0.283940  0.134930
    C   C41  0.500540  0.358070  0.499950  0.038870
    C   C42  0.500300  0.252210  0.500010  0.053016
    C   C43  0.499960  0.098850  0.500100  0.089965
    C   C44  0.500200  0.204710  0.500040  0.034343
    C   C45  0.890860  0.499990  0.573490  0.073960
    S   S3   0.886560  0.499930  0.393800  0.137591
    C   C46  0.109140  0.499860  0.426510  -0.104557
    H   H18  0.131400  0.499830  0.364990  0.169862
    S   S4   0.113450  0.499920  0.606200  0.136209
    C   C47  0.822830  0.499990  0.499910  -0.100682
    C   C48  0.177180  0.499860  0.500090  -0.174764
    C   C49  0.000150  0.499910  0.452610  0.029809
    C   C50  0.999860  0.499940  0.547390  -0.026504
    C   C51  0.565610  0.986970  0.198950  -0.119914
    C   C52  0.562210  0.985500  0.101940  0.063050
    C   C53  0.627110  0.014820  0.048150  -0.195916
    H   H19  0.611590  0.007700  0.229120  0.182639
    H   H20  0.673090  0.035560  0.078550  0.161688
    C   C54  0.432410  0.926860  0.199270  -0.132055
    C   C55  0.435540  0.928330  0.102230  0.081746
    C   C56  0.370490  0.899010  0.048750  -0.151395
    H   H21  0.386510  0.906120  0.229650  0.158824
    H   H22  0.324590  0.878270  0.079370  0.144306
    C   C57  0.431860  0.926860  0.801150  -0.149336
    C   C58  0.435260  0.928330  0.898170  0.117262
    C   C59  0.370360  0.899010  0.951960  -0.212773
    H   H23  0.385880  0.906130  0.770980  0.185036
    H   H24  0.324380  0.878280  0.921550  0.147595
    C   C60  0.565060  0.986980  0.800840  -0.146349
    C   C61  0.561930  0.985500  0.897870  0.116017
    C   C62  0.626980  0.014820  0.951360  -0.175207
    H   H25  0.610960  0.007710  0.770460  0.172618
    H   H26  0.672880  0.035560  0.920740  0.138887
    N   N3   0.499080  0.956910  0.249890  0.082410
    C   C63  0.498800  0.956920  0.045820  0.083190
    N   N4   0.498390  0.956920  0.750220  0.003719
    C   C64  0.498670  0.956920  0.954280  0.036171
    C   C65  0.890190  0.955800  0.424630  0.062985
    S   S5   0.886140  0.955880  0.604350  0.120311
    C   C66  0.108680  0.955310  0.570540  -0.128979
    H   H27  0.131020  0.955280  0.631950  0.169377
    S   S6   0.112730  0.955240  0.390820  0.145337
    C   C67  0.822260  0.956000  0.498550  -0.113217
    C   C68  0.176610  0.955120  0.496620  -0.181939
    C   C69  0.999650  0.955580  0.544980  0.060313
    C   C70  0.999220  0.955540  0.450200  -0.026995
    O   O17  0.430140  0.686450  0.258350  -0.344759
    O   O18  0.567920  0.622000  0.297150  -0.290337
    N   N5   0.499060  0.662240  0.326540  0.363920
    O   O19  0.907540  0.468590  0.741810  -0.333669
    O   O20  0.766610  0.531540  0.702630  -0.291955
    N   N6   0.854720  0.500040  0.673430  0.340606
    O   O21  0.906550  0.987160  0.256230  -0.339583
    O   O22  0.765830  0.924620  0.296110  -0.296079
    N   N7   0.853900  0.955860  0.324870  0.352000
