# Generated by REPEAT Assigner based on pymatgen
data_DB1-Cu2O8-irmof14_A-irmof20_A_No76
_audit_creation_date              2022-05-24
_audit_creation_method            REPEAT_Assigner
_cell_length_a                    29.794200
_cell_length_b                    40.430300
_cell_length_c                    10.000000
_cell_angle_alpha                 90.000000
_cell_angle_beta                  90.000000
_cell_angle_gamma                 42.661300
_cell_volume                      8163.051667
_symmetry_space_group_name_H-M    P1
_symmetry_Int_Tables_number       1
loop_
    _symmetry_equiv_pos_site_id
    _symmetry_equiv_pos_as_xyz
    1  x,y,z
loop_
    _atom_site_type_symbol
    _atom_site_label
    _atom_site_fract_x
    _atom_site_fract_y
    _atom_site_fract_z
    _atom_type_partial_charge
    Cu  Cu1   0.500000  0.500000  0.372740  1.156728
    Cu  Cu2   0.500000  0.500000  0.627260  1.231361
    O   O1    0.436540  0.563460  0.381310  -0.544365
    O   O2    0.563450  0.436410  0.381320  -0.603720
    O   O3    0.441650  0.499870  0.381320  -0.623772
    O   O4    0.558350  0.500010  0.381320  -0.619376
    O   O5    0.558360  0.500120  0.618680  -0.622551
    O   O6    0.441640  0.500010  0.618680  -0.680901
    O   O7    0.563450  0.436490  0.618680  -0.642230
    O   O8    0.436560  0.563600  0.618670  -0.341678
    C   C1    0.408550  0.591540  0.500000  0.484776
    C   C2    0.591450  0.408460  0.500010  0.660946
    C   C3    0.415890  0.499940  0.500000  0.578546
    C   C4    0.584110  0.500070  0.500000  0.542109
    Cu  Cu3   0.999870  0.500140  0.627290  1.145432
    Cu  Cu4   0.000110  0.499900  0.372780  1.203722
    O   O9    0.936670  0.563590  0.618260  -0.545454
    O   O10   0.063340  0.436540  0.619170  -0.604111
    O   O11   0.058490  0.499990  0.618720  -0.616769
    O   O12   0.941520  0.500130  0.618720  -0.606755
    O   O13   0.941500  0.500020  0.381360  -0.623375
    O   O14   0.058440  0.499920  0.381350  -0.665491
    O   O15   0.063420  0.436390  0.381810  -0.634154
    O   O16   0.936620  0.563490  0.380910  -0.331030
    C   C5    0.908740  0.591550  0.499380  0.495180
    C   C6    0.091230  0.408480  0.500690  0.672975
    C   C7    0.084220  0.499960  0.500030  0.556354
    C   C8    0.915750  0.500080  0.500030  0.526123
    Cu  Cu5   0.044020  0.956280  0.627310  1.162391
    Cu  Cu6   0.043710  0.956280  0.372790  1.198796
    O   O17   0.107440  0.892820  0.618740  -0.550838
    O   O18   0.980320  0.019870  0.618730  -0.600248
    O   O19   0.985640  0.956170  0.619380  -0.638729
    O   O20   0.102120  0.956520  0.618090  -0.643484
    O   O21   0.102070  0.956410  0.380730  -0.637770
    O   O22   0.985620  0.956020  0.382020  -0.640061
    O   O23   0.980170  0.019790  0.381370  -0.633248
    O   O24   0.107420  0.892690  0.381380  -0.623417
    C   C9    0.135440  0.864740  0.500050  0.621917
    C   C10   0.952290  0.047820  0.500050  0.627435
    C   C11   0.959980  0.955980  0.500980  0.616865
    C   C12   0.127750  0.956570  0.499120  0.643675
    Cu  Cu7   0.545440  0.956170  0.369450  1.175543
    Cu  Cu8   0.545520  0.956410  0.623970  1.199237
    O   O25   0.608670  0.892710  0.378480  -0.553233
    O   O26   0.482220  0.019770  0.377580  -0.600898
    O   O27   0.604040  0.956070  0.377380  -0.652222
    O   O28   0.486850  0.956420  0.378670  -0.642515
    O   O29   0.486900  0.956530  0.616030  -0.641793
    O   O30   0.604120  0.956150  0.614740  -0.639364
    O   O31   0.482300  0.019920  0.614930  -0.631148
    O   O32   0.608730  0.892810  0.615840  -0.619384
    C   C13   0.636600  0.864750  0.497370  0.612524
    C   C14   0.454360  0.047830  0.496060  0.629076
    C   C15   0.629950  0.956000  0.495780  0.631240
    C   C16   0.461010  0.956580  0.497640  0.657885
    C   C17   0.653520  0.500130  0.619130  -0.436910
    C   C18   0.700490  0.500120  0.613300  0.403764
    C   C19   0.726400  0.500180  0.729510  -0.574432
    H   H1    0.638830  0.500160  0.701300  0.263196
    H   H2    0.711590  0.500220  0.811680  0.382609
    C   C20   0.653640  0.500010  0.380880  -0.254666
    C   C21   0.700600  0.500020  0.386720  0.146253
    C   C22   0.726620  0.499960  0.270520  0.108209
    H   H3    0.639020  0.499970  0.298710  0.188364
    C   C23   0.846340  0.500020  0.380900  -0.446665
    C   C24   0.799380  0.500020  0.386730  0.410906
    C   C25   0.773470  0.499960  0.270520  -0.577300
    H   H4    0.861040  0.499980  0.298730  0.273394
    H   H5    0.788280  0.499920  0.188350  0.373892
    C   C26   0.846230  0.500130  0.619150  -0.269387
    C   C27   0.799260  0.500130  0.613310  0.161584
    C   C28   0.773240  0.500180  0.729520  0.096430
    H   H6    0.860840  0.500170  0.701320  0.191664
    C   C29   0.629000  0.500070  0.500010  0.127223
    C   C30   0.727780  0.500070  0.500020  -0.042725
    C   C31   0.870860  0.500070  0.500030  0.147765
    C   C32   0.772090  0.500070  0.500020  -0.063931
    C   C33   0.346340  0.500020  0.619130  -0.372877
    C   C34   0.299380  0.500020  0.613300  0.345185
    C   C35   0.273340  0.500090  0.729510  -0.543382
    H   H7    0.360950  0.500070  0.701300  0.245791
    H   H8    0.288060  0.500140  0.811680  0.371219
    C   C36   0.346490  0.499870  0.380890  -0.265219
    C   C37   0.299510  0.499880  0.386720  0.141375
    C   C38   0.273620  0.499810  0.270520  0.116461
    H   H9    0.361190  0.499820  0.298710  0.184619
    C   C39   0.153770  0.499880  0.380900  -0.402896
    C   C40   0.200730  0.499880  0.386730  0.362730
    C   C41   0.226770  0.499810  0.270520  -0.562693
    H   H10   0.139160  0.499830  0.298730  0.259694
    H   H11   0.212050  0.499760  0.188350  0.369199
    C   C42   0.153620  0.500030  0.619150  -0.287723
    C   C43   0.200590  0.500020  0.613310  0.163456
    C   C44   0.226490  0.500090  0.729520  0.089473
    H   H12   0.138920  0.500080  0.701320  0.198510
    C   C45   0.370990  0.499940  0.500010  0.097331
    C   C46   0.272210  0.499950  0.500020  -0.027000
    C   C47   0.129110  0.499960  0.500030  0.123494
    C   C48   0.227900  0.499950  0.500020  -0.049576
    C   C49   0.322530  0.677650  0.606090  0.045310
    S   S1    0.324630  0.675400  0.346940  0.170206
    C   C50   0.221450  0.778630  0.393970  -0.176915
    H   H13   0.211170  0.788860  0.305230  0.188780
    S   S2    0.219360  0.780890  0.653110  0.107997
    C   C51   0.354100  0.646010  0.500010  -0.218583
    C   C52   0.189880  0.810280  0.500040  -0.126817
    C   C53   0.271950  0.728140  0.431680  0.092098
    C   C54   0.272040  0.728140  0.568370  -0.071693
    C   C55   0.667070  0.332920  0.619140  -0.412082
    C   C56   0.718170  0.281850  0.613310  0.395338
    C   C57   0.746450  0.253620  0.729520  -0.601473
    H   H14   0.651140  0.348860  0.701310  0.250502
    H   H15   0.730400  0.269680  0.811690  0.387047
    C   C58   0.667000  0.332920  0.380890  -0.264396
    C   C59   0.718100  0.281850  0.386730  0.157780
    C   C60   0.746320  0.253610  0.270530  0.116442
    H   H16   0.651030  0.348860  0.298720  0.181539
    C   C61   0.876680  0.123360  0.380910  -0.402224
    C   C62   0.825580  0.174430  0.386740  0.368820
    C   C63   0.797300  0.202660  0.270530  -0.581263
    H   H17   0.892600  0.107420  0.298750  0.248586
    H   H18   0.813340  0.186600  0.188360  0.381905
    C   C64   0.876740  0.123360  0.619160  -0.258409
    C   C65   0.825640  0.174430  0.613320  0.138683
    C   C66   0.797420  0.202670  0.729530  0.127962
    H   H19   0.892710  0.107430  0.701340  0.180769
    C   C67   0.640290  0.359650  0.500010  0.042186
    C   C68   0.747770  0.252230  0.500020  -0.045071
    C   C69   0.903450  0.096630  0.500040  0.060637
    C   C70   0.795980  0.204050  0.500030  -0.022983
    C   C71   0.823000  0.677560  0.392680  0.089161
    S   S3    0.825160  0.675560  0.651840  0.166848
    C   C72   0.722340  0.778750  0.604070  -0.188517
    H   H20   0.712120  0.789060  0.692730  0.193669
    S   S4    0.720180  0.780750  0.344910  0.116182
    C   C73   0.854490  0.646020  0.498980  -0.232452
    C   C74   0.690860  0.810290  0.497770  -0.116470
    C   C75   0.772650  0.728220  0.566720  0.104224
    C   C76   0.772700  0.728090  0.430030  -0.101677
    C   C77   0.166500  0.332820  0.382100  -0.398557
    C   C78   0.217320  0.281760  0.388290  0.383310
    C   C79   0.245500  0.253410  0.272280  -0.588100
    H   H21   0.150690  0.348680  0.299810  0.246723
    H   H22   0.229570  0.269400  0.190000  0.381419
    C   C80   0.166340  0.333050  0.620340  -0.240320
    C   C81   0.217180  0.281970  0.614870  0.149164
    C   C82   0.245200  0.253840  0.731270  0.116662
    H   H23   0.150430  0.349060  0.702400  0.172274
    C   C83   0.374910  0.123490  0.621820  -0.399576
    C   C84   0.324090  0.174550  0.615630  0.369985
    C   C85   0.295910  0.202900  0.731630  -0.577657
    H   H24   0.390720  0.107630  0.704100  0.251794
    H   H25   0.311840  0.186910  0.813920  0.375586
    C   C86   0.375070  0.123260  0.383570  -0.264947
    C   C87   0.324230  0.174340  0.389050  0.152180
    C   C88   0.296210  0.202470  0.272640  0.117276
    H   H26   0.390980  0.107250  0.301520  0.181411
    C   C89   0.139820  0.359660  0.501030  0.019605
    C   C90   0.246720  0.252250  0.501790  -0.038763
    C   C91   0.401590  0.096640  0.502890  0.055479
    C   C92   0.294680  0.204060  0.502130  -0.030738
    C   C93   0.196830  0.956810  0.379220  -0.370356
    C   C94   0.243600  0.957010  0.384530  0.368764
    C   C95   0.269360  0.957070  0.268030  -0.586577
    H   H27   0.182170  0.956710  0.297210  0.235836
    H   H28   0.254590  0.956970  0.186030  0.386511
    C   C96   0.197010  0.956930  0.617470  -0.233870
    C   C97   0.243770  0.957120  0.611110  0.142708
    C   C98   0.269720  0.957290  0.727020  0.113396
    H   H29   0.182480  0.956900  0.699800  0.182723
    C   C99   0.388900  0.957740  0.615320  -0.356551
    C   C100  0.342130  0.957540  0.610000  0.374332
    C   C101  0.316370  0.957490  0.726500  -0.593521
    H   H30   0.403560  0.957840  0.697320  0.229508
    H   H31   0.331140  0.957590  0.808510  0.393178
    C   C102  0.388720  0.957630  0.377070  -0.216853
    C   C103  0.341960  0.957430  0.383430  0.138045
    C   C104  0.316010  0.957270  0.267510  0.119431
    H   H32   0.403250  0.957650  0.294730  0.173214
    C   C105  0.172440  0.956760  0.498620  0.038590
    C   C106  0.270800  0.957180  0.497520  -0.037430
    C   C107  0.413280  0.957790  0.495920  0.006490
    C   C108  0.314930  0.957370  0.497020  -0.030782
    C   C109  0.890740  0.955610  0.382620  -0.411404
    C   C110  0.843980  0.955410  0.388970  0.396752
    C   C111  0.818060  0.955220  0.273050  -0.600908
    H   H33   0.905280  0.955620  0.300290  0.250726
    H   H34   0.832720  0.955240  0.190720  0.384328
    C   C112  0.890890  0.955760  0.620870  -0.269060
    C   C113  0.844120  0.955550  0.615550  0.157734
    C   C114  0.818340  0.955510  0.732040  0.107809
    H   H35   0.905530  0.955870  0.702880  0.190575
    C   C115  0.699010  0.954920  0.622980  -0.380225
    C   C116  0.745770  0.955120  0.616640  0.358985
    C   C117  0.771690  0.955310  0.732550  -0.565131
    H   H36   0.684470  0.954910  0.705320  0.237588
    H   H37   0.757040  0.955300  0.814890  0.375877
    C   C118  0.698870  0.954780  0.384740  -0.259311
    C   C119  0.745630  0.954980  0.390060  0.142822
    C   C120  0.771410  0.955020  0.273570  0.124863
    H   H38   0.684220  0.954660  0.302730  0.187087
    C   C121  0.915290  0.955790  0.501480  0.070255
    C   C122  0.816940  0.955360  0.502560  -0.055738
    C   C123  0.674470  0.954740  0.504130  0.054777
    C   C124  0.772820  0.955170  0.503050  -0.026310
    Br  Br1   0.806070  0.500270  0.912630  -0.192528
    Br  Br2   0.693800  0.499870  0.087410  -0.195265
    Br  Br3   0.193460  0.500210  0.912630  -0.197949
    Br  Br4   0.306650  0.499690  0.087410  -0.199947
    Br  Br5   0.833280  0.166880  0.912640  -0.204736
    Br  Br6   0.710460  0.289400  0.087420  -0.204882
    Br  Br7   0.331950  0.166500  0.089790  -0.202573
    Br  Br8   0.209460  0.289810  0.914130  -0.202133
    Br  Br9   0.348640  0.957320  0.084040  -0.201570
    Br  Br10  0.237090  0.957240  0.910500  -0.202594
    Br  Br11  0.738530  0.954770  0.090820  -0.205560
    Br  Br12  0.851230  0.955770  0.914790  -0.206030
    S   S5    0.341810  0.658470  0.772490  0.939871
    O   O33   0.285110  0.663890  0.842330  -0.546527
    O   O34   0.412130  0.603100  0.789790  -0.478293
    H   H39   0.280040  0.676270  0.931580  0.405723
    O   O35   0.341190  0.691190  0.862820  -0.512003
    S   S6    0.842160  0.658220  0.226410  0.872125
    O   O36   0.888120  0.663570  0.156530  -0.532757
    O   O37   0.882380  0.602830  0.209510  -0.460377
    H   H40   0.868570  0.675870  0.067190  0.404493
    O   O38   0.777560  0.690860  0.135840  -0.494377
