# Generated by REPEAT Assigner based on pymatgen
data_DB1-Cu2O8N2-DPAC_A-fum_A_No180
_audit_creation_date              2022-05-24
_audit_creation_method            REPEAT_Assigner
_cell_length_a                    26.084700
_cell_length_b                    15.850000
_cell_length_c                    17.372200
_cell_angle_alpha                 89.994400
_cell_angle_beta                  89.868500
_cell_angle_gamma                 87.606900
_cell_volume                      7176.122790
_symmetry_space_group_name_H-M    P1
_symmetry_Int_Tables_number       1
loop_
    _symmetry_equiv_pos_site_id
    _symmetry_equiv_pos_as_xyz
    1  x,y,z
loop_
    _atom_site_type_symbol
    _atom_site_label
    _atom_site_fract_x
    _atom_site_fract_y
    _atom_site_fract_z
    _atom_type_partial_charge
    Cu  Cu1   0.500010  0.419710  0.500000  0.671522
    Cu  Cu2   0.500000  0.580290  0.499990  0.955990
    O   O1    0.566720  0.420550  0.499980  -0.241111
    O   O2    0.433150  0.429710  0.500240  -0.563207
    O   O3    0.499870  0.425130  0.600300  -0.371694
    O   O4    0.500010  0.425130  0.399920  -0.481158
    O   O5    0.500120  0.574880  0.399690  -0.653397
    O   O6    0.500020  0.574870  0.600070  -0.347328
    O   O7    0.433230  0.579460  0.500120  -0.361373
    O   O8    0.566850  0.570290  0.499720  -0.263516
    C   C1    0.596240  0.493400  0.499830  0.188200
    C   C2    0.403770  0.506600  0.500160  0.471380
    C   C3    0.499950  0.499990  0.644360  0.334590
    C   C4    0.500060  0.500010  0.355630  0.642589
    Cu  Cu3   0.833430  0.625970  0.499400  0.625196
    Cu  Cu4   0.833440  0.465390  0.499940  0.984783
    O   O9    0.766710  0.625140  0.499480  -0.227760
    O   O10   0.900280  0.615980  0.499580  -0.554645
    O   O11   0.833320  0.620970  0.599720  -0.370078
    O   O12   0.833680  0.620140  0.399340  -0.467485
    O   O13   0.833570  0.470400  0.399620  -0.646614
    O   O14   0.833170  0.471220  0.600000  -0.355624
    O   O15   0.900210  0.466230  0.499970  -0.369273
    O   O16   0.766580  0.475390  0.499740  -0.271394
    C   C5    0.737200  0.552280  0.499630  0.193948
    C   C6    0.929660  0.539080  0.499710  0.477377
    C   C7    0.833130  0.546280  0.644040  0.342361
    C   C8    0.833730  0.545090  0.355300  0.617650
    N   N1    0.500010  0.300380  0.500000  -0.103061
    C   C9    0.467070  0.256180  0.549470  0.197462
    C   C10   0.466970  0.167340  0.549620  -0.346625
    C   C11   0.500000  0.120060  0.500000  0.328485
    C   C12   0.533040  0.162800  0.450370  -0.212528
    C   C13   0.532950  0.251650  0.450520  0.165500
    C   C14   0.499990  0.037720  0.500000  -0.157218
    C   C15   0.499990  0.962280  0.500000  -0.017800
    C   C16   0.499990  0.879950  0.499990  0.161570
    C   C17   0.466940  0.837190  0.549600  -0.132837
    C   C18   0.467040  0.748340  0.549450  0.201762
    N   N2    0.499990  0.699620  0.499990  -0.210686
    C   C19   0.532940  0.743830  0.450530  0.297582
    C   C20   0.533040  0.832660  0.450390  -0.311534
    H   H1    0.442650  0.288690  0.586150  0.083918
    H   H2    0.442590  0.137840  0.586230  0.162842
    H   H3    0.557410  0.129960  0.413760  0.110932
    H   H4    0.442560  0.870030  0.586200  0.089423
    H   H5    0.557370  0.711320  0.413860  0.230188
    H   H6    0.557420  0.862170  0.413790  0.164351
    C   C21   0.500040  0.500000  0.274060  -0.207935
    C   C22   0.499970  0.423450  0.231680  0.084737
    C   C23   0.499960  0.423220  0.150620  -0.343349
    C   C24   0.500010  0.499990  0.109530  0.355087
    C   C25   0.500080  0.576770  0.150590  -0.332308
    C   C26   0.500100  0.576550  0.231650  0.272167
    C   C27   0.500000  0.499990  0.034410  -0.138953
    C   C28   0.499990  0.499980  0.965580  -0.117228
    C   C29   0.499970  0.499990  0.890460  0.278414
    C   C30   0.499890  0.423210  0.849390  -0.187150
    C   C31   0.499880  0.423440  0.768330  0.032652
    C   C32   0.499950  0.499990  0.725930  0.045363
    C   C33   0.500030  0.576540  0.768320  -0.004070
    C   C34   0.500040  0.576760  0.849380  -0.284433
    H   H7    0.499940  0.366700  0.259820  0.049176
    H   H8    0.499910  0.366570  0.122190  0.182285
    H   H9    0.500120  0.633420  0.122140  0.163796
    H   H10   0.499840  0.366560  0.877840  0.122948
    H   H11   0.500080  0.633290  0.740190  0.070204
    H   H12   0.500100  0.633410  0.877820  0.172681
    C   C35   0.680700  0.557310  0.499660  -0.128157
    C   C36   0.652730  0.488380  0.499800  -0.116434
    C   C37   0.984040  0.535360  0.499770  -0.075260
    C   C38   0.012290  0.609980  0.499720  -0.040265
    C   C39   0.066320  0.606510  0.499770  -0.321250
    C   C40   0.093700  0.527850  0.499880  0.341765
    C   C41   0.066330  0.452950  0.499940  -0.293949
    C   C42   0.012300  0.456870  0.499890  0.178581
    C   C43   0.143780  0.524430  0.499930  -0.141022
    C   C44   0.189660  0.521290  0.499980  -0.140144
    C   C45   0.239730  0.517850  0.500020  0.334413
    C   C46   0.267110  0.592760  0.499990  -0.285470
    C   C47   0.321140  0.588820  0.500040  0.169841
    C   C48   0.349400  0.510330  0.500120  -0.065254
    C   C49   0.321140  0.435720  0.500160  -0.048733
    C   C50   0.267110  0.439190  0.500110  -0.313572
    H   H13   0.993530  0.668020  0.499640  0.107245
    H   H14   0.085270  0.661870  0.499730  0.178861
    H   H15   0.085300  0.395000  0.500020  0.142527
    H   H16   0.248140  0.650710  0.499930  0.140219
    H   H17   0.339900  0.377680  0.500220  0.110145
    H   H18   0.248160  0.383840  0.500140  0.176847
    N   N3    0.833420  0.745310  0.502430  -0.080755
    C   C51   0.866240  0.789710  0.551700  0.187573
    C   C52   0.866340  0.878550  0.551540  -0.337585
    C   C53   0.833430  0.925630  0.501800  0.312305
    C   C54   0.800520  0.882680  0.452380  -0.196473
    C   C55   0.800610  0.793830  0.452830  0.149203
    C   C56   0.833440  0.007970  0.501520  -0.147991
    C   C57   0.833440  0.083400  0.501260  -0.025631
    C   C58   0.833440  0.165740  0.500970  0.171858
    C   C59   0.866370  0.208700  0.550380  -0.135746
    C   C60   0.866270  0.297550  0.549930  0.207816
    N   N4    0.833440  0.346060  0.500350  -0.218036
    C   C61   0.800620  0.301660  0.451090  0.287555
    C   C62   0.800520  0.212820  0.451250  -0.319136
    H   H19   0.890560  0.757350  0.588450  0.085217
    H   H20   0.890630  0.908190  0.588010  0.161213
    H   H21   0.776230  0.915380  0.415690  0.106494
    H   H22   0.890660  0.176000  0.587060  0.088977
    H   H23   0.776280  0.334010  0.414350  0.238814
    H   H24   0.776230  0.183170  0.414790  0.166879
    C   C63   0.831450  0.548840  0.273730  -0.182677
    C   C64   0.831630  0.625220  0.231080  0.080977
    C   C65   0.831850  0.625120  0.150020  -0.337801
    C   C66   0.831900  0.548180  0.109200  0.337246
    C   C67   0.831730  0.471570  0.150530  -0.317797
    C   C68   0.831510  0.472120  0.231590  0.256714
    C   C69   0.832100  0.547880  0.034080  -0.130008
    C   C70   0.832280  0.547610  0.965250  -0.120170
    C   C71   0.832480  0.547290  0.890130  0.277581
    C   C72   0.832670  0.623900  0.848800  -0.186307
    C   C73   0.832880  0.623340  0.767740  0.035882
    C   C74   0.832920  0.546620  0.725610  0.038742
    C   C75   0.832730  0.470240  0.768260  -0.000770
    C   C76   0.832520  0.470350  0.849320  -0.284394
    H   H25   0.831600  0.682090  0.259030  0.047135
    H   H26   0.831970  0.681660  0.121400  0.183051
    H   H27   0.831760  0.414810  0.122270  0.160333
    H   H28   0.832650  0.680670  0.877050  0.122573
    H   H29   0.832750  0.413380  0.740320  0.069270
    H   H30   0.832390  0.413820  0.877950  0.172699
    Cl  Cl1   0.574930  0.301780  0.387470  -0.029176
    Cl  Cl2   0.425040  0.698210  0.612480  -0.058620
    Cl  Cl3   0.500180  0.674120  0.280000  -0.179548
    Cl  Cl4   0.499780  0.325880  0.719980  -0.073649
    Cl  Cl5   0.980070  0.361510  0.499960  -0.138337
    Cl  Cl6   0.353370  0.684190  0.499990  -0.135622
    Cl  Cl7   0.758780  0.743450  0.390010  -0.023541
    Cl  Cl8   0.908110  0.347930  0.612730  -0.058483
    Cl  Cl9   0.831300  0.374750  0.280270  -0.180611
    Cl  Cl10  0.833110  0.720700  0.719050  -0.075476
    S   S1    0.650250  0.657450  0.499510  0.870389
    O   O17   0.627490  0.683400  0.411450  -0.421590
    O   O18   0.687030  0.730010  0.525000  -0.456581
    H   H31   0.594170  0.710840  0.423860  0.134668
    O   O19   0.601360  0.661980  0.554480  -0.507083
    S   S2    0.683180  0.388230  0.499950  0.867998
    O   O20   0.706160  0.361920  0.411940  -0.421313
    O   O21   0.646340  0.315780  0.525740  -0.455714
    H   H32   0.739450  0.334530  0.424400  0.136428
    O   O22   0.731940  0.383920  0.554860  -0.505637
