# generated using pymatgen
data_Zn2H21C38Br(N3O8)2
_symmetry_space_group_name_H-M   'P 1'
_cell_length_a   16.73580000
_cell_length_b   17.72200000
_cell_length_c   11.00520000
_cell_angle_alpha   89.85210000
_cell_angle_beta   92.08500000
_cell_angle_gamma   84.91510000
_symmetry_Int_Tables_number   1
_chemical_formula_structural   Zn2H21C38Br(N3O8)2
_chemical_formula_sum   'Zn2 H21 C38 Br1 N6 O16'
_cell_volume   3248.99906585
_cell_formula_units_Z   1
loop_
 _symmetry_equiv_pos_site_id
 _symmetry_equiv_pos_as_xyz
  1  'x, y, z'
loop_
 _atom_site_type_symbol
 _atom_site_label
 _atom_site_symmetry_multiplicity
 _atom_site_fract_x
 _atom_site_fract_y
 _atom_site_fract_z
 _atom_site_occupancy
  Zn  Zn1  1  0.59938000  0.49641000  0.50583000  1
  Zn  Zn2  1  0.40062000  0.50361000  0.49418000  1
  H  H1  1  0.27655000  0.42217000  0.62592000  1
  H  H2  1  0.13118000  0.42691000  0.61825000  1
  H  H3  1  0.12101000  0.59983000  0.33857000  1
  H  H4  1  0.26771000  0.59439000  0.34738000  1
  H  H5  1  0.87897000  0.40018000  0.66147000  1
  H  H6  1  0.86882000  0.57311000  0.38178000  1
  H  H7  1  0.72346000  0.57785000  0.37412000  1
  H  H8  1  0.73228000  0.40563000  0.65265000  1
  H  H9  1  0.38400000  0.26146000  0.49339000  1
  H  H10  1  0.39069000  0.12419000  0.49360000  1
  H  H11  1  0.65010000  0.11380000  0.50905000  1
  H  H12  1  0.64235000  0.25233000  0.50878000  1
  H  H13  1  0.34988000  0.88621000  0.49085000  1
  H  H14  1  0.60929000  0.87583000  0.50630000  1
  H  H15  1  0.61599000  0.73857000  0.50652000  1
  H  H16  1  0.35764000  0.74768000  0.49113000  1
  H  H17  1  0.62250000  0.49549000  0.11440000  1
  H  H18  1  0.31751000  0.55588000  0.09813000  1
  H  H19  1  0.32339000  0.45656000  0.09933000  1
  H  H20  1  0.32280000  0.45668000  0.88229000  1
  H  H21  1  0.31790000  0.55597000  0.88116000  1
  C  C1  1  0.50796000  0.35236000  0.50090000  1
  C  C2  1  0.49988000  0.50005000  0.73700000  1
  C  C3  1  0.49204000  0.64766000  0.49901000  1
  C  C4  1  0.50013000  0.49972000  0.26301000  1
  C  C5  1  0.24294000  0.46109000  0.56296000  1
  C  C6  1  0.15896000  0.46407000  0.55814000  1
  C  C7  1  0.11326000  0.51411000  0.47720000  1
  C  C8  1  0.15415000  0.56074000  0.40179000  1
  C  C9  1  0.23805000  0.55774000  0.40666000  1
  C  C10  1  0.02370000  0.52035000  0.46712000  1
  C  C11  1  0.97629000  0.47966000  0.53293000  1
  C  C12  1  0.84584000  0.43927000  0.59825000  1
  C  C13  1  0.88674000  0.48589000  0.52284000  1
  C  C14  1  0.84104000  0.53594000  0.44189000  1
  C  C15  1  0.75706000  0.53892000  0.43707000  1
  C  C16  1  0.76194000  0.44228000  0.59338000  1
  C  C17  1  0.51257000  0.26782000  0.50106000  1
  C  C18  1  0.44230000  0.22955000  0.49682000  1
  C  C19  1  0.44653000  0.15026000  0.49697000  1
  C  C20  1  0.52148000  0.10688000  0.50138000  1
  C  C21  1  0.59156000  0.14527000  0.50561000  1
  C  C22  1  0.58728000  0.22449000  0.50546000  1
  C  C23  1  0.53058000  0.02230000  0.50181000  1
  C  C24  1  0.46939000  0.97772000  0.49810000  1
  C  C25  1  0.40843000  0.85475000  0.49430000  1
  C  C26  1  0.47849000  0.89314000  0.49853000  1
  C  C27  1  0.55345000  0.84977000  0.50294000  1
  C  C28  1  0.55768000  0.77047000  0.50309000  1
  C  C29  1  0.48742000  0.73220000  0.49885000  1
  C  C30  1  0.41271000  0.77552000  0.49445000  1
  C  C31  1  0.50007000  0.49980000  0.13268000  1
  C  C32  1  0.49994000  0.49996000  0.86733000  1
  C  C33  1  0.43672000  0.50209000  0.06278000  1
  C  C34  1  0.56329000  0.49767000  0.93723000  1
  C  C35  1  0.43666000  0.50218000  0.93034000  1
  C  C36  1  0.56336000  0.49758000  0.06967000  1
  C  C37  1  0.34667000  0.50530000  0.05506000  1
  C  C38  1  0.34661000  0.50538000  0.92825000  1
  Br  Br1  1  0.67625000  0.49367000  0.86405000  1
  N  N1  1  0.28370000  0.50785000  0.48734000  1
  N  N2  1  0.71629000  0.49217000  0.51269000  1
  N  N3  1  0.98577000  0.57733000  0.37496000  1
  N  N4  1  0.01422000  0.42268000  0.62509000  1
  N  N5  1  0.61595000  0.98622000  0.50685000  1
  N  N6  1  0.38401000  0.01379000  0.49306000  1
  O  O1  1  0.58733000  0.38787000  0.50600000  1
  O  O2  1  0.42438000  0.39379000  0.49584000  1
  O  O3  1  0.41837000  0.50299000  0.67042000  1
  O  O4  1  0.58133000  0.49718000  0.68005000  1
  O  O5  1  0.41266000  0.61215000  0.49423000  1
  O  O6  1  0.57562000  0.60623000  0.50394000  1
  O  O7  1  0.58163000  0.49688000  0.32959000  1
  O  O8  1  0.41866000  0.50297000  0.31996000  1
  O  O9  1  0.02025000  0.58269000  0.25375000  1
  O  O10  1  0.91425000  0.62758000  0.40621000  1
  O  O11  1  0.98364000  0.34720000  0.63463000  1
  O  O12  1  0.08183000  0.44253000  0.70552000  1
  O  O13  1  0.67656000  0.01659000  0.58995000  1
  O  O14  1  0.63870000  0.92064000  0.42867000  1
  O  O15  1  0.32315000  0.98311000  0.56883000  1
  O  O16  1  0.36153000  0.07969000  0.41236000  1
