# Generated by REPEAT Assigner based on pymatgen
data_DB1-Cu2O8N2-irmof20_A-irmof8_A_No84
_audit_creation_date              2022-05-24
_audit_creation_method            REPEAT_Assigner
_cell_length_a                    25.491400
_cell_length_b                    12.501100
_cell_length_c                    10.828700
_cell_angle_alpha                 89.999100
_cell_angle_beta                  89.998900
_cell_angle_gamma                 89.886400
_cell_volume                      3450.780899
_symmetry_space_group_name_H-M    P1
_symmetry_Int_Tables_number       1
loop_
    _symmetry_equiv_pos_site_id
    _symmetry_equiv_pos_as_xyz
    1  x,y,z
loop_
    _atom_site_type_symbol
    _atom_site_label
    _atom_site_fract_x
    _atom_site_fract_y
    _atom_site_fract_z
    _atom_type_partial_charge
    Cu  Cu1  0.500000  0.499990  0.382480  0.823967
    Cu  Cu2  0.500000  0.499990  0.617520  0.871011
    O   O1   0.568210  0.499990  0.390400  -0.446857
    O   O2   0.431650  0.500320  0.390410  -0.464596
    O   O3   0.499870  0.639380  0.390400  -0.459168
    O   O4   0.499990  0.360920  0.390410  -0.419936
    O   O5   0.500110  0.360610  0.609600  -0.492230
    O   O6   0.500030  0.639070  0.609590  -0.440269
    O   O7   0.431740  0.500150  0.609600  -0.414251
    O   O8   0.568350  0.499640  0.609590  -0.494024
    C   C1   0.598390  0.499790  0.500000  0.459420
    C   C2   0.401620  0.500190  0.500010  0.449027
    C   C3   0.499960  0.700620  0.500000  0.494234
    C   C4   0.500050  0.299370  0.500010  0.516260
    Cu  Cu3  0.009600  0.499330  0.617570  0.788178
    Cu  Cu4  0.009600  0.500090  0.382530  0.868105
    O   O9   0.941390  0.499430  0.609650  -0.439707
    O   O10  0.077950  0.499610  0.609640  -0.460319
    O   O11  0.009490  0.638750  0.610240  -0.453397
    O   O12  0.009840  0.360290  0.609050  -0.415370
    O   O13  0.009720  0.360680  0.389860  -0.493097
    O   O14  0.009340  0.639140  0.391040  -0.438680
    O   O15  0.077860  0.500150  0.390450  -0.415434
    O   O16  0.941250  0.499780  0.390450  -0.498825
    C   C5   0.911210  0.499620  0.500050  0.463588
    C   C6   0.107980  0.499800  0.500040  0.449876
    C   C7   0.009300  0.700330  0.500900  0.497393
    C   C8   0.009890  0.299090  0.499190  0.518346
    C   C9   0.529450  0.439920  0.872250  0.393752
    S   S1   0.457510  0.586690  0.866540  0.172501
    C   C10  0.470560  0.560070  0.127750  0.441536
    S   S2   0.542500  0.413300  0.133460  0.156931
    N   N1   0.500000  0.499990  0.792180  -0.311438
    N   N2   0.500000  0.499990  0.207820  -0.319995
    C   C11  0.481030  0.538700  0.000000  -0.171571
    C   C12  0.518980  0.461290  0.000000  -0.153262
    C   C13  0.499920  0.889340  0.402050  0.160006
    S   S3   0.500090  0.884390  0.641360  0.011833
    C   C14  0.500090  0.110650  0.597960  0.202900
    S   S4   0.499920  0.115600  0.358640  0.020438
    C   C15  0.499980  0.819980  0.500000  -0.199053
    C   C16  0.500030  0.180010  0.500000  -0.232643
    C   C17  0.500050  0.999990  0.563120  -0.042686
    C   C18  0.499960  -0.000000  0.436880  -0.042627
    C   C19  0.817710  0.499530  0.590420  -0.121232
    C   C20  0.837320  0.499860  0.374280  -0.059094
    C   C21  0.784080  0.499950  0.340870  -0.089109
    C   C22  0.746540  0.499810  0.437540  0.137927
    C   C23  0.691880  0.499890  0.409620  -0.126380
    C   C24  0.672280  0.499550  0.625770  -0.055135
    C   C25  0.725520  0.499470  0.659180  -0.092456
    C   C26  0.763060  0.499600  0.562510  0.135523
    C   C27  0.853130  0.499650  0.500040  -0.050968
    C   C28  0.656470  0.499760  0.500010  -0.049148
    H   H1   0.829980  0.499350  0.687070  0.080141
    H   H2   0.867030  0.499950  0.303030  0.105621
    H   H3   0.679610  0.500070  0.312980  0.083062
    H   H4   0.642570  0.499460  0.697000  0.104367
    C   C29  0.309070  0.500000  0.597970  0.216606
    S   S5   0.311490  0.500180  0.358650  0.045378
    C   C30  0.200530  0.500000  0.402080  0.219807
    S   S6   0.198110  0.499820  0.641390  0.046831
    C   C31  0.343080  0.500120  0.500010  -0.203188
    C   C32  0.166520  0.499880  0.500030  -0.204341
    C   C33  0.254800  0.500050  0.436910  -0.073911
    C   C34  0.254800  0.499950  0.563140  -0.076496
    C   C35  0.980250  0.440870  0.127540  0.399034
    S   S7   0.051950  0.587540  0.133880  0.171033
    C   C36  0.038940  0.561770  0.872560  0.450056
    S   S8   0.967240  0.415100  0.866220  0.159884
    N   N3   0.009600  0.500650  0.207860  -0.305511
    N   N4   0.009600  0.501990  0.792230  -0.313286
    C   C37  0.028500  0.540010  0.000210  -0.178015
    C   C38  0.990690  0.462630  0.999880  -0.156616
    C   C39  0.009030  0.888740  0.599650  0.155845
    S   S9   0.008870  0.884560  0.360310  0.010736
    C   C40  0.008480  0.110680  0.404680  0.194495
    S   S10  0.008650  0.114860  0.644020  0.022405
    C   C41  0.009090  0.819700  0.501410  -0.197591
    C   C42  0.008430  0.179720  0.502930  -0.227564
    C   C43  0.008710  0.999910  0.439050  -0.037800
    C   C44  0.008800  0.999510  0.565280  -0.046826
    C   C45  0.570540  0.356080  0.829090  -0.426965
    H   H5   0.553490  0.302150  0.780500  0.188437
    H   H6   0.586630  0.323480  0.899900  0.121057
    H   H7   0.596910  0.390770  0.780180  0.128146
    C   C46  0.429460  0.643910  0.170910  -0.593727
    H   H8   0.403000  0.609160  0.219510  0.178188
    H   H9   0.413480  0.676740  0.100100  0.157734
    H   H10  0.446490  0.697670  0.219810  0.242596
    C   C47  0.499810  0.851960  0.265340  -0.134088
    H   H11  0.530590  0.809720  0.249570  0.046543
    H   H12  0.499700  0.913290  0.211990  0.088752
    H   H13  0.469090  0.809740  0.249910  0.002383
    C   C48  0.500190  0.148030  0.734670  -0.228639
    H   H14  0.531000  0.189980  0.750190  0.048601
    H   H15  0.500140  0.086700  0.788010  0.107603
    H   H16  0.469500  0.190540  0.750340  0.064986
    C   C49  0.327410  0.499920  0.734680  -0.287223
    H   H17  0.348130  0.437150  0.750260  0.086133
    H   H18  0.297330  0.500000  0.788030  0.116018
    H   H19  0.348100  0.562560  0.750290  0.071803
    C   C50  0.182190  0.500080  0.265370  -0.301598
    H   H20  0.161630  0.437280  0.249660  0.090774
    H   H21  0.212270  0.500320  0.212020  0.118852
    H   H22  0.161340  0.562680  0.249880  0.076762
    C   C51  0.939300  0.356940  0.170350  -0.453652
    H   H23  0.956440  0.302830  0.218710  0.199472
    H   H24  0.923260  0.324580  0.099400  0.126105
    H   H25  0.912860  0.391500  0.219400  0.137340
    C   C52  0.079890  0.645700  0.829750  -0.604443
    H   H26  0.106410  0.611090  0.781010  0.179476
    H   H27  0.095820  0.678290  0.900700  0.160228
    H   H28  0.062780  0.699640  0.781080  0.250392
    C   C53  0.009200  0.850920  0.736200  -0.117791
    H   H29  0.978490  0.808660  0.751790  0.041670
    H   H30  0.009200  0.912080  0.789810  0.085990
    H   H31  0.039990  0.808620  0.751450  -0.006529
    C   C54  0.008320  0.148500  0.268130  -0.220749
    H   H32  0.977440  0.190540  0.252790  0.045172
    H   H33  0.008470  0.087340  0.214530  0.107227
    H   H34  0.038940  0.191020  0.252640  0.060478
    Cl  Cl1  0.745830  0.499200  0.814520  -0.032828
    Cl  Cl2  0.763770  0.500200  0.185530  -0.034640
