# Generated by REPEAT Assigner based on pymatgen
data_DB1-Cu2O8N2-irmof10_A-irmof20_A_No378
_audit_creation_date              2022-05-24
_audit_creation_method            REPEAT_Assigner
_cell_length_a                    12.501100
_cell_length_b                    27.446900
_cell_length_c                    13.374700
_cell_angle_alpha                 90.000300
_cell_angle_beta                  89.997100
_cell_angle_gamma                 89.903000
_cell_volume                      4589.072889
_symmetry_space_group_name_H-M    P1
_symmetry_Int_Tables_number       1
loop_
    _symmetry_equiv_pos_site_id
    _symmetry_equiv_pos_as_xyz
    1  x,y,z
loop_
    _atom_site_type_symbol
    _atom_site_label
    _atom_site_fract_x
    _atom_site_fract_y
    _atom_site_fract_z
    _atom_type_partial_charge
    Cu  Cu1  0.500000  0.500000  0.404850  0.644683
    Cu  Cu2  0.500010  0.500000  0.595150  0.903333
    O   O1   0.639090  0.500030  0.411260  -0.340900
    O   O2   0.360630  0.500110  0.411270  -0.377782
    O   O3   0.499700  0.563480  0.411270  -0.401590
    O   O4   0.500020  0.436650  0.411260  -0.517602
    O   O5   0.500270  0.436510  0.588730  -0.486177
    O   O6   0.500020  0.563340  0.588730  -0.383218
    O   O7   0.360800  0.500030  0.588740  -0.541281
    O   O8   0.639380  0.499870  0.588720  -0.466584
    C   C1   0.700630  0.499960  0.499990  0.470765
    C   C2   0.299380  0.500040  0.500010  0.485559
    C   C3   0.499860  0.591370  0.500000  0.434831
    C   C4   0.500150  0.408620  0.500000  0.551698
    Cu  Cu3  0.500370  0.955460  0.595170  0.611276
    Cu  Cu4  0.499690  0.955460  0.404870  1.125038
    O   O9   0.639440  0.955210  0.588310  -0.352715
    O   O10  0.360980  0.955570  0.589200  -0.381930
    O   O11  0.500040  0.891980  0.588760  -0.390150
    O   O12  0.500380  0.018810  0.588760  -0.520337
    O   O13  0.499980  0.018950  0.411290  -0.548283
    O   O14  0.499720  0.892120  0.411290  -0.553675
    O   O15  0.360510  0.955640  0.411740  -0.557064
    O   O16  0.639080  0.955370  0.410850  -0.494741
    C   C5   0.700650  0.955190  0.499380  0.512629
    C   C6   0.299410  0.955740  0.500660  0.518295
    C   C7   0.499880  0.864080  0.500020  0.397509
    C   C8   0.500190  0.046840  0.500020  0.517233
    N   N1   0.500010  0.500000  0.736560  -0.067164
    N   N2   0.500000  0.500000  0.263430  -0.019049
    C   C9   0.567920  0.469080  0.789280  -0.229863
    C   C10  0.568550  0.468790  0.894140  0.447437
    C   C11  0.432090  0.530920  0.210720  -0.220150
    C   C12  0.431460  0.531200  0.105860  0.434357
    C   C13  0.567920  0.469080  0.210710  -0.110211
    C   C14  0.568550  0.468790  0.105850  -0.263664
    C   C15  0.432090  0.530920  0.789290  -0.098660
    C   C16  0.431460  0.531210  0.894150  -0.265119
    C   C17  0.500000  0.500000  0.947170  0.041132
    C   C18  0.500000  0.500000  0.052830  0.052873
    H   H1   0.614990  0.447640  0.753400  0.098871
    H   H2   0.385020  0.552350  0.246600  0.056450
    H   H3   0.614990  0.447640  0.246590  0.107469
    H   H4   0.615820  0.447270  0.070400  0.198595
    H   H5   0.385020  0.552350  0.753410  0.101336
    H   H6   0.384190  0.552730  0.929600  0.225271
    C   C19  0.500010  0.677330  0.579310  0.263028
    S   S1   0.499660  0.675080  0.385550  0.014212
    C   C20  0.499730  0.778130  0.420710  -0.226626
    H   H7   0.499610  0.788340  0.354360  0.193220
    S   S2   0.500080  0.780380  0.614470  -0.010098
    C   C21  0.499870  0.645740  0.500010  -0.196174
    C   C22  0.499880  0.809720  0.500020  -0.001474
    C   C23  0.499780  0.727730  0.448910  0.095253
    C   C24  0.499960  0.727730  0.551110  -0.113869
    C   C25  0.500150  0.356100  0.500000  0.011383
    C   C26  0.500180  0.099360  0.500020  0.070153
    C   C27  0.500030  0.330410  0.410330  -0.413200
    C   C28  0.500040  0.279310  0.409500  0.446239
    C   C29  0.500300  0.125050  0.589690  -0.443787
    C   C30  0.500300  0.176150  0.590520  0.449503
    C   C31  0.500050  0.125050  0.410340  -0.251209
    C   C32  0.500050  0.176150  0.409500  -0.093045
    C   C33  0.500280  0.330410  0.589680  -0.224872
    C   C34  0.500290  0.279310  0.590520  -0.098047
    C   C35  0.500160  0.253470  0.500010  0.001779
    C   C36  0.500170  0.201990  0.500010  -0.003664
    H   H8   0.499950  0.347890  0.348160  0.157940
    H   H9   0.500390  0.107570  0.651860  0.168965
    H   H10  0.499970  0.107560  0.348180  0.085521
    H   H11  0.499960  0.193420  0.347080  0.071594
    H   H12  0.500370  0.347900  0.651840  0.070897
    H   H13  0.500380  0.262040  0.652940  0.074947
    C   C37  0.889360  0.500050  0.420690  0.197134
    S   S3   0.884390  0.499880  0.614450  0.039349
    C   C38  0.110650  0.499940  0.579310  -0.168615
    H   H14  0.133060  0.499880  0.645660  0.169241
    S   S4   0.115620  0.500110  0.385550  -0.034155
    C   C39  0.819990  0.499970  0.500000  -0.191144
    C   C40  0.180020  0.500020  0.500010  -0.066831
    C   C41  0.000000  0.499950  0.551100  0.053690
    C   C42  0.000010  0.500040  0.448900  -0.036865
    N   N3   0.499180  0.955460  0.263460  -0.075661
    N   N4   0.497280  0.955460  0.736590  0.011168
    C   C43  0.566900  0.986280  0.210520  -0.230751
    C   C44  0.567160  0.986560  0.105660  0.447982
    C   C45  0.429550  0.924650  0.789530  -0.246469
    C   C46  0.429300  0.924360  0.894390  0.454190
    C   C47  0.565380  0.986280  0.789100  -0.125021
    C   C48  0.566390  0.986560  0.893950  -0.249002
    C   C49  0.431070  0.924650  0.210950  -0.159508
    C   C50  0.430060  0.924360  0.106100  -0.257386
    C   C51  0.498420  0.955460  0.052850  0.058937
    C   C52  0.498040  0.955460  0.947200  0.028618
    H   H15  0.614110  0.007640  0.246250  0.098540
    H   H16  0.382350  0.903290  0.753800  0.062782
    H   H17  0.612330  0.007640  0.753060  0.114077
    H   H18  0.613790  0.008010  0.929250  0.193639
    H   H19  0.384120  0.903290  0.246990  0.116696
    H   H20  0.382670  0.902910  0.070800  0.228785
    C   C53  0.889660  0.954790  0.578070  0.199367
    S   S5   0.884000  0.954980  0.384320  0.029835
    C   C54  0.110390  0.954560  0.418730  -0.171569
    H   H21  0.132560  0.954590  0.352310  0.172696
    S   S6   0.116050  0.954380  0.612470  -0.036332
    C   C55  0.820010  0.954990  0.498990  -0.216667
    C   C56  0.180040  0.954370  0.497810  -0.098567
    C   C57  0.999840  0.954730  0.447300  0.064609
    C   C58  0.000210  0.954630  0.549500  -0.028388
    O   O17  0.632450  0.439690  0.942060  -0.918509
    Li  Li1  0.724900  0.397600  0.903780  0.821591
    O   O18  0.367550  0.560300  0.057940  -0.914950
    Li  Li2  0.275110  0.602390  0.096210  0.865163
    O   O19  0.499920  0.255960  0.325110  -0.755737
    Li  Li3  0.499750  0.274600  0.203040  0.684321
    O   O20  0.500410  0.199500  0.674910  -0.753014
    Li  Li4  0.500580  0.180860  0.796980  0.680870
    O   O21  0.630890  0.015560  0.057530  -0.915965
    Li  Li5  0.723480  0.057510  0.095510  0.818995
    O   O22  0.365560  0.895360  0.942520  -0.925010
    Li  Li6  0.272980  0.853420  0.904540  0.866542
    O   O23  0.500200  0.660760  0.686970  -0.476649
    H   H22  0.500300  0.693060  0.736900  0.348572
    O   O24  0.853000  0.500150  0.313030  -0.455812
    H   H23  0.923920  0.500200  0.263100  0.347058
    O   O25  0.853690  0.954760  0.685840  -0.460997
    H   H24  0.924800  0.954590  0.735540  0.347826
