data_DB1-Zn2O8-AZO_A-irmof20_A_No396_repeat
_audit_creation_date              2024-02-24
_audit_creation_method            'Materials Studio'
_symmetry_space_group_name_H-M    'P1'
_symmetry_Int_Tables_number       1
_symmetry_cell_setting            triclinic
loop_
_symmetry_equiv_pos_as_xyz
  x,y,z
_cell_length_a                    12.7014
_cell_length_b                    37.0982
_cell_length_c                    10.0000
_cell_angle_alpha                 90.0000
_cell_angle_beta                  90.0000
_cell_angle_gamma                 109.8300
loop_
_atom_site_label
_atom_site_type_symbol
_atom_site_fract_x
_atom_site_fract_y
_atom_site_fract_z
_atom_site_U_iso_or_equiv
_atom_site_adp_type
_atom_site_occupancy
O1     O     0.34844   0.50035   0.63579   0.00000  Uiso   1.00
O2     O     0.34823   0.49998   0.36398   0.00000  Uiso   1.00
C1     C     0.29478   0.50011   0.49991   0.00000  Uiso   1.00
Zn1    Zn    0.50004   0.50011   0.66577   0.00000  Uiso   1.00
O3     O     0.55508   0.55516   0.36380   0.00000  Uiso   1.00
O4     O     0.55529   0.55537   0.63562   0.00000  Uiso   1.00
C2     C     0.57455   0.57474   0.49974   0.00000  Uiso   1.00
O5     O     0.65166   0.49973   0.36421   0.00000  Uiso   1.00
O6     O     0.65173   0.49995   0.63602   0.00000  Uiso   1.00
C3     C     0.70522   0.49986   0.50009   0.00000  Uiso   1.00
Zn2    Zn    0.49999   0.49989   0.33423   0.00000  Uiso   1.00
O7     O     0.44474   0.44484   0.63620   0.00000  Uiso   1.00
O8     O     0.44492   0.44464   0.36438   0.00000  Uiso   1.00
C4     C     0.42512   0.42526   0.50026   0.00000  Uiso   1.00
O9     O     0.84486   0.99980   0.26655   0.00000  Uiso   1.00
O10    O     0.84539   0.00017   0.53836   0.00000  Uiso   1.00
C5     C     0.79172   0.00008   0.40243   0.00000  Uiso   1.00
Zn3    Zn    0.99681   0.99991   0.23657   0.00000  Uiso   1.00
O11    O     0.94243   0.94486   0.53853   0.00000  Uiso   1.00
O12    O     0.94222   0.94465   0.26672   0.00000  Uiso   1.00
C6     C     0.92296   0.92528   0.40259   0.00000  Uiso   1.00
O13    O     0.14908   0.00017   0.53812   0.00000  Uiso   1.00
O14    O     0.14869   0.99994   0.26631   0.00000  Uiso   1.00
C7     C     0.20232   0.99999   0.40223   0.00000  Uiso   1.00
Zn4    Zn    0.99720   0.00013   0.56810   0.00000  Uiso   1.00
O15    O     0.05137   0.05518   0.26614   0.00000  Uiso   1.00
O16    O     0.05197   0.05538   0.53795   0.00000  Uiso   1.00
C8     C     0.07069   0.07476   0.40207   0.00000  Uiso   1.00
C9     C     0.88045   0.88251   0.40252   0.00000  Uiso   1.00
C10    C     0.85990   0.86183   0.52364   0.00000  Uiso   1.00
C11    C     0.81998   0.82166   0.52325   0.00000  Uiso   1.00
C12    C     0.79979   0.80136   0.40193   0.00000  Uiso   1.00
C13    C     0.82006   0.82175   0.28137   0.00000  Uiso   1.00
C14    C     0.85996   0.86190   0.28129   0.00000  Uiso   1.00
N1     N     0.75890   0.76022   0.39829   0.00000  Uiso   1.00
N2     N     0.73861   0.73980   0.50405   0.00000  Uiso   1.00
C15    C     0.67745   0.67827   0.62097   0.00000  Uiso   1.00
C16    C     0.69772   0.69866   0.50041   0.00000  Uiso   1.00
C17    C     0.67753   0.67836   0.37908   0.00000  Uiso   1.00
C18    C     0.63761   0.63819   0.37870   0.00000  Uiso   1.00
C19    C     0.61706   0.61751   0.49981   0.00000  Uiso   1.00
C20    C     0.63755   0.63812   0.62104   0.00000  Uiso   1.00
H1     H     0.87491   0.87693   0.61823   0.00000  Uiso   1.00
H2     H     0.80471   0.80631   0.61715   0.00000  Uiso   1.00
H3     H     0.69274   0.69366   0.71491   0.00000  Uiso   1.00
H4     H     0.69280   0.69371   0.28519   0.00000  Uiso   1.00
C21    C     0.11395   0.11752   0.40213   0.00000  Uiso   1.00
C22    C     0.13467   0.13818   0.52330   0.00000  Uiso   1.00
C23    C     0.17530   0.17834   0.52304   0.00000  Uiso   1.00
C24    C     0.19604   0.19867   0.40178   0.00000  Uiso   1.00
C25    C     0.17562   0.17831   0.28115   0.00000  Uiso   1.00
C26    C     0.13501   0.13817   0.28096   0.00000  Uiso   1.00
N3     N     0.23767   0.23982   0.39826   0.00000  Uiso   1.00
N4     N     0.25814   0.26020   0.50408   0.00000  Uiso   1.00
C27    C     0.32019   0.32171   0.62118   0.00000  Uiso   1.00
C28    C     0.29977   0.30135   0.50056   0.00000  Uiso   1.00
C29    C     0.32051   0.32168   0.37930   0.00000  Uiso   1.00
C30    C     0.36114   0.36184   0.37903   0.00000  Uiso   1.00
C31    C     0.38186   0.38250   0.50021   0.00000  Uiso   1.00
C32    C     0.36080   0.36185   0.62138   0.00000  Uiso   1.00
H5     H     0.11923   0.12305   0.61785   0.00000  Uiso   1.00
H6     H     0.19067   0.19368   0.61698   0.00000  Uiso   1.00
H7     H     0.30447   0.30630   0.71507   0.00000  Uiso   1.00
H8     H     0.30513   0.30634   0.28535   0.00000  Uiso   1.00
C33    C     0.89115   0.50003   0.60611   0.00000  Uiso   1.00
S1     S     0.88601   0.49981   0.34696   0.00000  Uiso   1.00
C34    C     0.10885   0.49994   0.39390   0.00000  Uiso   1.00
H9     H     0.13082   0.49988   0.30516   0.00000  Uiso   1.00
S2     S     0.11399   0.50016   0.65304   0.00000  Uiso   1.00
C35    C     0.82275   0.49991   0.50006   0.00000  Uiso   1.00
C36    C     0.17725   0.50006   0.49995   0.00000  Uiso   1.00
C37    C     0.99993   0.49993   0.43165   0.00000  Uiso   1.00
C38    C     0.00007   0.50004   0.56835   0.00000  Uiso   1.00
C39    C     0.38776   0.99967   0.29622   0.00000  Uiso   1.00
S3     S     0.38307   0.99989   0.55536   0.00000  Uiso   1.00
C40    C     0.60546   0.99957   0.50841   0.00000  Uiso   1.00
H10    H     0.62755   0.99962   0.59716   0.00000  Uiso   1.00
S4     S     0.61015   0.99935   0.24927   0.00000  Uiso   1.00
C41    C     0.31965   0.99984   0.40227   0.00000  Uiso   1.00
C42    C     0.67356   0.99940   0.40237   0.00000  Uiso   1.00
C43    C     0.49665   0.99968   0.47066   0.00000  Uiso   1.00
C44    C     0.49656   0.99956   0.33397   0.00000  Uiso   1.00
O17    O     0.87801   0.88006   0.16801   0.00000  Uiso   1.00
Li1    Li    0.86313   0.86508   0.00508   0.00000  Uiso   1.00
O18    O     0.80171   0.80329   0.16868   0.00000  Uiso   1.00
Li2    Li    0.75428   0.75557   0.12946   0.00000  Uiso   1.00
O19    O     0.61950   0.61997   0.73433   0.00000  Uiso   1.00
Li3    Li    0.63438   0.63494   0.89725   0.00000  Uiso   1.00
O20    O     0.61962   0.62009   0.26531   0.00000  Uiso   1.00
Li4    Li    0.63457   0.63514   0.10247   0.00000  Uiso   1.00
O21    O     0.11683   0.12004   0.16762   0.00000  Uiso   1.00
Li5    Li    0.13225   0.13505   0.00474   0.00000  Uiso   1.00
O22    O     0.19448   0.19680   0.16852   0.00000  Uiso   1.00
Li6    Li    0.24282   0.24453   0.12944   0.00000  Uiso   1.00
O23    O     0.37898   0.37998   0.73471   0.00000  Uiso   1.00
Li7    Li    0.36356   0.36497   0.89760   0.00000  Uiso   1.00
O24    O     0.37965   0.37997   0.26570   0.00000  Uiso   1.00
Li8    Li    0.36470   0.36496   0.10281   0.00000  Uiso   1.00
O25    O     0.85549   0.50014   0.75011   0.00000  Uiso   1.00
H11    H     0.92539   0.50022   0.81687   0.00000  Uiso   1.00
O26    O     0.35192   0.99959   0.15221   0.00000  Uiso   1.00
H12    H     0.42158   0.99945   0.08546   0.00000  Uiso   1.00
