data_DB1-Cu2O8-irmof10_A-irmof6_A_No314_repeat
_audit_creation_date              2024-02-20
_audit_creation_method            'Materials Studio'
_symmetry_space_group_name_H-M    'P1'
_symmetry_Int_Tables_number       1
_symmetry_cell_setting            triclinic
loop_
_symmetry_equiv_pos_as_xyz
  x,y,z
_cell_length_a                    29.8915
_cell_length_b                    39.4083
_cell_length_c                    10.0000
_cell_angle_alpha                 90.0000
_cell_angle_beta                  90.0000
_cell_angle_gamma                 40.8002
loop_
_atom_site_label
_atom_site_type_symbol
_atom_site_fract_x
_atom_site_fract_y
_atom_site_fract_z
_atom_site_U_iso_or_equiv
_atom_site_adp_type
_atom_site_occupancy
Cu1    Cu    0.50000   0.50000   0.37274   0.00000  Uiso   1.00
Cu2    Cu    0.50000   0.50000   0.62726   0.00000  Uiso   1.00
O1     O     0.43249   0.56753   0.38132   0.00000  Uiso   1.00
O2     O     0.56752   0.43234   0.38132   0.00000  Uiso   1.00
O3     O     0.44185   0.49986   0.38132   0.00000  Uiso   1.00
O4     O     0.55815   0.50001   0.38132   0.00000  Uiso   1.00
O5     O     0.55817   0.50013   0.61868   0.00000  Uiso   1.00
O6     O     0.44183   0.50001   0.61868   0.00000  Uiso   1.00
O7     O     0.56751   0.43242   0.61868   0.00000  Uiso   1.00
O8     O     0.43249   0.56766   0.61868   0.00000  Uiso   1.00
C1     C     0.40269   0.59740   0.50000   0.00000  Uiso   1.00
C2     C     0.59731   0.40261   0.50000   0.00000  Uiso   1.00
C3     C     0.41616   0.49994   0.50000   0.00000  Uiso   1.00
C4     C     0.58383   0.50007   0.50000   0.00000  Uiso   1.00
Cu3    Cu    0.99986   0.50014   0.62730   0.00000  Uiso   1.00
Cu4    Cu    0.00011   0.49989   0.37278   0.00000  Uiso   1.00
O9     O     0.93260   0.56766   0.61826   0.00000  Uiso   1.00
O10    O     0.06740   0.43247   0.61917   0.00000  Uiso   1.00
O11    O     0.05830   0.49999   0.61872   0.00000  Uiso   1.00
O12    O     0.94170   0.50014   0.61872   0.00000  Uiso   1.00
O13    O     0.94169   0.50002   0.38136   0.00000  Uiso   1.00
O14    O     0.05825   0.49991   0.38135   0.00000  Uiso   1.00
O15    O     0.06749   0.43232   0.38181   0.00000  Uiso   1.00
O16    O     0.93256   0.56756   0.38091   0.00000  Uiso   1.00
C5     C     0.90288   0.59741   0.49938   0.00000  Uiso   1.00
C6     C     0.09709   0.40262   0.50068   0.00000  Uiso   1.00
C7     C     0.08395   0.49995   0.50003   0.00000  Uiso   1.00
C8     C     0.91602   0.50008   0.50003   0.00000  Uiso   1.00
Cu5    Cu    0.08069   0.91960   0.62730   0.00000  Uiso   1.00
Cu6    Cu    0.08038   0.91959   0.37279   0.00000  Uiso   1.00
O17    O     0.14817   0.85207   0.61873   0.00000  Uiso   1.00
O18    O     0.01293   0.98726   0.61872   0.00000  Uiso   1.00
O19    O     0.02251   0.91947   0.61937   0.00000  Uiso   1.00
O20    O     0.13859   0.91985   0.61808   0.00000  Uiso   1.00
O21    O     0.13855   0.91973   0.38072   0.00000  Uiso   1.00
O22    O     0.02250   0.91932   0.38201   0.00000  Uiso   1.00
O23    O     0.01278   0.98717   0.38137   0.00000  Uiso   1.00
O24    O     0.14816   0.85193   0.38137   0.00000  Uiso   1.00
C9     C     0.17796   0.82220   0.50004   0.00000  Uiso   1.00
C10    C     0.98311   0.01699   0.50004   0.00000  Uiso   1.00
C11    C     0.99695   0.91928   0.50098   0.00000  Uiso   1.00
C12    C     0.16413   0.91991   0.49911   0.00000  Uiso   1.00
Cu7    Cu    0.58190   0.91948   0.36991   0.00000  Uiso   1.00
Cu8    Cu    0.58196   0.91973   0.62443   0.00000  Uiso   1.00
O25    O     0.64919   0.85196   0.37894   0.00000  Uiso   1.00
O26    O     0.51460   0.98715   0.37804   0.00000  Uiso   1.00
O27    O     0.64031   0.91937   0.37785   0.00000  Uiso   1.00
O28    O     0.52348   0.91974   0.37914   0.00000  Uiso   1.00
O29    O     0.52353   0.91986   0.61650   0.00000  Uiso   1.00
O30    O     0.64039   0.91945   0.61521   0.00000  Uiso   1.00
O31    O     0.51467   0.98730   0.61539   0.00000  Uiso   1.00
O32    O     0.64923   0.85207   0.61630   0.00000  Uiso   1.00
C13    C     0.67891   0.82221   0.49783   0.00000  Uiso   1.00
C14    C     0.48495   0.01700   0.49652   0.00000  Uiso   1.00
C15    C     0.66614   0.91929   0.49624   0.00000  Uiso   1.00
C16    C     0.49771   0.91992   0.49810   0.00000  Uiso   1.00
C17    C     0.63206   0.50007   0.50001   0.00000  Uiso   1.00
C18    C     0.86780   0.50008   0.50003   0.00000  Uiso   1.00
C19    C     0.65571   0.50001   0.38007   0.00000  Uiso   1.00
C20    C     0.70263   0.50001   0.37896   0.00000  Uiso   1.00
C21    C     0.84414   0.50014   0.61997   0.00000  Uiso   1.00
C22    C     0.79723   0.50014   0.62108   0.00000  Uiso   1.00
C23    C     0.84427   0.50002   0.38009   0.00000  Uiso   1.00
C24    C     0.79735   0.50002   0.37897   0.00000  Uiso   1.00
C25    C     0.65559   0.50013   0.61995   0.00000  Uiso   1.00
C26    C     0.70250   0.50014   0.62107   0.00000  Uiso   1.00
C27    C     0.72629   0.50007   0.50002   0.00000  Uiso   1.00
C28    C     0.77356   0.50008   0.50002   0.00000  Uiso   1.00
H1     H     0.63970   0.49997   0.29692   0.00000  Uiso   1.00
H2     H     0.86016   0.50018   0.70311   0.00000  Uiso   1.00
H3     H     0.86037   0.49998   0.29694   0.00000  Uiso   1.00
H4     H     0.78154   0.49997   0.29548   0.00000  Uiso   1.00
H5     H     0.63949   0.50017   0.70309   0.00000  Uiso   1.00
H6     H     0.71832   0.50018   0.70455   0.00000  Uiso   1.00
C29    C     0.36794   0.49994   0.50001   0.00000  Uiso   1.00
C30    C     0.13218   0.49995   0.50003   0.00000  Uiso   1.00
C31    C     0.34442   0.49986   0.38007   0.00000  Uiso   1.00
C32    C     0.29750   0.49986   0.37896   0.00000  Uiso   1.00
C33    C     0.15569   0.50003   0.61997   0.00000  Uiso   1.00
C34    C     0.20261   0.50003   0.62108   0.00000  Uiso   1.00
C35    C     0.15585   0.49987   0.38009   0.00000  Uiso   1.00
C36    C     0.20277   0.49987   0.37897   0.00000  Uiso   1.00
C37    C     0.34427   0.50002   0.61995   0.00000  Uiso   1.00
C38    C     0.29735   0.50002   0.62107   0.00000  Uiso   1.00
C39    C     0.27369   0.49994   0.50002   0.00000  Uiso   1.00
C40    C     0.22642   0.49995   0.50002   0.00000  Uiso   1.00
H7     H     0.36053   0.49981   0.29692   0.00000  Uiso   1.00
H8     H     0.13958   0.50008   0.70311   0.00000  Uiso   1.00
H9     H     0.13984   0.49982   0.29694   0.00000  Uiso   1.00
H10    H     0.21868   0.49981   0.29548   0.00000  Uiso   1.00
H11    H     0.36027   0.50007   0.70309   0.00000  Uiso   1.00
H12    H     0.28143   0.50008   0.70455   0.00000  Uiso   1.00
C41    C     0.23364   0.76650   0.50003   0.00000  Uiso   1.00
C42    C     0.34701   0.65310   0.50001   0.00000  Uiso   1.00
C43    C     0.26197   0.73810   0.39441   0.00000  Uiso   1.00
C44    C     0.31869   0.68150   0.60564   0.00000  Uiso   1.00
C45    C     0.31855   0.68150   0.39440   0.00000  Uiso   1.00
C46    C     0.26211   0.73810   0.60565   0.00000  Uiso   1.00
C47    C     0.26307   0.73690   0.24420   0.00000  Uiso   1.00
C48    C     0.31725   0.68271   0.24419   0.00000  Uiso   1.00
H13    H     0.27319   0.75611   0.19987   0.00000  Uiso   1.00
H14    H     0.21438   0.75624   0.20101   0.00000  Uiso   1.00
H15    H     0.30708   0.66350   0.20017   0.00000  Uiso   1.00
H16    H     0.36589   0.66338   0.20067   0.00000  Uiso   1.00
C49    C     0.65331   0.34663   0.50001   0.00000  Uiso   1.00
C50    C     0.92710   0.07297   0.50004   0.00000  Uiso   1.00
C51    C     0.68068   0.31924   0.38007   0.00000  Uiso   1.00
C52    C     0.73517   0.26478   0.37896   0.00000  Uiso   1.00
C53    C     0.89974   0.10036   0.61997   0.00000  Uiso   1.00
C54    C     0.84525   0.15482   0.62108   0.00000  Uiso   1.00
C55    C     0.89967   0.10035   0.38009   0.00000  Uiso   1.00
C56    C     0.84518   0.15482   0.37897   0.00000  Uiso   1.00
C57    C     0.68074   0.31924   0.61995   0.00000  Uiso   1.00
C58    C     0.73523   0.26478   0.62107   0.00000  Uiso   1.00
C59    C     0.76276   0.23724   0.50002   0.00000  Uiso   1.00
C60    C     0.81766   0.18236   0.50003   0.00000  Uiso   1.00
H17    H     0.66201   0.33788   0.29693   0.00000  Uiso   1.00
H18    H     0.91841   0.08172   0.70312   0.00000  Uiso   1.00
H19    H     0.91830   0.08171   0.29695   0.00000  Uiso   1.00
H20    H     0.82674   0.17323   0.29549   0.00000  Uiso   1.00
H21    H     0.66212   0.33788   0.70309   0.00000  Uiso   1.00
H22    H     0.75368   0.24637   0.70456   0.00000  Uiso   1.00
C61    C     0.73440   0.76651   0.49821   0.00000  Uiso   1.00
C62    C     0.84739   0.65311   0.49900   0.00000  Uiso   1.00
C63    C     0.76266   0.73822   0.60403   0.00000  Uiso   1.00
C64    C     0.81914   0.68140   0.39318   0.00000  Uiso   1.00
C65    C     0.81905   0.68162   0.60442   0.00000  Uiso   1.00
C66    C     0.76274   0.73800   0.39279   0.00000  Uiso   1.00
C67    C     0.76379   0.73717   0.75424   0.00000  Uiso   1.00
C68    C     0.81779   0.68298   0.75461   0.00000  Uiso   1.00
H23    H     0.71528   0.75643   0.79845   0.00000  Uiso   1.00
H24    H     0.77383   0.75656   0.79731   0.00000  Uiso   1.00
H25    H     0.86626   0.66382   0.79876   0.00000  Uiso   1.00
H26    H     0.80770   0.66369   0.79827   0.00000  Uiso   1.00
C69    C     0.15282   0.34664   0.50106   0.00000  Uiso   1.00
C70    C     0.42526   0.07298   0.50287   0.00000  Uiso   1.00
C71    C     0.18000   0.31938   0.62118   0.00000  Uiso   1.00
C72    C     0.23422   0.26491   0.62265   0.00000  Uiso   1.00
C73    C     0.39808   0.10025   0.38275   0.00000  Uiso   1.00
C74    C     0.34386   0.15471   0.38127   0.00000  Uiso   1.00
C75    C     0.39791   0.10049   0.62262   0.00000  Uiso   1.00
C76    C     0.34369   0.15495   0.62338   0.00000  Uiso   1.00
C77    C     0.18017   0.31914   0.38130   0.00000  Uiso   1.00
C78    C     0.23439   0.26467   0.38054   0.00000  Uiso   1.00
C79    C     0.26172   0.23725   0.50178   0.00000  Uiso   1.00
C80    C     0.31635   0.18238   0.50214   0.00000  Uiso   1.00
H27    H     0.16138   0.33810   0.70420   0.00000  Uiso   1.00
H28    H     0.41669   0.08153   0.29973   0.00000  Uiso   1.00
H29    H     0.41641   0.08193   0.70589   0.00000  Uiso   1.00
H30    H     0.32530   0.17345   0.70674   0.00000  Uiso   1.00
H31    H     0.16167   0.33769   0.29803   0.00000  Uiso   1.00
H32    H     0.25278   0.24618   0.29718   0.00000  Uiso   1.00
C81    C     0.21213   0.92013   0.49857   0.00000  Uiso   1.00
C82    C     0.44681   0.92119   0.49593   0.00000  Uiso   1.00
C83    C     0.23570   0.92030   0.61825   0.00000  Uiso   1.00
C84    C     0.28241   0.92051   0.61884   0.00000  Uiso   1.00
C85    C     0.42323   0.92103   0.37626   0.00000  Uiso   1.00
C86    C     0.37653   0.92081   0.37567   0.00000  Uiso   1.00
C87    C     0.42341   0.92115   0.61614   0.00000  Uiso   1.00
C88    C     0.37671   0.92094   0.61778   0.00000  Uiso   1.00
C89    C     0.23553   0.92017   0.37837   0.00000  Uiso   1.00
C90    C     0.28223   0.92038   0.37673   0.00000  Uiso   1.00
C91    C     0.30594   0.92055   0.49752   0.00000  Uiso   1.00
C92    C     0.35300   0.92077   0.49699   0.00000  Uiso   1.00
H33    H     0.21978   0.92026   0.70157   0.00000  Uiso   1.00
H34    H     0.43916   0.92106   0.29293   0.00000  Uiso   1.00
H35    H     0.43946   0.92126   0.69910   0.00000  Uiso   1.00
H36    H     0.36098   0.92091   0.70144   0.00000  Uiso   1.00
H37    H     0.21948   0.92006   0.29541   0.00000  Uiso   1.00
H38    H     0.29796   0.92041   0.29307   0.00000  Uiso   1.00
C93    C     0.94895   0.91906   0.50151   0.00000  Uiso   1.00
C94    C     0.71429   0.91797   0.50410   0.00000  Uiso   1.00
C95    C     0.92553   0.91903   0.62171   0.00000  Uiso   1.00
C96    C     0.87883   0.91881   0.62334   0.00000  Uiso   1.00
C97    C     0.73770   0.91800   0.38391   0.00000  Uiso   1.00
C98    C     0.78440   0.91822   0.38227   0.00000  Uiso   1.00
C99    C     0.73784   0.91816   0.62378   0.00000  Uiso   1.00
C100   C     0.78454   0.91838   0.62438   0.00000  Uiso   1.00
C101   C     0.92540   0.91887   0.38183   0.00000  Uiso   1.00
C102   C     0.87870   0.91865   0.38123   0.00000  Uiso   1.00
C103   C     0.85515   0.91862   0.50254   0.00000  Uiso   1.00
C104   C     0.80809   0.91841   0.50307   0.00000  Uiso   1.00
H39    H     0.94156   0.91916   0.70467   0.00000  Uiso   1.00
H40    H     0.72167   0.91787   0.30094   0.00000  Uiso   1.00
H41    H     0.72191   0.91814   0.70710   0.00000  Uiso   1.00
H42    H     0.80038   0.91850   0.70769   0.00000  Uiso   1.00
H43    H     0.94133   0.91889   0.29851   0.00000  Uiso   1.00
H44    H     0.86286   0.91852   0.29792   0.00000  Uiso   1.00
O33    O     0.72413   0.49996   0.26609   0.00000  Uiso   1.00
Li1    Li    0.70709   0.49987   0.10283   0.00000  Uiso   1.00
O34    O     0.77573   0.50020   0.73394   0.00000  Uiso   1.00
Li2    Li    0.79277   0.50028   0.89721   0.00000  Uiso   1.00
O35    O     0.27613   0.49979   0.26609   0.00000  Uiso   1.00
Li3    Li    0.29336   0.49968   0.10283   0.00000  Uiso   1.00
O36    O     0.22398   0.50010   0.73394   0.00000  Uiso   1.00
Li4    Li    0.20675   0.50021   0.89721   0.00000  Uiso   1.00
O37    O     0.76004   0.23988   0.26610   0.00000  Uiso   1.00
Li5    Li    0.74011   0.25976   0.10283   0.00000  Uiso   1.00
O38    O     0.82038   0.17971   0.73395   0.00000  Uiso   1.00
Li6    Li    0.84031   0.15984   0.89722   0.00000  Uiso   1.00
O39    O     0.25892   0.24013   0.73568   0.00000  Uiso   1.00
Li7    Li    0.23901   0.26018   0.89882   0.00000  Uiso   1.00
O40    O     0.31916   0.17949   0.26824   0.00000  Uiso   1.00
Li8    Li    0.33906   0.15945   0.10510   0.00000  Uiso   1.00
O41    O     0.30384   0.92066   0.73146   0.00000  Uiso   1.00
Li9    Li    0.28692   0.92067   0.89492   0.00000  Uiso   1.00
O42    O     0.35510   0.92066   0.26304   0.00000  Uiso   1.00
Li10   Li    0.37202   0.92065   0.09958   0.00000  Uiso   1.00
O43    O     0.85755   0.91879   0.73644   0.00000  Uiso   1.00
Li11   Li    0.87469   0.91897   0.89952   0.00000  Uiso   1.00
O44    O     0.80568   0.91824   0.26917   0.00000  Uiso   1.00
Li12   Li    0.78854   0.91805   0.10610   0.00000  Uiso   1.00
C105   C     0.34410   0.65615   0.74650   0.00000  Uiso   1.00
H45    H     0.35968   0.66687   0.79434   0.00000  Uiso   1.00
H46    H     0.38113   0.61903   0.73748   0.00000  Uiso   1.00
H47    H     0.30722   0.66688   0.79476   0.00000  Uiso   1.00
C106   C     0.23689   0.76343   0.74652   0.00000  Uiso   1.00
H48    H     0.22137   0.75272   0.79467   0.00000  Uiso   1.00
H49    H     0.19987   0.80055   0.73753   0.00000  Uiso   1.00
H50    H     0.27386   0.75269   0.79448   0.00000  Uiso   1.00
C107   C     0.84445   0.65592   0.25249   0.00000  Uiso   1.00
H51    H     0.80754   0.66658   0.20457   0.00000  Uiso   1.00
H52    H     0.88150   0.61881   0.26175   0.00000  Uiso   1.00
H53    H     0.85997   0.66660   0.20415   0.00000  Uiso   1.00
C108   C     0.73753   0.76319   0.25175   0.00000  Uiso   1.00
H54    H     0.77447   0.75244   0.20367   0.00000  Uiso   1.00
H55    H     0.70046   0.80032   0.26049   0.00000  Uiso   1.00
H56    H     0.72206   0.75240   0.20386   0.00000  Uiso   1.00
