# Generated by REPEAT Assigner based on pymatgen
data_DB1-Zn2O8-irmof20_A-nott112_No16
_audit_creation_date              2022-05-24
_audit_creation_method            REPEAT_Assigner
_cell_length_a                    25.403300
_cell_length_b                    17.951400
_cell_length_c                    10.000000
_cell_angle_alpha                 90.000000
_cell_angle_beta                  90.000000
_cell_angle_gamma                 45.144100
_cell_volume                      3232.681962
_symmetry_space_group_name_H-M    P1
_symmetry_Int_Tables_number       1
loop_
    _symmetry_equiv_pos_site_id
    _symmetry_equiv_pos_as_xyz
    1  x,y,z
loop_
    _atom_site_type_symbol
    _atom_site_label
    _atom_site_fract_x
    _atom_site_fract_y
    _atom_site_fract_z
    _atom_type_partial_charge
    O   O1   0.424660  0.651640  0.635760  -0.384564
    O   O2   0.424260  0.651440  0.363950  -0.477715
    C   C1   0.397690  0.704940  0.499870  0.207153
    Zn  Zn1  0.500100  0.500090  0.665770  1.182878
    O   O3   0.575780  0.500010  0.363830  -0.333113
    O   O4   0.576030  0.500040  0.635650  -0.446270
    C   C2   0.602610  0.500130  0.499780  0.130862
    O   O5   0.575460  0.348330  0.364240  -0.346346
    O   O6   0.575660  0.348520  0.636050  -0.483923
    C   C3   0.602280  0.295030  0.500140  0.167401
    Zn  Zn2  0.499920  0.499880  0.334230  1.164104
    O   O7   0.424130  0.500170  0.636170  -0.513899
    O   O8   0.424080  0.499740  0.364350  -0.424458
    C   C4   0.397230  0.500200  0.500220  0.242734
    O   O9   0.922970  0.653500  0.364200  -0.563841
    O   O10  0.923530  0.653370  0.636000  -0.585410
    C   C5   0.896690  0.706830  0.500070  0.404781
    Zn  Zn3  0.998890  0.501940  0.334240  1.253369
    O   O11  0.923540  0.501360  0.636180  -0.605559
    O   O12  0.923290  0.501330  0.364360  -0.540268
    C   C6   0.896710  0.501240  0.500230  0.392198
    O   O13  0.075070  0.350260  0.635830  -0.544593
    O   O14  0.074700  0.350390  0.364020  -0.598369
    C   C7   0.101490  0.296920  0.499950  0.409300
    Zn  Zn4  0.999240  0.501810  0.665780  1.281358
    O   O15  0.074490  0.502610  0.363840  -0.547828
    O   O16  0.074930  0.502240  0.635660  -0.607108
    C   C8   0.101250  0.502870  0.499790  0.395565
    C   C9   0.695340  0.500470  0.393850  -0.003388
    S   S1   0.692830  0.500490  0.653000  0.158052
    C   C10  0.803980  0.500900  0.606160  -0.187437
    H   H1   0.814960  0.500960  0.694910  0.217173
    S   S2   0.806490  0.500880  0.347010  0.146674
    C   C11  0.661240  0.500350  0.499870  0.120643
    C   C12  0.838080  0.501020  0.500140  0.029504
    C   C13  0.749640  0.500690  0.568350  0.026763
    C   C14  0.749680  0.500680  0.431660  -0.079941
    C   C15  0.304040  0.500870  0.394020  0.043676
    S   S3   0.306230  0.501260  0.653170  0.171228
    C   C16  0.194430  0.502190  0.606000  -0.181394
    H   H2   0.183260  0.502430  0.694720  0.217097
    S   S4   0.192240  0.501810  0.346840  0.153834
    C   C17  0.338220  0.500730  0.500130  0.061777
    C   C18  0.160250  0.502340  0.499880  0.020741
    C   C19  0.249170  0.501640  0.568350  0.018180
    C   C20  0.249300  0.501430  0.431660  -0.088156
    C   C21  0.694960  0.109640  0.394040  -0.032076
    S   S5   0.692820  0.114490  0.653190  0.151634
    C   C22  0.804010  0.892220  0.606160  -0.191703
    H   H3   0.815130  0.870200  0.694890  0.211970
    S   S6   0.806150  0.887370  0.347010  0.152644
    C   C23  0.660970  0.177770  0.500120  0.115522
    C   C24  0.838000  0.824090  0.500080  0.017279
    C   C25  0.749560  0.000930  0.568450  0.048612
    C   C26  0.749410  0.000940  0.431760  -0.082395
    C   C27  0.304950  0.890320  0.605980  0.050103
    S   S7   0.306900  0.885490  0.346830  0.175594
    C   C28  0.195560  0.107750  0.393890  -0.185303
    H   H4   0.184350  0.129780  0.305160  0.214476
    S   S8   0.193610  0.112580  0.653040  0.156854
    C   C29  0.338910  0.822200  0.499900  0.057259
    C   C30  0.161600  0.175870  0.499980  0.002751
    C   C31  0.250120  0.999040  0.431590  0.024895
    C   C32  0.250380  0.999020  0.568280  -0.085797
    O   O17  0.738210  0.431760  0.151140  -0.302579
    O   O18  0.599370  0.568920  0.207420  -0.288031
    N   N1   0.677500  0.500380  0.249660  0.381152
    O   O19  0.261660  0.569280  0.151090  -0.310398
    O   O20  0.400430  0.431320  0.207950  -0.280008
    N   N2   0.322190  0.500490  0.249880  0.359944
    O   O21  0.668900  0.092400  0.151550  -0.319734
    O   O22  0.667240  0.233370  0.207490  -0.315699
    N   N3   0.676890  0.145420  0.249890  0.436815
    O   O23  0.262680  0.906860  0.849120  -0.304905
    O   O24  0.401390  0.767270  0.791870  -0.272004
    N   N4   0.323150  0.854530  0.750130  0.339658
