# generated using pymatgen
data_ZnH5C9NO6
_symmetry_space_group_name_H-M   'P 1'
_cell_length_a   10.74350000
_cell_length_b   20.75500000
_cell_length_c   10.00000000
_cell_angle_alpha   90.00000000
_cell_angle_beta   90.00000000
_cell_angle_gamma   121.05100000
_symmetry_Int_Tables_number   1
_chemical_formula_structural   ZnH5C9NO6
_chemical_formula_sum   'Zn4 H20 C36 N4 O24'
_cell_volume   1910.30015156
_cell_formula_units_Z   4
loop_
 _symmetry_equiv_pos_site_id
 _symmetry_equiv_pos_as_xyz
  1  'x, y, z'
loop_
 _atom_site_type_symbol
 _atom_site_label
 _atom_site_symmetry_multiplicity
 _atom_site_fract_x
 _atom_site_fract_y
 _atom_site_fract_z
 _atom_site_occupancy
  Zn  Zn1  1  0.50010000  0.50018000  0.66577000  1
  Zn  Zn2  1  0.49994000  0.49983000  0.33423000  1
  Zn  Zn3  1  0.99877000  0.99988000  0.22563000  1
  Zn  Zn4  1  0.99934000  0.00023000  0.55716000  1
  H  H1  1  0.30572000  0.59486000  0.33066000  1
  H  H2  1  0.88249000  0.59451000  0.33080000  1
  H  H3  1  0.81818000  0.41965000  0.64343000  1
  H  H4  1  0.02233000  0.41982000  0.64336000  1
  H  H5  1  0.61465000  0.90440000  0.56064000  1
  H  H6  1  0.19260000  0.90522000  0.56056000  1
  H  H7  1  0.47714000  0.07996000  0.24792000  1
  H  H8  1  0.68072000  0.07956000  0.24795000  1
  H  H9  1  0.67214000  0.74540000  0.20228000  1
  H  H10  1  0.67753000  0.67741000  0.26381000  1
  H  H11  1  0.81815000  0.74549000  0.20211000  1
  H  H12  1  0.68149000  0.75474000  0.68913000  1
  H  H13  1  0.82250000  0.82265000  0.62759000  1
  H  H14  1  0.82715000  0.75449000  0.68928000  1
  H  H15  1  0.32690000  0.25461000  0.20243000  1
  H  H16  1  0.32236000  0.32282000  0.26402000  1
  H  H17  1  0.18146000  0.25508000  0.20199000  1
  H  H18  1  0.31620000  0.24480000  0.68925000  1
  H  H19  1  0.17492000  0.17724000  0.62737000  1
  H  H20  1  0.17111000  0.24563000  0.68913000  1
  C  C1  1  0.25743000  0.50018000  0.49992000  1
  C  C2  1  0.64670000  0.64669000  0.49985000  1
  C  C3  1  0.74254000  0.49976000  0.50008000  1
  C  C4  1  0.35291000  0.35331000  0.50015000  1
  C  C5  1  0.75639000  0.00015000  0.39150000  1
  C  C6  1  0.85295000  0.85337000  0.39155000  1
  C  C7  1  0.24180000  0.00003000  0.39128000  1
  C  C8  1  0.14474000  0.14675000  0.39124000  1
  C  C9  1  0.77031000  0.77056000  0.38958000  1
  C  C10  1  0.72935000  0.72950000  0.50181000  1
  C  C11  1  0.22827000  0.22955000  0.38952000  1
  C  C12  1  0.26938000  0.27050000  0.50187000  1
  C  C13  1  0.12149000  0.50007000  0.49996000  1
  C  C14  1  0.10599000  0.54858000  0.41320000  1
  C  C15  1  0.00948000  0.45146000  0.58677000  1
  C  C16  1  0.22049000  0.59607000  0.32840000  1
  C  C17  1  0.20940000  0.64514000  0.24063000  1
  C  C18  1  0.87848000  0.49987000  0.50004000  1
  C  C19  1  0.89398000  0.45136000  0.58681000  1
  C  C20  1  0.99050000  0.54848000  0.41323000  1
  C  C21  1  0.97026000  0.59586000  0.32848000  1
  C  C22  1  0.07899000  0.64504000  0.24067000  1
  C  C23  1  0.61970000  0.99929000  0.39135000  1
  C  C24  1  0.50746000  0.95085000  0.47813000  1
  C  C25  1  0.60478000  0.04798000  0.30455000  1
  C  C26  1  0.52711000  0.90329000  0.56291000  1
  C  C27  1  0.41814000  0.85428000  0.65070000  1
  C  C28  1  0.37736000  0.99976000  0.39131000  1
  C  C29  1  0.48961000  0.04820000  0.30453000  1
  C  C30  1  0.39229000  0.95108000  0.47811000  1
  C  C31  1  0.27757000  0.90377000  0.56287000  1
  C  C32  1  0.28809000  0.85453000  0.65067000  1
  C  C33  1  0.73076000  0.73093000  0.25125000  1
  C  C34  1  0.76890000  0.76913000  0.64015000  1
  C  C35  1  0.26859000  0.26931000  0.25130000  1
  C  C36  1  0.22906000  0.23075000  0.64009000  1
  N  N1  1  0.33349000  0.69644000  0.14904000  1
  N  N2  1  0.05673000  0.69621000  0.14913000  1
  N  N3  1  0.43977000  0.80290000  0.74227000  1
  N  N4  1  0.16378000  0.80344000  0.74222000  1
  O  O1  1  0.32104000  0.50063000  0.63580000  1
  O  O2  1  0.32055000  0.49996000  0.36399000  1
  O  O3  1  0.60837000  0.60829000  0.36388000  1
  O  O4  1  0.60873000  0.60863000  0.63570000  1
  O  O5  1  0.67914000  0.49951000  0.36420000  1
  O  O6  1  0.67934000  0.49990000  0.63601000  1
  O  O7  1  0.39142000  0.39171000  0.63612000  1
  O  O8  1  0.39153000  0.39137000  0.36430000  1
  O  O9  1  0.81901000  0.99963000  0.25562000  1
  O  O10  1  0.81989000  0.00030000  0.52743000  1
  O  O11  1  0.89128000  0.89177000  0.52751000  1
  O  O12  1  0.89093000  0.89143000  0.25570000  1
  O  O13  1  0.17897000  0.00035000  0.52717000  1
  O  O14  1  0.17837000  0.99996000  0.25537000  1
  O  O15  1  0.10658000  0.10835000  0.25528000  1
  O  O16  1  0.10740000  0.10869000  0.52709000  1
  O  O17  1  0.41476000  0.66737000  0.07715000  1
  O  O18  1  0.37335000  0.77558000  0.13152000  1
  O  O19  1  0.98679000  0.73668000  0.20064000  1
  O  O20  1  0.10494000  0.70570000  0.00824000  1
  O  O21  1  0.57894000  0.83184000  0.81415000  1
  O  O22  1  0.32171000  0.72380000  0.75980000  1
  O  O23  1  0.01318000  0.76309000  0.69072000  1
  O  O24  1  0.19301000  0.79390000  0.88310000  1
