# generated using pymatgen
data_Zn2H35C43N13O8
_symmetry_space_group_name_H-M   'P 1'
_cell_length_a   32.71890000
_cell_length_b   17.57240000
_cell_length_c   16.73770000
_cell_angle_alpha   90.04070000
_cell_angle_beta   89.86820000
_cell_angle_gamma   89.76990000
_symmetry_Int_Tables_number   1
_chemical_formula_structural   Zn2H35C43N13O8
_chemical_formula_sum   'Zn4 H70 C86 N26 O16'
_cell_volume   9623.22833603
_cell_formula_units_Z   2
loop_
 _symmetry_equiv_pos_site_id
 _symmetry_equiv_pos_as_xyz
  1  'x, y, z'
loop_
 _atom_site_type_symbol
 _atom_site_label
 _atom_site_symmetry_multiplicity
 _atom_site_fract_x
 _atom_site_fract_y
 _atom_site_fract_z
 _atom_site_occupancy
  Zn  Zn1  1  0.50000000  0.50001000  0.59904000  1
  Zn  Zn2  1  0.50000000  0.50002000  0.40096000  1
  Zn  Zn3  1  0.96293000  0.49776000  0.40096000  1
  Zn  Zn4  1  0.96292000  0.49800000  0.59904000  1
  H  H1  1  0.54588000  0.41504000  0.26938000  1
  H  H2  1  0.45414000  0.58501000  0.26991000  1
  H  H3  1  0.54585000  0.41498000  0.73008000  1
  H  H4  1  0.45414000  0.58501000  0.73063000  1
  H  H5  1  0.50016000  0.25696000  0.62619000  1
  H  H6  1  0.50004000  0.25674000  0.37371000  1
  H  H7  1  0.49989000  0.74328000  0.62630000  1
  H  H8  1  0.49982000  0.74307000  0.37383000  1
  H  H9  1  0.70251000  0.49933000  0.62218000  1
  H  H10  1  0.76042000  0.49892000  0.37783000  1
  H  H11  1  0.83209000  0.49873000  0.62143000  1
  H  H12  1  0.76007000  0.49906000  0.62223000  1
  H  H13  1  0.63083000  0.49952000  0.37857000  1
  H  H14  1  0.70286000  0.49918000  0.37777000  1
  H  H15  1  0.09370000  0.49758000  0.37365000  1
  H  H16  1  0.09336000  0.49736000  0.62613000  1
  H  H17  1  0.36958000  0.49972000  0.37386000  1
  H  H18  1  0.36922000  0.49942000  0.62634000  1
  H  H19  1  0.91719000  0.41243000  0.73060000  1
  H  H20  1  0.00865000  0.58155000  0.73011000  1
  H  H21  1  0.91722000  0.41300000  0.26991000  1
  H  H22  1  0.00864000  0.58219000  0.26939000  1
  H  H23  1  0.96152000  0.25469000  0.37398000  1
  H  H24  1  0.96164000  0.25475000  0.62645000  1
  H  H25  1  0.96263000  0.74100000  0.37375000  1
  H  H26  1  0.96270000  0.74109000  0.62623000  1
  H  H27  1  0.45578000  0.63451000  0.06036000  1
  H  H28  1  0.41284000  0.60893000  0.13409000  1
  H  H29  1  0.54423000  0.36549000  0.05978000  1
  H  H30  1  0.58717000  0.39108000  0.13315000  1
  H  H31  1  0.42756000  0.58172000  0.94033000  1
  H  H32  1  0.44110000  0.66178000  0.86678000  1
  H  H33  1  0.57244000  0.41826000  0.93954000  1
  H  H34  1  0.55890000  0.33820000  0.86599000  1
  H  H35  1  0.51998000  0.05690000  0.33931000  1
  H  H36  1  0.47989000  0.12728000  0.29908000  1
  H  H37  1  0.48002000  0.05755000  0.66069000  1
  H  H38  1  0.52018000  0.12728000  0.70089000  1
  H  H39  1  0.47985000  0.94285000  0.33958000  1
  H  H40  1  0.51991000  0.87240000  0.29889000  1
  H  H41  1  0.52004000  0.94275000  0.66048000  1
  H  H42  1  0.47992000  0.87309000  0.70119000  1
  H  H43  1  0.20068000  0.46081000  0.66047000  1
  H  H44  1  0.16268000  0.53516000  0.70104000  1
  H  H45  1  0.20079000  0.53577000  0.33946000  1
  H  H46  1  0.16355000  0.46085000  0.29884000  1
  H  H47  1  0.26181000  0.53591000  0.66065000  1
  H  H48  1  0.29970000  0.46147000  0.70100000  1
  H  H49  1  0.26258000  0.46162000  0.33936000  1
  H  H50  1  0.29994000  0.53663000  0.29908000  1
  H  H51  1  0.00693000  0.63132000  0.93968000  1
  H  H52  1  0.04990000  0.60526000  0.86594000  1
  H  H53  1  0.91892000  0.36311000  0.94020000  1
  H  H54  1  0.87594000  0.38901000  0.86683000  1
  H  H55  1  0.03523000  0.57841000  0.05969000  1
  H  H56  1  0.02156000  0.65868000  0.13326000  1
  H  H57  1  0.89062000  0.41628000  0.06045000  1
  H  H58  1  0.90430000  0.33618000  0.13398000  1
  H  H59  1  0.94203000  0.05514000  0.66081000  1
  H  H60  1  0.98200000  0.12520000  0.70106000  1
  H  H61  1  0.98198000  0.05505000  0.33943000  1
  H  H62  1  0.94171000  0.12510000  0.29924000  1
  H  H63  1  0.98235000  0.94072000  0.66052000  1
  H  H64  1  0.94240000  0.87068000  0.70119000  1
  H  H65  1  0.94215000  0.94062000  0.33961000  1
  H  H66  1  0.98239000  0.87054000  0.29889000  1
  H  H67  1  0.59492000  0.53718000  0.65740000  1
  H  H68  1  0.63212000  0.46236000  0.69940000  1
  H  H69  1  0.86794000  0.53574000  0.34261000  1
  H  H70  1  0.83087000  0.46121000  0.30060000  1
  C  C1  1  0.50015000  0.35159000  0.49993000  1
  C  C2  1  0.57972000  0.49982000  0.49985000  1
  C  C3  1  0.49982000  0.64844000  0.50008000  1
  C  C4  1  0.42028000  0.49994000  0.50015000  1
  C  C5  1  0.96303000  0.34946000  0.50004000  1
  C  C6  1  0.88321000  0.49842000  0.50015000  1
  C  C7  1  0.96286000  0.64630000  0.49996000  1
  C  C8  1  0.04265000  0.49707000  0.49985000  1
  C  C9  1  0.52635000  0.45121000  0.24030000  1
  C  C10  1  0.52643000  0.45106000  0.15617000  1
  C  C11  1  0.50001000  0.50000000  0.11369000  1
  C  C12  1  0.47359000  0.54896000  0.15647000  1
  C  C13  1  0.47367000  0.54882000  0.24060000  1
  C  C14  1  0.50001000  0.50000000  0.03572000  1
  C  C15  1  0.50001000  0.49999000  0.96428000  1
  C  C16  1  0.50000000  0.49999000  0.88631000  1
  C  C17  1  0.52641000  0.45103000  0.84352000  1
  C  C18  1  0.52633000  0.45117000  0.75939000  1
  C  C19  1  0.47367000  0.54882000  0.75971000  1
  C  C20  1  0.47359000  0.54896000  0.84384000  1
  C  C21  1  0.50011000  0.27095000  0.49995000  1
  C  C22  1  0.50012000  0.22910000  0.57245000  1
  C  C23  1  0.50008000  0.14897000  0.57269000  1
  C  C24  1  0.50003000  0.10830000  0.49999000  1
  C  C25  1  0.50001000  0.14884000  0.42727000  1
  C  C26  1  0.50005000  0.22897000  0.42746000  1
  C  C27  1  0.49999000  0.03403000  0.50001000  1
  C  C28  1  0.49996000  0.96599000  0.50003000  1
  C  C29  1  0.49992000  0.89173000  0.50004000  1
  C  C30  1  0.49993000  0.85118000  0.57275000  1
  C  C31  1  0.49989000  0.77104000  0.57255000  1
  C  C32  1  0.49985000  0.72908000  0.50006000  1
  C  C33  1  0.49985000  0.77093000  0.42756000  1
  C  C34  1  0.49988000  0.85106000  0.42734000  1
  C  C35  1  0.62378000  0.49962000  0.49990000  1
  C  C36  1  0.83915000  0.49863000  0.50011000  1
  C  C37  1  0.64523000  0.49956000  0.57158000  1
  C  C38  1  0.68809000  0.49936000  0.57228000  1
  C  C39  1  0.81770000  0.49868000  0.42843000  1
  C  C40  1  0.77484000  0.49888000  0.42772000  1
  C  C41  1  0.81750000  0.49877000  0.57174000  1
  C  C42  1  0.77463000  0.49897000  0.57237000  1
  C  C43  1  0.64543000  0.49948000  0.42826000  1
  C  C44  1  0.68830000  0.49928000  0.42763000  1
  C  C45  1  0.70987000  0.49922000  0.49998000  1
  C  C46  1  0.75306000  0.49902000  0.50002000  1
  C  C47  1  0.08595000  0.49741000  0.49988000  1
  C  C48  1  0.10856000  0.49765000  0.42741000  1
  C  C49  1  0.15160000  0.49798000  0.42722000  1
  C  C50  1  0.17331000  0.49808000  0.49995000  1
  C  C51  1  0.15140000  0.49785000  0.57264000  1
  C  C52  1  0.10836000  0.49752000  0.57240000  1
  C  C53  1  0.21319000  0.49839000  0.49997000  1
  C  C54  1  0.24974000  0.49866000  0.49999000  1
  C  C55  1  0.28962000  0.49897000  0.50003000  1
  C  C56  1  0.31153000  0.49922000  0.42734000  1
  C  C57  1  0.35457000  0.49954000  0.42759000  1
  C  C58  1  0.37697000  0.49962000  0.50011000  1
  C  C59  1  0.35436000  0.49937000  0.57258000  1
  C  C60  1  0.31133000  0.49904000  0.57276000  1
  C  C61  1  0.93666000  0.44846000  0.75969000  1
  C  C62  1  0.93658000  0.44841000  0.84383000  1
  C  C63  1  0.96292000  0.49716000  0.88631000  1
  C  C64  1  0.98926000  0.54582000  0.84354000  1
  C  C65  1  0.98918000  0.54559000  0.75941000  1
  C  C66  1  0.96292000  0.49724000  0.96428000  1
  C  C67  1  0.96292000  0.49732000  0.03572000  1
  C  C68  1  0.96293000  0.49741000  0.11369000  1
  C  C69  1  0.93660000  0.44874000  0.15647000  1
  C  C70  1  0.93668000  0.44898000  0.24060000  1
  C  C71  1  0.98918000  0.54614000  0.24030000  1
  C  C72  1  0.98926000  0.54618000  0.15617000  1
  C  C73  1  0.96155000  0.26882000  0.50022000  1
  C  C74  1  0.96160000  0.22689000  0.42771000  1
  C  C75  1  0.96178000  0.14676000  0.42745000  1
  C  C76  1  0.96190000  0.10617000  0.50015000  1
  C  C77  1  0.96184000  0.14679000  0.57287000  1
  C  C78  1  0.96167000  0.22693000  0.57270000  1
  C  C79  1  0.96205000  0.03190000  0.50011000  1
  C  C80  1  0.96220000  0.96386000  0.50007000  1
  C  C81  1  0.96236000  0.88960000  0.50005000  1
  C  C82  1  0.96242000  0.84896000  0.42732000  1
  C  C83  1  0.96259000  0.76883000  0.42751000  1
  C  C84  1  0.96270000  0.72694000  0.49999000  1
  C  C85  1  0.96263000  0.76888000  0.57250000  1
  C  C86  1  0.96246000  0.84901000  0.57274000  1
  N  N1  1  0.50001000  0.50002000  0.28445000  1
  N  N2  1  0.50000000  0.50000000  0.71555000  1
  N  N3  1  0.96292000  0.49698000  0.71555000  1
  N  N4  1  0.96293000  0.49761000  0.28445000  1
  N  N5  1  0.44487000  0.60216000  0.11314000  1
  N  N6  1  0.55514000  0.39784000  0.11251000  1
  N  N7  1  0.44488000  0.60219000  0.88751000  1
  N  N8  1  0.55512000  0.39780000  0.88684000  1
  N  N9  1  0.49995000  0.10734000  0.34824000  1
  N  N10  1  0.50010000  0.10762000  0.65174000  1
  N  N11  1  0.49988000  0.89242000  0.34829000  1
  N  N12  1  0.49996000  0.89267000  0.65179000  1
  N  N13  1  0.17354000  0.49795000  0.65170000  1
  N  N14  1  0.17395000  0.49822000  0.34820000  1
  N  N15  1  0.28897000  0.49878000  0.65178000  1
  N  N16  1  0.28939000  0.49915000  0.34828000  1
  N  N17  1  0.01789000  0.59881000  0.88688000  1
  N  N18  1  0.90795000  0.39551000  0.88747000  1
  N  N19  1  0.01788000  0.59910000  0.11252000  1
  N  N20  1  0.90798000  0.39572000  0.11314000  1
  N  N21  1  0.96197000  0.10539000  0.65189000  1
  N  N22  1  0.96183000  0.10531000  0.34839000  1
  N  N23  1  0.96240000  0.89047000  0.65180000  1
  N  N24  1  0.96231000  0.89036000  0.34830000  1
  N  N25  1  0.62204000  0.49971000  0.64969000  1
  N  N26  1  0.84088000  0.49853000  0.35031000  1
  O  O1  1  0.50030000  0.39025000  0.58112000  1
  O  O2  1  0.50010000  0.39027000  0.41872000  1
  O  O3  1  0.55893000  0.49987000  0.41863000  1
  O  O4  1  0.55895000  0.49996000  0.58103000  1
  O  O5  1  0.49978000  0.60978000  0.41888000  1
  O  O6  1  0.49983000  0.60975000  0.58128000  1
  O  O7  1  0.44107000  0.50000000  0.58137000  1
  O  O8  1  0.44105000  0.50019000  0.41897000  1
  O  O9  1  0.96281000  0.38802000  0.41886000  1
  O  O10  1  0.96301000  0.38823000  0.58125000  1
  O  O11  1  0.90400000  0.49837000  0.58137000  1
  O  O12  1  0.90397000  0.49828000  0.41897000  1
  O  O13  1  0.96297000  0.60774000  0.58114000  1
  O  O14  1  0.96292000  0.60753000  0.41875000  1
  O  O15  1  0.02186000  0.49723000  0.41864000  1
  O  O16  1  0.02188000  0.49761000  0.58103000  1
