data_DB1-Zn2O8N2-AZO_A-irmof8_A_No336_repeat
_audit_creation_date              2024-02-20
_audit_creation_method            'Materials Studio'
_symmetry_space_group_name_H-M    'P1'
_symmetry_Int_Tables_number       1
_symmetry_cell_setting            triclinic
loop_
_symmetry_equiv_pos_as_xyz
  x,y,z
_cell_length_a                    16.4924
_cell_length_b                    17.4766
_cell_length_c                    13.1908
_cell_angle_alpha                 89.8610
_cell_angle_beta                  92.2799
_cell_angle_gamma                 84.4493
loop_
_atom_site_label
_atom_site_type_symbol
_atom_site_fract_x
_atom_site_fract_y
_atom_site_fract_z
_atom_site_U_iso_or_equiv
_atom_site_adp_type
_atom_site_occupancy
O1     O     0.58923   0.38595   0.50543   0.00000  Uiso   1.00
O2     O     0.42376   0.39251   0.49622   0.00000  Uiso   1.00
C1     C     0.50882   0.35020   0.50082   0.00000  Uiso   1.00
Zn1    Zn    0.60091   0.49603   0.50531   0.00000  Uiso   1.00
O3     O     0.41710   0.50332   0.64181   0.00000  Uiso   1.00
O4     O     0.58256   0.49689   0.65058   0.00000  Uiso   1.00
C2     C     0.49986   0.50007   0.69773   0.00000  Uiso   1.00
O5     O     0.41077   0.61407   0.49477   0.00000  Uiso   1.00
O6     O     0.57624   0.60752   0.50360   0.00000  Uiso   1.00
C3     C     0.49118   0.64982   0.49910   0.00000  Uiso   1.00
Zn2    Zn    0.39909   0.50400   0.49470   0.00000  Uiso   1.00
O7     O     0.58291   0.49654   0.35820   0.00000  Uiso   1.00
O8     O     0.41742   0.50327   0.34943   0.00000  Uiso   1.00
C4     C     0.50016   0.49969   0.30228   0.00000  Uiso   1.00
N1     N     0.28037   0.50869   0.48847   0.00000  Uiso   1.00
C5     C     0.23922   0.46131   0.55151   0.00000  Uiso   1.00
C6     C     0.15389   0.46481   0.54685   0.00000  Uiso   1.00
C7     C     0.10795   0.51569   0.47915   0.00000  Uiso   1.00
C8     C     0.14849   0.56287   0.41637   0.00000  Uiso   1.00
C9     C     0.23378   0.55956   0.42078   0.00000  Uiso   1.00
N2     N     0.02046   0.52060   0.47262   0.00000  Uiso   1.00
N3     N     0.97953   0.47942   0.52741   0.00000  Uiso   1.00
C10    C     0.85151   0.43715   0.58365   0.00000  Uiso   1.00
C11    C     0.89204   0.48433   0.52088   0.00000  Uiso   1.00
C12    C     0.84611   0.53521   0.45318   0.00000  Uiso   1.00
C13    C     0.76077   0.53871   0.44852   0.00000  Uiso   1.00
N4     N     0.71963   0.49133   0.51156   0.00000  Uiso   1.00
C14    C     0.76622   0.44046   0.57924   0.00000  Uiso   1.00
H1     H     0.27349   0.42170   0.60421   0.00000  Uiso   1.00
H2     H     0.12342   0.42803   0.59580   0.00000  Uiso   1.00
H3     H     0.88636   0.39778   0.63603   0.00000  Uiso   1.00
H4     H     0.87657   0.57199   0.40423   0.00000  Uiso   1.00
C15    C     0.51393   0.26446   0.50100   0.00000  Uiso   1.00
C16    C     0.44265   0.22589   0.49715   0.00000  Uiso   1.00
C17    C     0.44764   0.14536   0.49733   0.00000  Uiso   1.00
C18    C     0.52389   0.10178   0.50135   0.00000  Uiso   1.00
C19    C     0.59487   0.13978   0.50518   0.00000  Uiso   1.00
C20    C     0.59017   0.22026   0.50502   0.00000  Uiso   1.00
N5     N     0.53098   0.01921   0.50164   0.00000  Uiso   1.00
N6     N     0.46902   0.98081   0.49828   0.00000  Uiso   1.00
C21    C     0.40513   0.86024   0.49474   0.00000  Uiso   1.00
C22    C     0.47611   0.89825   0.49857   0.00000  Uiso   1.00
C23    C     0.55236   0.85466   0.50260   0.00000  Uiso   1.00
C24    C     0.55735   0.77413   0.50277   0.00000  Uiso   1.00
C25    C     0.48607   0.73556   0.49892   0.00000  Uiso   1.00
C26    C     0.40983   0.77976   0.49490   0.00000  Uiso   1.00
H5     H     0.38328   0.25841   0.49401   0.00000  Uiso   1.00
H6     H     0.39230   0.11681   0.49434   0.00000  Uiso   1.00
H7     H     0.34612   0.89332   0.49162   0.00000  Uiso   1.00
H8     H     0.60770   0.88321   0.50559   0.00000  Uiso   1.00
C27    C     0.55965   0.49749   0.12453   0.00000  Uiso   1.00
C28    C     0.41719   0.50300   0.15539   0.00000  Uiso   1.00
C29    C     0.39512   0.50392   0.05142   0.00000  Uiso   1.00
C30    C     0.45881   0.50149   0.98201   0.00000  Uiso   1.00
C31    C     0.44036   0.50227   0.87548   0.00000  Uiso   1.00
C32    C     0.58283   0.49676   0.84462   0.00000  Uiso   1.00
C33    C     0.60490   0.49584   0.94859   0.00000  Uiso   1.00
C34    C     0.54120   0.49827   0.01800   0.00000  Uiso   1.00
C35    C     0.50010   0.49976   0.19004   0.00000  Uiso   1.00
C36    C     0.49991   0.50000   0.80997   0.00000  Uiso   1.00
H9     H     0.37025   0.50480   0.21049   0.00000  Uiso   1.00
H10    H     0.62975   0.49497   0.78951   0.00000  Uiso   1.00
O9     O     0.26974   0.60397   0.36169   0.00000  Uiso   1.00
Li1    Li    0.23418   0.67127   0.27214   0.00000  Uiso   1.00
O10    O     0.10668   0.61010   0.35353   0.00000  Uiso   1.00
Li2    Li    0.00439   0.62998   0.32708   0.00000  Uiso   1.00
O11    O     0.73025   0.39605   0.63834   0.00000  Uiso   1.00
Li3    Li    0.76582   0.32875   0.72789   0.00000  Uiso   1.00
O12    O     0.71970   0.58619   0.38534   0.00000  Uiso   1.00
Li4    Li    0.74791   0.65095   0.29917   0.00000  Uiso   1.00
O13    O     0.65698   0.25396   0.50863   0.00000  Uiso   1.00
Li5    Li    0.75793   0.22007   0.51398   0.00000  Uiso   1.00
O14    O     0.66566   0.10010   0.50892   0.00000  Uiso   1.00
Li6    Li    0.69518   0.00350   0.51039   0.00000  Uiso   1.00
O15    O     0.34302   0.74606   0.49129   0.00000  Uiso   1.00
Li7    Li    0.24207   0.77995   0.48594   0.00000  Uiso   1.00
O16    O     0.62852   0.73515   0.50653   0.00000  Uiso   1.00
Li8    Li    0.72587   0.76144   0.51176   0.00000  Uiso   1.00
Cl1    Cl    0.70731   0.49183   0.99289   0.00000  Uiso   1.00
Cl2    Cl    0.66232   0.49349   0.16779   0.00000  Uiso   1.00
Cl3    Cl    0.29270   0.50794   0.00713   0.00000  Uiso   1.00
Cl4    Cl    0.33770   0.50626   0.83222   0.00000  Uiso   1.00
