# generated using pymatgen
data_Li4Zn4H16C40O21
_symmetry_space_group_name_H-M   'P 1'
_cell_length_a   23.28580000
_cell_length_b   17.95150000
_cell_length_c   34.45650000
_cell_angle_alpha   74.89980000
_cell_angle_beta   74.09680000
_cell_angle_gamma   67.33380000
_symmetry_Int_Tables_number   1
_chemical_formula_structural   Li4Zn4H16C40O21
_chemical_formula_sum   'Li16 Zn16 H64 C160 O84'
_cell_volume   12585.95266667
_cell_formula_units_Z   4
loop_
 _symmetry_equiv_pos_site_id
 _symmetry_equiv_pos_as_xyz
  1  'x, y, z'
loop_
 _atom_site_type_symbol
 _atom_site_label
 _atom_site_symmetry_multiplicity
 _atom_site_fract_x
 _atom_site_fract_y
 _atom_site_fract_z
 _atom_site_occupancy
  Li  Li1  1  0.03255000  0.92351000  0.67757000  1
  Li  Li2  1  0.03262000  0.36658000  0.67746000  1
  Li  Li3  1  0.71743000  0.13355000  0.57247000  1
  Li  Li4  1  0.71745000  0.57660000  0.57244000  1
  Li  Li5  1  0.07807000  0.85511000  0.21180000  1
  Li  Li6  1  0.85666000  0.85498000  0.43327000  1
  Li  Li7  1  0.39328000  0.64490000  0.31681000  1
  Li  Li8  1  0.17184000  0.64494000  0.53828000  1
  Li  Li9  1  0.89327000  0.64497000  0.81689000  1
  Li  Li10  1  0.67172000  0.64542000  0.03832000  1
  Li  Li11  1  0.57815000  0.85513000  0.71179000  1
  Li  Li12  1  0.35663000  0.85541000  0.93322000  1
  Li  Li13  1  0.21730000  0.13376000  0.07253000  1
  Li  Li14  1  0.21726000  0.57673000  0.07270000  1
  Li  Li15  1  0.53244000  0.92354000  0.17761000  1
  Li  Li16  1  0.53246000  0.36653000  0.17769000  1
  Zn  Zn1  1  0.54306000  0.38298000  0.51436000  1
  Zn  Zn2  1  0.50107000  0.52870000  0.44150000  1
  Zn  Zn3  1  0.41279000  0.52871000  0.52979000  1
  Zn  Zn4  1  0.54308000  0.55961000  0.51435000  1
  Zn  Zn5  1  0.20695000  0.11717000  0.73562000  1
  Zn  Zn6  1  0.33721000  0.97140000  0.72023000  1
  Zn  Zn7  1  0.24890000  0.97151000  0.80851000  1
  Zn  Zn8  1  0.20691000  0.94054000  0.73568000  1
  Zn  Zn9  1  0.74885000  0.97128000  0.30859000  1
  Zn  Zn10  1  0.70684000  0.94046000  0.23572000  1
  Zn  Zn11  1  0.70684000  0.11706000  0.23576000  1
  Zn  Zn12  1  0.83712000  0.97136000  0.22029000  1
  Zn  Zn13  1  0.91266000  0.52905000  0.02989000  1
  Zn  Zn14  1  0.04300000  0.55982000  0.01443000  1
  Zn  Zn15  1  0.04289000  0.38321000  0.01453000  1
  Zn  Zn16  1  0.00098000  0.52885000  0.94162000  1
  H  H1  1  0.95653000  0.07790000  0.65220000  1
  H  H2  1  0.95657000  0.31354000  0.65213000  1
  H  H3  1  0.79347000  0.18658000  0.59781000  1
  H  H4  1  0.79349000  0.42221000  0.59780000  1
  H  H5  1  0.10230000  0.80437000  0.28897000  1
  H  H6  1  0.98454000  0.80430000  0.40676000  1
  H  H7  1  0.26540000  0.69560000  0.34331000  1
  H  H8  1  0.14763000  0.69563000  0.46109000  1
  H  H9  1  0.42204000  0.09941000  0.70029000  1
  H  H10  1  0.52281000  0.08941000  0.70529000  1
  H  H11  1  0.51150000  0.27835000  0.61082000  1
  H  H12  1  0.56940000  0.18259000  0.65870000  1
  H  H13  1  0.76144000  0.77830000  0.36086000  1
  H  H14  1  0.81934000  0.68254000  0.40873000  1
  H  H15  1  0.67198000  0.59936000  0.45032000  1
  H  H16  1  0.77276000  0.58936000  0.45532000  1
  H  H17  1  0.62263000  0.06646000  0.37736000  1
  H  H18  1  0.56054000  0.02801000  0.43946000  1
  H  H19  1  0.53320000  0.24543000  0.46680000  1
  H  H20  1  0.51396000  0.12121000  0.48603000  1
  H  H21  1  0.28333000  0.74544000  0.71668000  1
  H  H22  1  0.26410000  0.62123000  0.73592000  1
  H  H23  1  0.37276000  0.56648000  0.62725000  1
  H  H24  1  0.31067000  0.52803000  0.68934000  1
  H  H25  1  0.76538000  0.69577000  0.84336000  1
  H  H26  1  0.64755000  0.69601000  0.96113000  1
  H  H27  1  0.60233000  0.80451000  0.78898000  1
  H  H28  1  0.48452000  0.80466000  0.90675000  1
  H  H29  1  0.98861000  0.40099000  0.88898000  1
  H  H30  1  0.93072000  0.41095000  0.84111000  1
  H  H31  1  0.07805000  0.22191000  0.79960000  1
  H  H32  1  0.97729000  0.31769000  0.79456000  1
  H  H33  1  0.03317000  0.75501000  0.96677000  1
  H  H34  1  0.01397000  0.87926000  0.98595000  1
  H  H35  1  0.12269000  0.93386000  0.87727000  1
  H  H36  1  0.06059000  0.97240000  0.93934000  1
  H  H37  1  0.29333000  0.18673000  0.09792000  1
  H  H38  1  0.29332000  0.42232000  0.09801000  1
  H  H39  1  0.45640000  0.07795000  0.15229000  1
  H  H40  1  0.45641000  0.31355000  0.15233000  1
  H  H41  1  0.01130000  0.59958000  0.11089000  1
  H  H42  1  0.06922000  0.58953000  0.15877000  1
  H  H43  1  0.92187000  0.77843000  0.20038000  1
  H  H44  1  0.02265000  0.68267000  0.20537000  1
  H  H45  1  0.87256000  0.43362000  0.12750000  1
  H  H46  1  0.81048000  0.47202000  0.18960000  1
  H  H47  1  0.78313000  0.25461000  0.21692000  1
  H  H48  1  0.76391000  0.37880000  0.23617000  1
  H  H49  1  0.33539000  0.40674000  0.54663000  1
  H  H50  1  0.23767000  0.21128000  0.64435000  1
  H  H51  1  0.48762000  0.71123000  0.39439000  1
  H  H52  1  0.58533000  0.90668000  0.29667000  1
  H  H53  1  0.62145000  0.43845000  0.37854000  1
  H  H54  1  0.71913000  0.24297000  0.28085000  1
  H  H55  1  0.46927000  0.74299000  0.53074000  1
  H  H56  1  0.37158000  0.93847000  0.62843000  1
  H  H57  1  0.26238000  0.09355000  0.85557000  1
  H  H58  1  0.16470000  0.28915000  0.95319000  1
  H  H59  1  0.21917000  0.75720000  0.78084000  1
  H  H60  1  0.12139000  0.56185000  0.87861000  1
  H  H61  1  0.73749000  0.90688000  0.14446000  1
  H  H62  1  0.83518000  0.71152000  0.04671000  1
  H  H63  1  0.87135000  0.06167000  0.12864000  1
  H  H64  1  0.96903000  0.25720000  0.03096000  1
  C  C1  1  0.57053000  0.35886000  0.42946000  1
  C  C2  1  0.36234000  0.59175000  0.45413000  1
  C  C3  1  0.42944000  0.35888000  0.57056000  1
  C  C4  1  0.42947000  0.64114000  0.57054000  1
  C  C5  1  0.63766000  0.40825000  0.54587000  1
  C  C6  1  0.57055000  0.64112000  0.42944000  1
  C  C7  1  0.32059000  0.14121000  0.67942000  1
  C  C8  1  0.38763000  0.90843000  0.79591000  1
  C  C9  1  0.17946000  0.14139000  0.82050000  1
  C  C10  1  0.17939000  0.85911000  0.82060000  1
  C  C11  1  0.11235000  0.09189000  0.70411000  1
  C  C12  1  0.32052000  0.85893000  0.67952000  1
  C  C13  1  0.67937000  0.85886000  0.32061000  1
  C  C14  1  0.61224000  0.09184000  0.20423000  1
  C  C15  1  0.67938000  0.14109000  0.32067000  1
  C  C16  1  0.82044000  0.14122000  0.17957000  1
  C  C17  1  0.88758000  0.90824000  0.29595000  1
  C  C18  1  0.82044000  0.85898000  0.17951000  1
  C  C19  1  0.92940000  0.64152000  0.07058000  1
  C  C20  1  0.13751000  0.40846000  0.04602000  1
  C  C21  1  0.92922000  0.35927000  0.07073000  1
  C  C22  1  0.07037000  0.35895000  0.92965000  1
  C  C23  1  0.86225000  0.59201000  0.95421000  1
  C  C24  1  0.07055000  0.64120000  0.92951000  1
  C  C25  1  0.05792000  0.12817000  0.68596000  1
  C  C26  1  0.02961000  0.07943000  0.67655000  1
  C  C27  1  0.97552000  0.11528000  0.65851000  1
  C  C28  1  0.94812000  0.20134000  0.64935000  1
  C  C29  1  0.97554000  0.25087000  0.65848000  1
  C  C30  1  0.02964000  0.21462000  0.67651000  1
  C  C31  1  0.89798000  0.23475000  0.63264000  1
  C  C32  1  0.85205000  0.26536000  0.61733000  1
  C  C33  1  0.80191000  0.29878000  0.60062000  1
  C  C34  1  0.77449000  0.24925000  0.59148000  1
  C  C35  1  0.72039000  0.28551000  0.57345000  1
  C  C36  1  0.69210000  0.37196000  0.56402000  1
  C  C37  1  0.72040000  0.42070000  0.57344000  1
  C  C38  1  0.77450000  0.38484000  0.59147000  1
  C  C39  1  0.94203000  0.87194000  0.31409000  1
  C  C40  1  0.00411000  0.85309000  0.28973000  1
  C  C41  1  0.05831000  0.81702000  0.30765000  1
  C  C42  1  0.05185000  0.79872000  0.35068000  1
  C  C43  1  0.99055000  0.81698000  0.37543000  1
  C  C44  1  0.93655000  0.85305000  0.35731000  1
  C  C45  1  0.10200000  0.76529000  0.36738000  1
  C  C46  1  0.14794000  0.73466000  0.38268000  1
  C  C47  1  0.19808000  0.70124000  0.39939000  1
  C  C48  1  0.25938000  0.68295000  0.37464000  1
  C  C49  1  0.31338000  0.64689000  0.39277000  1
  C  C50  1  0.30789000  0.62804000  0.43598000  1
  C  C51  1  0.24581000  0.64690000  0.46034000  1
  C  C52  1  0.19161000  0.68297000  0.44242000  1
  C  C53  1  0.34934000  0.19865000  0.65067000  1
  C  C54  1  0.40986000  0.19426000  0.65286000  1
  C  C55  1  0.31578000  0.25696000  0.62152000  1
  C  C56  1  0.44156000  0.13515000  0.68242000  1
  C  C57  1  0.50180000  0.12877000  0.68561000  1
  C  C58  1  0.40071000  0.30140000  0.59930000  1
  C  C59  1  0.34019000  0.30579000  0.59710000  1
  C  C60  1  0.43427000  0.24309000  0.62845000  1
  C  C61  1  0.49445000  0.24095000  0.62952000  1
  C  C62  1  0.52937000  0.18391000  0.65804000  1
  C  C63  1  0.65065000  0.80135000  0.34933000  1
  C  C64  1  0.68421000  0.74304000  0.37849000  1
  C  C65  1  0.59014000  0.80574000  0.34714000  1
  C  C66  1  0.74440000  0.74090000  0.37956000  1
  C  C67  1  0.77932000  0.68386000  0.40808000  1
  C  C68  1  0.59929000  0.69860000  0.40070000  1
  C  C69  1  0.56573000  0.75691000  0.37155000  1
  C  C70  1  0.65980000  0.69421000  0.40290000  1
  C  C71  1  0.69151000  0.63510000  0.43245000  1
  C  C72  1  0.75175000  0.62872000  0.43564000  1
  C  C73  1  0.65061000  0.19861000  0.34938000  1
  C  C74  1  0.61303000  0.17735000  0.38697000  1
  C  C75  1  0.66124000  0.27379000  0.33875000  1
  C  C76  1  0.60371000  0.10176000  0.39628000  1
  C  C77  1  0.56667000  0.07832000  0.43333000  1
  C  C78  1  0.59926000  0.30137000  0.40074000  1
  C  C79  1  0.63684000  0.32263000  0.36315000  1
  C  C80  1  0.58862000  0.22619000  0.41137000  1
  C  C81  1  0.55084000  0.20758000  0.44916000  1
  C  C82  1  0.53911000  0.13346000  0.46088000  1
  C  C83  1  0.34939000  0.80139000  0.65062000  1
  C  C84  1  0.33876000  0.72621000  0.66125000  1
  C  C85  1  0.38697000  0.82265000  0.61304000  1
  C  C86  1  0.30097000  0.70759000  0.69904000  1
  C  C87  1  0.28925000  0.63348000  0.71077000  1
  C  C88  1  0.40074000  0.69863000  0.59927000  1
  C  C89  1  0.41137000  0.77381000  0.58863000  1
  C  C90  1  0.36316000  0.67737000  0.63685000  1
  C  C91  1  0.35385000  0.60178000  0.64616000  1
  C  C92  1  0.31680000  0.57834000  0.68321000  1
  C  C93  1  0.80782000  0.62831000  0.93605000  1
  C  C94  1  0.81334000  0.64710000  0.89284000  1
  C  C95  1  0.75935000  0.68316000  0.87469000  1
  C  C96  1  0.69804000  0.70151000  0.89943000  1
  C  C97  1  0.69154000  0.68330000  0.94246000  1
  C  C98  1  0.74573000  0.64724000  0.96040000  1
  C  C99  1  0.64791000  0.73493000  0.88271000  1
  C  C100  1  0.60199000  0.76555000  0.86739000  1
  C  C101  1  0.55185000  0.79896000  0.85067000  1
  C  C102  1  0.55834000  0.81720000  0.80765000  1
  C  C103  1  0.50415000  0.85325000  0.78971000  1
  C  C104  1  0.44206000  0.87215000  0.81406000  1
  C  C105  1  0.43655000  0.85334000  0.85728000  1
  C  C106  1  0.49055000  0.81728000  0.87542000  1
  C  C107  1  0.09938000  0.30173000  0.90054000  1
  C  C108  1  0.06583000  0.30610000  0.87139000  1
  C  C109  1  0.15988000  0.24341000  0.90275000  1
  C  C110  1  0.00565000  0.36522000  0.87030000  1
  C  C111  1  0.97074000  0.37158000  0.84178000  1
  C  C112  1  0.15073000  0.19891000  0.84921000  1
  C  C113  1  0.18429000  0.19455000  0.87836000  1
  C  C114  1  0.09023000  0.25723000  0.84700000  1
  C  C115  1  0.05853000  0.25934000  0.81745000  1
  C  C116  1  0.99829000  0.31640000  0.81424000  1
  C  C117  1  0.09923000  0.69897000  0.90074000  1
  C  C118  1  0.08862000  0.77417000  0.91134000  1
  C  C119  1  0.13682000  0.67766000  0.86317000  1
  C  C120  1  0.05083000  0.79284000  0.94912000  1
  C  C121  1  0.03912000  0.86697000  0.96081000  1
  C  C122  1  0.15064000  0.80166000  0.84935000  1
  C  C123  1  0.16125000  0.72646000  0.83874000  1
  C  C124  1  0.11305000  0.82297000  0.88692000  1
  C  C125  1  0.10376000  0.89858000  0.89620000  1
  C  C126  1  0.06671000  0.92208000  0.93323000  1
  C  C127  1  0.19195000  0.37214000  0.06417000  1
  C  C128  1  0.22025000  0.28569000  0.07358000  1
  C  C129  1  0.27435000  0.24940000  0.09161000  1
  C  C130  1  0.30176000  0.29890000  0.10077000  1
  C  C131  1  0.27434000  0.38496000  0.09166000  1
  C  C132  1  0.22024000  0.42085000  0.07363000  1
  C  C133  1  0.35190000  0.26545000  0.11748000  1
  C  C134  1  0.39783000  0.23481000  0.13279000  1
  C  C135  1  0.44797000  0.20137000  0.14950000  1
  C  C136  1  0.47539000  0.11531000  0.15862000  1
  C  C137  1  0.52949000  0.07943000  0.17665000  1
  C  C138  1  0.55779000  0.12814000  0.18609000  1
  C  C139  1  0.52950000  0.21460000  0.17667000  1
  C  C140  1  0.47539000  0.25088000  0.15865000  1
  C  C141  1  0.90052000  0.69883000  0.09938000  1
  C  C142  1  0.93408000  0.69441000  0.12853000  1
  C  C143  1  0.84000000  0.75715000  0.09719000  1
  C  C144  1  0.99427000  0.63531000  0.12959000  1
  C  C145  1  0.02919000  0.62890000  0.15811000  1
  C  C146  1  0.84917000  0.80153000  0.15076000  1
  C  C147  1  0.81560000  0.80595000  0.12161000  1
  C  C148  1  0.90968000  0.74322000  0.15295000  1
  C  C149  1  0.94139000  0.74105000  0.18251000  1
  C  C150  1  0.00164000  0.68401000  0.18569000  1
  C  C151  1  0.90052000  0.30151000  0.09950000  1
  C  C152  1  0.86295000  0.32274000  0.13709000  1
  C  C153  1  0.91115000  0.22634000  0.08886000  1
  C  C154  1  0.85365000  0.39831000  0.14641000  1
  C  C155  1  0.81661000  0.42172000  0.18346000  1
  C  C156  1  0.84917000  0.19872000  0.15085000  1
  C  C157  1  0.88674000  0.17749000  0.11326000  1
  C  C158  1  0.83855000  0.27389000  0.16149000  1
  C  C159  1  0.80077000  0.29247000  0.19928000  1
  C  C160  1  0.78905000  0.36656000  0.21102000  1
  O  O1  1  0.50000000  0.50000000  0.50000000  1
  O  O2  1  0.57443000  0.32838000  0.46778000  1
  O  O3  1  0.41730000  0.57674000  0.42918000  1
  O  O4  1  0.39310000  0.43552000  0.56469000  1
  O  O5  1  0.54356000  0.43550000  0.41422000  1
  O  O6  1  0.48886000  0.32840000  0.55335000  1
  O  O7  1  0.35241000  0.57675000  0.49408000  1
  O  O8  1  0.39312000  0.60670000  0.56468000  1
  O  O9  1  0.61515000  0.48817000  0.53837000  1
  O  O10  1  0.48889000  0.62941000  0.55332000  1
  O  O11  1  0.61514000  0.35834000  0.53838000  1
  O  O12  1  0.54358000  0.60668000  0.41421000  1
  O  O13  1  0.57445000  0.62940000  0.46775000  1
  O  O14  1  0.24999000  0.00016000  0.75001000  1
  O  O15  1  0.26117000  0.17172000  0.69662000  1
  O  O16  1  0.39757000  0.92339000  0.75596000  1
  O  O17  1  0.20641000  0.06476000  0.83576000  1
  O  O18  1  0.35692000  0.06456000  0.68531000  1
  O  O19  1  0.17558000  0.17182000  0.78219000  1
  O  O20  1  0.33266000  0.92347000  0.82085000  1
  O  O21  1  0.20637000  0.89356000  0.83582000  1
  O  O22  1  0.13485000  0.01197000  0.71164000  1
  O  O23  1  0.17550000  0.87079000  0.78229000  1
  O  O24  1  0.13488000  0.14180000  0.71160000  1
  O  O25  1  0.35687000  0.89337000  0.68537000  1
  O  O26  1  0.26110000  0.87068000  0.69673000  1
  O  O27  1  0.74991000  0.00004000  0.25009000  1
  O  O28  1  0.70635000  0.89327000  0.33586000  1
  O  O29  1  0.63475000  0.01192000  0.21171000  1
  O  O30  1  0.67547000  0.17160000  0.28236000  1
  O  O31  1  0.67547000  0.87062000  0.28230000  1
  O  O32  1  0.70635000  0.06445000  0.33589000  1
  O  O33  1  0.63475000  0.14173000  0.21174000  1
  O  O34  1  0.76103000  0.17168000  0.19679000  1
  O  O35  1  0.89751000  0.92328000  0.25600000  1
  O  O36  1  0.85679000  0.06458000  0.18542000  1
  O  O37  1  0.83262000  0.92322000  0.32090000  1
  O  O38  1  0.76102000  0.87069000  0.19672000  1
  O  O39  1  0.85679000  0.89341000  0.18538000  1
  O  O40  1  0.99988000  0.50023000  0.00012000  1
  O  O41  1  0.89302000  0.60710000  0.06474000  1
  O  O42  1  0.11504000  0.48838000  0.03848000  1
  O  O43  1  0.98863000  0.32872000  0.05353000  1
  O  O44  1  0.98883000  0.62972000  0.05338000  1
  O  O45  1  0.89291000  0.43592000  0.06483000  1
  O  O46  1  0.11496000  0.35855000  0.03855000  1
  O  O47  1  0.07424000  0.32853000  0.96797000  1
  O  O48  1  0.91722000  0.57693000  0.92928000  1
  O  O49  1  0.04344000  0.43558000  0.91438000  1
  O  O50  1  0.85230000  0.57707000  0.99416000  1
  O  O51  1  0.07443000  0.62953000  0.96782000  1
  O  O52  1  0.04355000  0.60675000  0.91429000  1
  O  O53  1  0.05341000  0.00002000  0.68450000  1
  O  O54  1  0.05345000  0.26229000  0.68443000  1
  O  O55  1  0.69659000  0.23784000  0.56552000  1
  O  O56  1  0.69660000  0.50010000  0.56550000  1
  O  O57  1  0.01205000  0.86898000  0.25004000  1
  O  O58  1  0.88099000  0.86890000  0.38114000  1
  O  O59  1  0.36894000  0.63101000  0.36894000  1
  O  O60  1  0.23786000  0.63104000  0.50004000  1
  O  O61  1  0.86891000  0.63117000  0.86902000  1
  O  O62  1  0.73776000  0.63143000  0.00009000  1
  O  O63  1  0.51211000  0.86908000  0.75002000  1
  O  O64  1  0.38098000  0.86924000  0.88110000  1
  O  O65  1  0.19645000  0.23804000  0.06562000  1
  O  O66  1  0.19643000  0.50025000  0.06572000  1
  O  O67  1  0.55329000  0.00002000  0.18457000  1
  O  O68  1  0.55330000  0.26225000  0.18462000  1
  O  O69  1  0.30558000  0.36945000  0.56527000  1
  O  O70  1  0.25073000  0.25973000  0.62013000  1
  O  O71  1  0.50067000  0.75968000  0.37017000  1
  O  O72  1  0.55553000  0.86940000  0.31531000  1
  O  O73  1  0.64716000  0.40417000  0.35283000  1
  O  O74  1  0.70200000  0.29443000  0.29799000  1
  O  O75  1  0.45213000  0.79445000  0.54787000  1
  O  O76  1  0.39730000  0.90419000  0.60271000  1
  O  O77  1  0.24933000  0.13087000  0.87977000  1
  O  O78  1  0.19449000  0.24067000  0.93458000  1
  O  O79  1  0.20201000  0.70576000  0.79800000  1
  O  O80  1  0.14712000  0.59610000  0.85288000  1
  O  O81  1  0.75054000  0.86962000  0.12023000  1
  O  O82  1  0.80538000  0.75995000  0.06536000  1
  O  O83  1  0.89706000  0.09597000  0.10292000  1
  O  O84  1  0.95190000  0.20573000  0.04809000  1
