# generated using pymatgen
data_Cu2H3C22N2(ClO)10
_symmetry_space_group_name_H-M   'P 1'
_cell_length_a   23.69060000
_cell_length_b   10.70030000
_cell_length_c   9.12930000
_cell_angle_alpha   89.99920000
_cell_angle_beta   89.99870000
_cell_angle_gamma   89.89210000
_symmetry_Int_Tables_number   1
_chemical_formula_structural   Cu2H3C22N2(ClO)10
_chemical_formula_sum   'Cu4 H6 C44 N4 Cl20 O20'
_cell_volume   2314.24174105
_cell_formula_units_Z   2
loop_
 _symmetry_equiv_pos_site_id
 _symmetry_equiv_pos_as_xyz
  1  'x, y, z'
loop_
 _atom_site_type_symbol
 _atom_site_label
 _atom_site_symmetry_multiplicity
 _atom_site_fract_x
 _atom_site_fract_y
 _atom_site_fract_z
 _atom_site_occupancy
  Cu  Cu1  1  0.50000000  0.49999000  0.36060000  1
  Cu  Cu2  1  0.50000000  0.49999000  0.63939000  1
  Cu  Cu3  1  0.04833000  0.49928000  0.63944000  1
  Cu  Cu4  1  0.04833000  0.50017000  0.36065000  1
  H  H1  1  0.89493000  0.49999000  0.26636000  1
  H  H2  1  0.65340000  0.49938000  0.73366000  1
  H  H3  1  0.80822000  0.49911000  0.85187000  1
  H  H4  1  0.90691000  0.49914000  0.77172000  1
  H  H5  1  0.74011000  0.50024000  0.14816000  1
  H  H6  1  0.64142000  0.50024000  0.22833000  1
  C  C1  1  0.60587000  0.49977000  0.49999000  1
  C  C2  1  0.39414000  0.50022000  0.50001000  1
  C  C3  1  0.49996000  0.73438000  0.49999000  1
  C  C4  1  0.50005000  0.26561000  0.50000000  1
  C  C5  1  0.94247000  0.49961000  0.50005000  1
  C  C6  1  0.15420000  0.49984000  0.50004000  1
  C  C7  1  0.04802000  0.73411000  0.50106000  1
  C  C8  1  0.04864000  0.26534000  0.49903000  1
  C  C9  1  0.53583000  0.42064000  0.92381000  1
  C  C10  1  0.46418000  0.57935000  0.07618000  1
  C  C11  1  0.53583000  0.42064000  0.07618000  1
  C  C12  1  0.46418000  0.57935000  0.92381000  1
  C  C13  1  0.49998000  0.86910000  0.50000000  1
  C  C14  1  0.50002000  0.13089000  0.50000000  1
  C  C15  1  0.50008000  0.93499000  0.63138000  1
  C  C16  1  0.49993000  0.06499000  0.36862000  1
  C  C17  1  0.50010000  0.06499000  0.63138000  1
  C  C18  1  0.49991000  0.93500000  0.36862000  1
  C  C19  1  0.84186000  0.49949000  0.60725000  1
  C  C20  1  0.86296000  0.49988000  0.35087000  1
  C  C21  1  0.80567000  0.49997000  0.31124000  1
  C  C22  1  0.76528000  0.49981000  0.42590000  1
  C  C23  1  0.70647000  0.49989000  0.39280000  1
  C  C24  1  0.68538000  0.49950000  0.64917000  1
  C  C25  1  0.74266000  0.49941000  0.68880000  1
  C  C26  1  0.78306000  0.49957000  0.57414000  1
  C  C27  1  0.87997000  0.49964000  0.50004000  1
  C  C28  1  0.66836000  0.49974000  0.50001000  1
  C  C29  1  0.33329000  0.50012000  0.50001000  1
  C  C30  1  0.21505000  0.49994000  0.50003000  1
  C  C31  1  0.30352000  0.50017000  0.36864000  1
  C  C32  1  0.24481000  0.49989000  0.63140000  1
  C  C33  1  0.24481000  0.50008000  0.36865000  1
  C  C34  1  0.30353000  0.49998000  0.63140000  1
  C  C35  1  0.01263000  0.42175000  0.07589000  1
  C  C36  1  0.08404000  0.58087000  0.92421000  1
  C  C37  1  0.01263000  0.42223000  0.92352000  1
  C  C38  1  0.08404000  0.58039000  0.07658000  1
  C  C39  1  0.04780000  0.86882000  0.50164000  1
  C  C40  1  0.04736000  0.13062000  0.50276000  1
  C  C41  1  0.04760000  0.93514000  0.37054000  1
  C  C42  1  0.04756000  0.06431000  0.63386000  1
  C  C43  1  0.04739000  0.06513000  0.37110000  1
  C  C44  1  0.04778000  0.93431000  0.63330000  1
  N  N1  1  0.50000000  0.49999000  0.84657000  1
  N  N2  1  0.50000000  0.49999000  0.15342000  1
  N  N3  1  0.04833000  0.50082000  0.15348000  1
  N  N4  1  0.04833000  0.50179000  0.84662000  1
  Cl  Cl1  1  0.58135000  0.31979000  0.82743000  1
  Cl  Cl2  1  0.41865000  0.68020000  0.17256000  1
  Cl  Cl3  1  0.58135000  0.31979000  0.17256000  1
  Cl  Cl4  1  0.41865000  0.68020000  0.82743000  1
  Cl  Cl5  1  0.50017000  0.85276000  0.79834000  1
  Cl  Cl6  1  0.49983000  0.14723000  0.20166000  1
  Cl  Cl7  1  0.50022000  0.14721000  0.79835000  1
  Cl  Cl8  1  0.49979000  0.85278000  0.20165000  1
  Cl  Cl9  1  0.34066000  0.50035000  0.20167000  1
  Cl  Cl10  1  0.20767000  0.49971000  0.79838000  1
  Cl  Cl11  1  0.20767000  0.50015000  0.20169000  1
  Cl  Cl12  1  0.34067000  0.49991000  0.79836000  1
  Cl  Cl13  1  0.96725000  0.32064000  0.17184000  1
  Cl  Cl14  1  0.12941000  0.68198000  0.82826000  1
  Cl  Cl15  1  0.96725000  0.32173000  0.82671000  1
  Cl  Cl16  1  0.12941000  0.68088000  0.17339000  1
  Cl  Cl17  1  0.04763000  0.85343000  0.20323000  1
  Cl  Cl18  1  0.04753000  0.14601000  0.80118000  1
  Cl  Cl19  1  0.04714000  0.14788000  0.20449000  1
  Cl  Cl20  1  0.04802000  0.85156000  0.79991000  1
  O  O1  1  0.57340000  0.49999000  0.36999000  1
  O  O2  1  0.42646000  0.50036000  0.37000000  1
  O  O3  1  0.49987000  0.66284000  0.37000000  1
  O  O4  1  0.49999000  0.33752000  0.37000000  1
  O  O5  1  0.50012000  0.33715000  0.63000000  1
  O  O6  1  0.50003000  0.66247000  0.62999000  1
  O  O7  1  0.42655000  0.50017000  0.63000000  1
  O  O8  1  0.57355000  0.49958000  0.62999000  1
  O  O9  1  0.97494000  0.49939000  0.63005000  1
  O  O10  1  0.12188000  0.49961000  0.63004000  1
  O  O11  1  0.04823000  0.66216000  0.63075000  1
  O  O12  1  0.04859000  0.33684000  0.62934000  1
  O  O13  1  0.04846000  0.33729000  0.36934000  1
  O  O14  1  0.04806000  0.66261000  0.37075000  1
  O  O15  1  0.12179000  0.50024000  0.37005000  1
  O  O16  1  0.97479000  0.49980000  0.37005000  1
  O  O17  1  0.76141000  0.49914000  0.84688000  1
  O  O18  1  0.86011000  0.49920000  0.76572000  1
  O  O19  1  0.78692000  0.50022000  0.15316000  1
  O  O20  1  0.68822000  0.50019000  0.23433000  1
