# generated using pymatgen
data_CuH14C16SO5
_symmetry_space_group_name_H-M   'P 1'
_cell_length_a   12.50110000
_cell_length_b   34.99640000
_cell_length_c   10.00000000
_cell_angle_alpha   90.00000000
_cell_angle_beta   90.00000000
_cell_angle_gamma   90.09640000
_symmetry_Int_Tables_number   1
_chemical_formula_structural   CuH14C16SO5
_chemical_formula_sum   'Cu4 H56 C64 S4 O20'
_cell_volume   4374.92876812
_cell_formula_units_Z   4
loop_
 _symmetry_equiv_pos_site_id
 _symmetry_equiv_pos_as_xyz
  1  'x, y, z'
loop_
 _atom_site_type_symbol
 _atom_site_label
 _atom_site_symmetry_multiplicity
 _atom_site_fract_x
 _atom_site_fract_y
 _atom_site_fract_z
 _atom_site_occupancy
  Cu  Cu1  1  0.50000000  0.50000000  0.62726000  1
  Cu  Cu2  1  0.50001000  0.50000000  0.37274000  1
  Cu  Cu3  1  0.50042000  0.00000000  0.28188000  1
  Cu  Cu4  1  0.49988000  0.00001000  0.53639000  1
  H  H1  1  0.50038000  0.74990000  0.30204000  1
  H  H2  1  0.50005000  0.75010000  0.60716000  1
  H  H3  1  0.50016000  0.25010000  0.30202000  1
  H  H4  1  0.49974000  0.24990000  0.60714000  1
  H  H5  1  0.56339000  0.87992000  0.10284000  1
  H  H6  1  0.50038000  0.91373000  0.16874000  1
  H  H7  1  0.43799000  0.87976000  0.10246000  1
  H  H8  1  0.43782000  0.81066000  0.10233000  1
  H  H9  1  0.50069000  0.77671000  0.16758000  1
  H  H10  1  0.56322000  0.81082000  0.10238000  1
  H  H11  1  0.43716000  0.87987000  0.71542000  1
  H  H12  1  0.50018000  0.91373000  0.64939000  1
  H  H13  1  0.56257000  0.87986000  0.71580000  1
  H  H14  1  0.56272000  0.81187000  0.71732000  1
  H  H15  1  0.49984000  0.77744000  0.65480000  1
  H  H16  1  0.43732000  0.81188000  0.71728000  1
  H  H17  1  0.56327000  0.68821000  0.19207000  1
  H  H18  1  0.50027000  0.72257000  0.25437000  1
  H  H19  1  0.43787000  0.68805000  0.19169000  1
  H  H20  1  0.43770000  0.62007000  0.19354000  1
  H  H21  1  0.50057000  0.58628000  0.25977000  1
  H  H22  1  0.56310000  0.62023000  0.19358000  1
  H  H23  1  0.43705000  0.68926000  0.80665000  1
  H  H24  1  0.50006000  0.72328000  0.74163000  1
  H  H25  1  0.56245000  0.68925000  0.80703000  1
  H  H26  1  0.56261000  0.62015000  0.80654000  1
  H  H27  1  0.49973000  0.58627000  0.74042000  1
  H  H28  1  0.43720000  0.62016000  0.80650000  1
  H  H29  1  0.43767000  0.12008000  0.10257000  1
  H  H30  1  0.50052000  0.08628000  0.16871000  1
  H  H31  1  0.56307000  0.12025000  0.10267000  1
  H  H32  1  0.56322000  0.18935000  0.10255000  1
  H  H33  1  0.50019000  0.22329000  0.16755000  1
  H  H34  1  0.43782000  0.18919000  0.10211000  1
  H  H35  1  0.56238000  0.12013000  0.71563000  1
  H  H36  1  0.49953000  0.08627000  0.64935000  1
  H  H37  1  0.43698000  0.12014000  0.71553000  1
  H  H38  1  0.43681000  0.18813000  0.71706000  1
  H  H39  1  0.49983000  0.22256000  0.65478000  1
  H  H40  1  0.56221000  0.18812000  0.71749000  1
  H  H41  1  0.43752000  0.31180000  0.19181000  1
  H  H42  1  0.50038000  0.27744000  0.25436000  1
  H  H43  1  0.56293000  0.31196000  0.19192000  1
  H  H44  1  0.56308000  0.37994000  0.19377000  1
  H  H45  1  0.50004000  0.41373000  0.25976000  1
  H  H46  1  0.43768000  0.37978000  0.19333000  1
  H  H47  1  0.56224000  0.31074000  0.80687000  1
  H  H48  1  0.49938000  0.27672000  0.74161000  1
  H  H49  1  0.43683000  0.31075000  0.80677000  1
  H  H50  1  0.43666000  0.37985000  0.80629000  1
  H  H51  1  0.49970000  0.41373000  0.74041000  1
  H  H52  1  0.56207000  0.37984000  0.80673000  1
  H  H53  1  0.92391000  0.49984000  0.81684000  1
  H  H54  1  0.07610000  0.50016000  0.18315000  1
  H  H55  1  0.92474000  0.00066000  0.09372000  1
  H  H56  1  0.07556000  0.00053000  0.72792000  1
  C  C1  1  0.70063000  0.50003000  0.50001000  1
  C  C2  1  0.29938000  0.49997000  0.49999000  1
  C  C3  1  0.49987000  0.42834000  0.49999000  1
  C  C4  1  0.50015000  0.57167000  0.50000000  1
  C  C5  1  0.70078000  0.00021000  0.40980000  1
  C  C6  1  0.29953000  0.99980000  0.40847000  1
  C  C7  1  0.50003000  0.07167000  0.40912000  1
  C  C8  1  0.50028000  0.92834000  0.40915000  1
  C  C9  1  0.50028000  0.88566000  0.40916000  1
  C  C10  1  0.50014000  0.86506000  0.53008000  1
  C  C11  1  0.50014000  0.82503000  0.53024000  1
  C  C12  1  0.50027000  0.80443000  0.40893000  1
  C  C13  1  0.50040000  0.82510000  0.28832000  1
  C  C14  1  0.50040000  0.86509000  0.28824000  1
  C  C15  1  0.50027000  0.76182000  0.40144000  1
  C  C16  1  0.50016000  0.73818000  0.50777000  1
  C  C17  1  0.50003000  0.67490000  0.62087000  1
  C  C18  1  0.50016000  0.69557000  0.50026000  1
  C  C19  1  0.50029000  0.67498000  0.37894000  1
  C  C20  1  0.50029000  0.63495000  0.37910000  1
  C  C21  1  0.50015000  0.61434000  0.50001000  1
  C  C22  1  0.50002000  0.63491000  0.62094000  1
  C  C23  1  0.50002000  0.11434000  0.40913000  1
  C  C24  1  0.49985000  0.13495000  0.53004000  1
  C  C25  1  0.49985000  0.17498000  0.53022000  1
  C  C26  1  0.50002000  0.19557000  0.40890000  1
  C  C27  1  0.50019000  0.17491000  0.28829000  1
  C  C28  1  0.50019000  0.13492000  0.28821000  1
  C  C29  1  0.50002000  0.23818000  0.40142000  1
  C  C30  1  0.49987000  0.26182000  0.50774000  1
  C  C31  1  0.49971000  0.32510000  0.62085000  1
  C  C32  1  0.49988000  0.30443000  0.50024000  1
  C  C33  1  0.50005000  0.32503000  0.37892000  1
  C  C34  1  0.50004000  0.36505000  0.37909000  1
  C  C35  1  0.49987000  0.38566000  0.50000000  1
  C  C36  1  0.49971000  0.36509000  0.62092000  1
  C  C37  1  0.88935000  0.49996000  0.60607000  1
  C  C38  1  0.11066000  0.50005000  0.39392000  1
  C  C39  1  0.81999000  0.50002000  0.50000000  1
  C  C40  1  0.18002000  0.49998000  0.49999000  1
  C  C41  1  0.00000000  0.50004000  0.43165000  1
  C  C42  1  0.00001000  0.49997000  0.56834000  1
  C  C43  1  0.88973000  0.00050000  0.30437000  1
  C  C44  1  0.11057000  0.00068000  0.51727000  1
  C  C45  1  0.82014000  0.00036000  0.41021000  1
  C  C46  1  0.18016000  0.00082000  0.41143000  1
  C  C47  1  0.00000000  0.00056000  0.47917000  1
  C  C48  1  0.00030000  0.00063000  0.34247000  1
  C  C49  1  0.50055000  0.88669000  0.15263000  1
  C  C50  1  0.50055000  0.80379000  0.15216000  1
  C  C51  1  0.50000000  0.88669000  0.66560000  1
  C  C52  1  0.49999000  0.80461000  0.66806000  1
  C  C53  1  0.50044000  0.69540000  0.24112000  1
  C  C54  1  0.50043000  0.61332000  0.24357000  1
  C  C55  1  0.49988000  0.69621000  0.75703000  1
  C  C56  1  0.49988000  0.61331000  0.75654000  1
  C  C57  1  0.50038000  0.11332000  0.15260000  1
  C  C58  1  0.50037000  0.19622000  0.15213000  1
  C  C59  1  0.49967000  0.11331000  0.66557000  1
  C  C60  1  0.49966000  0.19540000  0.66803000  1
  C  C61  1  0.50024000  0.30461000  0.24110000  1
  C  C62  1  0.50023000  0.38669000  0.24356000  1
  C  C63  1  0.49952000  0.30379000  0.75701000  1
  C  C64  1  0.49952000  0.38669000  0.75653000  1
  S  S1  1  0.88440000  0.50010000  0.34692000  1
  S  S2  1  0.11561000  0.49991000  0.65307000  1
  S  S3  1  0.88421000  0.00037000  0.56350000  1
  S  S4  1  0.11609000  0.00082000  0.25814000  1
  O  O1  1  0.63909000  0.49998000  0.61869000  1
  O  O2  1  0.36063000  0.49991000  0.61867000  1
  O  O3  1  0.49970000  0.45021000  0.61868000  1
  O  O4  1  0.50002000  0.54968000  0.61868000  1
  O  O5  1  0.50027000  0.54979000  0.38132000  1
  O  O6  1  0.50003000  0.45032000  0.38132000  1
  O  O7  1  0.36081000  0.49997000  0.38131000  1
  O  O8  1  0.63938000  0.50010000  0.38133000  1
  O  O9  1  0.63949000  0.00019000  0.29091000  1
  O  O10  1  0.36103000  0.99992000  0.29000000  1
  O  O11  1  0.50011000  0.04979000  0.29044000  1
  O  O12  1  0.50041000  0.95032000  0.29047000  1
  O  O13  1  0.50015000  0.95021000  0.52783000  1
  O  O14  1  0.49993000  0.04968000  0.52780000  1
  O  O15  1  0.36070000  0.99987000  0.52735000  1
  O  O16  1  0.63927000  0.00007000  0.52827000  1
  O  O17  1  0.85299000  0.49988000  0.75006000  1
  O  O18  1  0.14702000  0.50012000  0.24993000  1
  O  O19  1  0.85367000  0.00053000  0.16026000  1
  O  O20  1  0.14663000  0.00065000  0.66138000  1
