# Generated by REPEAT Assigner based on pymatgen
data_DB1-Cu2O8N2-irmof10_A-irmof8_A_No334
_audit_creation_date              2022-05-24
_audit_creation_method            REPEAT_Assigner
_cell_length_a                    12.990200
_cell_length_b                    27.936000
_cell_length_c                    13.374700
_cell_angle_alpha                 90.000300
_cell_angle_beta                  89.997100
_cell_angle_gamma                 89.902400
_cell_volume                      4853.594372
_symmetry_space_group_name_H-M    P1
_symmetry_Int_Tables_number       1
loop_
    _symmetry_equiv_pos_site_id
    _symmetry_equiv_pos_as_xyz
    1  x,y,z
loop_
    _atom_site_type_symbol
    _atom_site_label
    _atom_site_fract_x
    _atom_site_fract_y
    _atom_site_fract_z
    _atom_type_partial_charge
    Cu  Cu1  0.500010  0.500000  0.404850  0.799778
    Cu  Cu2  0.500010  0.500000  0.595150  0.998472
    O   O1   0.633860  0.500030  0.411260  -0.488519
    O   O2   0.365890  0.500110  0.411270  -0.425333
    O   O3   0.499720  0.562370  0.411270  -0.370860
    O   O4   0.500030  0.437760  0.411260  -0.406770
    O   O5   0.500260  0.437620  0.588730  -0.466199
    O   O6   0.500030  0.562230  0.588730  -0.525143
    O   O7   0.366050  0.500030  0.588740  -0.555445
    O   O8   0.634130  0.499870  0.588720  -0.400614
    C   C1   0.693080  0.499960  0.499990  0.377316
    C   C2   0.306940  0.500040  0.500010  0.470939
    C   C3   0.499870  0.589770  0.500000  0.444815
    C   C4   0.500150  0.410220  0.500000  0.482655
    Cu  Cu3  0.500360  0.965000  0.595170  0.802474
    Cu  Cu4  0.499700  0.965000  0.404870  0.979920
    O   O9   0.634190  0.964750  0.588310  -0.487583
    O   O10  0.366220  0.965100  0.589200  -0.430430
    O   O11  0.500040  0.902620  0.588760  -0.377507
    O   O12  0.500370  0.027230  0.588760  -0.406036
    O   O13  0.499990  0.027370  0.411290  -0.462283
    O   O14  0.499740  0.902760  0.411290  -0.522179
    O   O15  0.365760  0.965180  0.411740  -0.554053
    O   O16  0.633850  0.964910  0.410850  -0.398725
    C   C5   0.693100  0.964730  0.499380  0.378442
    C   C6   0.306970  0.965270  0.500660  0.476138
    C   C7   0.499890  0.875220  0.500020  0.454013
    C   C8   0.500180  0.054770  0.500020  0.480518
    N   N1   0.500010  0.500000  0.736560  -0.319972
    N   N2   0.500010  0.500000  0.263430  -0.302776
    C   C9   0.565360  0.469620  0.789280  0.632563
    C   C10  0.565970  0.469340  0.894140  -0.533166
    C   C11  0.434650  0.530380  0.210720  0.630933
    C   C12  0.434050  0.530660  0.105860  -0.491416
    C   C13  0.565360  0.469620  0.210710  0.191901
    C   C14  0.565970  0.469330  0.105850  -0.472889
    C   C15  0.434660  0.530380  0.789290  0.175264
    C   C16  0.434050  0.530660  0.894150  -0.510350
    C   C17  0.500010  0.500000  0.947170  0.317198
    C   C18  0.500010  0.500000  0.052830  0.228865
    H   H1   0.611460  0.448190  0.929580  0.117539
    H   H2   0.388560  0.551810  0.070410  0.132976
    H   H3   0.610670  0.448560  0.246590  0.067134
    H   H4   0.611460  0.448190  0.070400  0.139155
    H   H5   0.389350  0.551440  0.753410  0.092138
    H   H6   0.388560  0.551810  0.929600  0.185878
    C   C19  0.500010  0.789910  0.573200  -0.187371
    C   C20  0.499710  0.807790  0.398200  -0.087023
    C   C21  0.499660  0.759210  0.371150  -0.056000
    C   C22  0.499790  0.724960  0.449420  0.122875
    C   C23  0.499750  0.675090  0.426830  -0.183623
    C   C24  0.500050  0.657200  0.601820  -0.086566
    C   C25  0.500100  0.705780  0.628870  -0.061335
    C   C26  0.499970  0.740040  0.550600  0.133654
    C   C27  0.499890  0.822220  0.500020  -0.029553
    C   C28  0.499880  0.642770  0.500000  -0.026067
    H   H7   0.500170  0.801110  0.651440  0.096192
    H   H8   0.499620  0.834900  0.340520  0.118838
    H   H9   0.499590  0.663890  0.348580  0.095272
    H   H10  0.500150  0.630090  0.659490  0.120162
    C   C29  0.500150  0.358620  0.500000  -0.151457
    C   C30  0.500180  0.106370  0.500020  -0.146238
    C   C31  0.500040  0.333380  0.410330  0.581317
    C   C32  0.500040  0.283180  0.409500  -0.528552
    C   C33  0.500290  0.131620  0.589690  0.576211
    C   C34  0.500290  0.181820  0.590520  -0.523541
    C   C35  0.500050  0.131620  0.410340  -0.098155
    C   C36  0.500050  0.181820  0.409500  -0.328761
    C   C37  0.500270  0.333380  0.589680  -0.091803
    C   C38  0.500280  0.283180  0.590520  -0.335216
    C   C39  0.500160  0.257790  0.500010  0.236900
    C   C40  0.500170  0.207210  0.500010  0.226384
    H   H11  0.499960  0.266200  0.347080  0.131732
    H   H12  0.500370  0.198790  0.652940  0.130984
    H   H13  0.499970  0.114430  0.348180  0.096608
    H   H14  0.499960  0.198790  0.347080  0.122621
    H   H15  0.500360  0.350560  0.651840  0.094243
    H   H16  0.500370  0.266210  0.652940  0.124169
    C   C41  0.123480  0.500080  0.426820  -0.168243
    C   C42  0.161920  0.499930  0.601820  -0.086861
    C   C43  0.057450  0.499890  0.628870  -0.069261
    C   C44  0.983790  0.499950  0.550590  0.175575
    C   C45  0.876540  0.499920  0.573180  -0.257365
    C   C46  0.838100  0.500070  0.398180  -0.168967
    C   C47  0.942570  0.500100  0.371140  -0.006966
    C   C48  0.016230  0.500040  0.449410  0.071522
    C   C49  0.192970  0.500020  0.500010  -0.029910
    C   C50  0.807050  0.499970  0.500000  0.065431
    H   H17  0.147570  0.500160  0.348580  0.091136
    H   H18  0.220210  0.499890  0.659510  0.114954
    H   H19  0.852450  0.499830  0.651420  0.124749
    H   H20  0.779800  0.500110  0.340500  0.152561
    N   N3   0.499210  0.965000  0.263460  -0.311437
    N   N4   0.497390  0.965000  0.736590  -0.299938
    C   C51  0.564390  0.995270  0.210520  0.627190
    C   C52  0.564630  0.995560  0.105660  -0.532359
    C   C53  0.432210  0.934720  0.789530  0.629742
    C   C54  0.431970  0.934440  0.894390  -0.493618
    C   C55  0.562930  0.995270  0.789100  0.188675
    C   C56  0.563900  0.995560  0.893950  -0.470426
    C   C57  0.433670  0.934720  0.210950  0.173332
    C   C58  0.432700  0.934440  0.106100  -0.509115
    C   C59  0.498480  0.965000  0.052850  0.316846
    C   C60  0.498120  0.965000  0.947200  0.228933
    H   H21  0.610000  0.016630  0.070060  0.116846
    H   H22  0.386600  0.913370  0.929990  0.133566
    H   H23  0.608110  0.016260  0.753060  0.068823
    H   H24  0.609510  0.016630  0.929250  0.138324
    H   H25  0.388490  0.913740  0.246990  0.093925
    H   H26  0.387090  0.913370  0.070800  0.184923
    C   C61  0.123760  0.963910  0.571100  -0.171909
    C   C62  0.161590  0.964000  0.395970  -0.088522
    C   C63  0.057020  0.964210  0.369280  -0.069935
    C   C64  0.983640  0.964270  0.447800  0.178756
    C   C65  0.876300  0.964470  0.425570  -0.262114
    C   C66  0.838470  0.964380  0.600700  -0.170900
    C   C67  0.943040  0.964180  0.627390  -0.003506
    C   C68  0.016420  0.964120  0.548870  0.068599
    C   C69  0.192990  0.963860  0.497680  -0.025134
    C   C70  0.807070  0.964530  0.498990  0.069357
    H   H27  0.148110  0.963790  0.649260  0.092974
    H   H28  0.219680  0.963950  0.338080  0.115033
    H   H29  0.851940  0.964600  0.347410  0.126864
    H   H30  0.780370  0.964440  0.658570  0.151288
    O   O17  0.626620  0.441140  0.740760  -0.829302
    Li  Li1  0.715770  0.399700  0.778170  0.835207
    O   O18  0.373400  0.558850  0.259240  -0.833822
    Li  Li2  0.284240  0.600300  0.221830  0.856290
    O   O19  0.499920  0.356600  0.326280  -0.844048
    Li  Li3  0.499760  0.338690  0.203940  0.803863
    O   O20  0.500410  0.108390  0.673750  -0.842152
    Li  Li4  0.500570  0.126310  0.796080  0.802656
    O   O21  0.625810  0.023650  0.258830  -0.826076
    Li  Li5  0.714840  0.064950  0.221120  0.833993
    O   O22  0.370790  0.906350  0.741220  -0.828842
    Li  Li6  0.281760  0.865050  0.778930  0.854969
    Cl  Cl1  0.500330  0.724320  0.754640  -0.073959
    Cl  Cl2  0.499450  0.740680  0.245380  -0.075259
    Cl  Cl3  0.982460  0.500220  0.245370  -0.096967
    Cl  Cl4  0.017570  0.499780  0.754630  -0.089480
    Cl  Cl5  0.983360  0.964000  0.753020  -0.097839
    Cl  Cl6  0.016710  0.964380  0.243650  -0.088347
