data_DB1-Cu2O8N2-AZO_A-irmof8_A_No328_repeat
_audit_creation_date              2024-02-20
_audit_creation_method            'Materials Studio'
_symmetry_space_group_name_H-M    'P1'
_symmetry_Int_Tables_number       1
_symmetry_cell_setting            triclinic
loop_
_symmetry_equiv_pos_as_xyz
  x,y,z
_cell_length_a                    15.6063
_cell_length_b                    17.2765
_cell_length_c                    12.9902
_cell_angle_alpha                 89.9190
_cell_angle_beta                  87.4608
_cell_angle_gamma                 95.7732
loop_
_atom_site_label
_atom_site_type_symbol
_atom_site_fract_x
_atom_site_fract_y
_atom_site_fract_z
_atom_site_U_iso_or_equiv
_atom_site_adp_type
_atom_site_occupancy
Cu1    Cu    0.41809   0.49671   0.50437   0.00000  Uiso   1.00
Cu2    Cu    0.58191   0.50328   0.49565   0.00000  Uiso   1.00
O1     O     0.42361   0.49698   0.63793   0.00000  Uiso   1.00
O2     O     0.42363   0.49711   0.36995   0.00000  Uiso   1.00
O3     O     0.42996   0.59821   0.50348   0.00000  Uiso   1.00
O4     O     0.41728   0.39589   0.50439   0.00000  Uiso   1.00
O5     O     0.57004   0.40178   0.49650   0.00000  Uiso   1.00
O6     O     0.58272   0.60410   0.49566   0.00000  Uiso   1.00
O7     O     0.57639   0.50312   0.36198   0.00000  Uiso   1.00
O8     O     0.57637   0.50285   0.63007   0.00000  Uiso   1.00
C1     C     0.49999   0.49993   0.69308   0.00000  Uiso   1.00
C2     C     0.50001   0.50006   0.30694   0.00000  Uiso   1.00
C3     C     0.50914   0.64576   0.49944   0.00000  Uiso   1.00
C4     C     0.49086   0.35423   0.50058   0.00000  Uiso   1.00
N1     N     0.29635   0.49183   0.51085   0.00000  Uiso   1.00
C5     C     0.25306   0.53979   0.44716   0.00000  Uiso   1.00
C6     C     0.16283   0.53605   0.45214   0.00000  Uiso   1.00
C7     C     0.11406   0.48433   0.52080   0.00000  Uiso   1.00
C8     C     0.15670   0.43657   0.58423   0.00000  Uiso   1.00
C9     C     0.24688   0.44013   0.57950   0.00000  Uiso   1.00
N2     N     0.02154   0.47916   0.52767   0.00000  Uiso   1.00
N3     N     0.97845   0.52083   0.47234   0.00000  Uiso   1.00
C10    C     0.84329   0.56342   0.41579   0.00000  Uiso   1.00
C11    C     0.88594   0.51566   0.47921   0.00000  Uiso   1.00
C12    C     0.83717   0.46395   0.54788   0.00000  Uiso   1.00
C13    C     0.74694   0.46020   0.55285   0.00000  Uiso   1.00
N4     N     0.70365   0.50816   0.48917   0.00000  Uiso   1.00
C14    C     0.75311   0.55986   0.42051   0.00000  Uiso   1.00
H1     H     0.28945   0.58005   0.39371   0.00000  Uiso   1.00
H2     H     0.13079   0.57329   0.40268   0.00000  Uiso   1.00
H3     H     0.88030   0.60343   0.36266   0.00000  Uiso   1.00
H4     H     0.86921   0.42670   0.59733   0.00000  Uiso   1.00
C15    C     0.48542   0.26748   0.50083   0.00000  Uiso   1.00
C16    C     0.56076   0.22869   0.49696   0.00000  Uiso   1.00
C17    C     0.55544   0.14721   0.49721   0.00000  Uiso   1.00
C18    C     0.47479   0.10287   0.50133   0.00000  Uiso   1.00
C19    C     0.39976   0.14108   0.50519   0.00000  Uiso   1.00
C20    C     0.40478   0.22251   0.50495   0.00000  Uiso   1.00
N5     N     0.46725   0.01932   0.50169   0.00000  Uiso   1.00
N6     N     0.53275   0.98067   0.49833   0.00000  Uiso   1.00
C21    C     0.60024   0.85891   0.49483   0.00000  Uiso   1.00
C22    C     0.52521   0.89712   0.49869   0.00000  Uiso   1.00
C23    C     0.44456   0.85278   0.50281   0.00000  Uiso   1.00
C24    C     0.43924   0.77130   0.50306   0.00000  Uiso   1.00
C25    C     0.51458   0.73251   0.49919   0.00000  Uiso   1.00
C26    C     0.59522   0.77748   0.49507   0.00000  Uiso   1.00
H5     H     0.62355   0.26178   0.49375   0.00000  Uiso   1.00
H6     H     0.61394   0.11850   0.49420   0.00000  Uiso   1.00
H7     H     0.66264   0.89256   0.49165   0.00000  Uiso   1.00
H8     H     0.38606   0.88149   0.50581   0.00000  Uiso   1.00
C27    C     0.43701   0.49760   0.12683   0.00000  Uiso   1.00
C28    C     0.58765   0.50340   0.15725   0.00000  Uiso   1.00
C29    C     0.61092   0.50427   0.05154   0.00000  Uiso   1.00
C30    C     0.54355   0.50167   0.98147   0.00000  Uiso   1.00
C31    C     0.56299   0.50239   0.87318   0.00000  Uiso   1.00
C32    C     0.41235   0.49659   0.84276   0.00000  Uiso   1.00
C33    C     0.38908   0.49572   0.94848   0.00000  Uiso   1.00
C34    C     0.45646   0.49833   0.01854   0.00000  Uiso   1.00
C35    C     0.50001   0.50004   0.19297   0.00000  Uiso   1.00
C36    C     0.49999   0.49995   0.80705   0.00000  Uiso   1.00
H9     H     0.63730   0.50532   0.21290   0.00000  Uiso   1.00
H10    H     0.36271   0.49467   0.78711   0.00000  Uiso   1.00
O9     O     0.28471   0.39516   0.63921   0.00000  Uiso   1.00
Li1    Li    0.24683   0.32682   0.72997   0.00000  Uiso   1.00
O10    O     0.11231   0.38857   0.64796   0.00000  Uiso   1.00
Li2    Li    0.00409   0.36818   0.67504   0.00000  Uiso   1.00
O11    O     0.71529   0.60483   0.36080   0.00000  Uiso   1.00
Li3    Li    0.75317   0.67318   0.27005   0.00000  Uiso   1.00
O12    O     0.70331   0.41195   0.61693   0.00000  Uiso   1.00
Li4    Li    0.73286   0.34632   0.70407   0.00000  Uiso   1.00
O13    O     0.33416   0.25639   0.50858   0.00000  Uiso   1.00
Li5    Li    0.22740   0.22178   0.51404   0.00000  Uiso   1.00
O14    O     0.32490   0.10071   0.50901   0.00000  Uiso   1.00
Li6    Li    0.29363   0.00290   0.51058   0.00000  Uiso   1.00
O15    O     0.66584   0.74360   0.49144   0.00000  Uiso   1.00
Li7    Li    0.77260   0.77821   0.48598   0.00000  Uiso   1.00
O16    O     0.36397   0.73163   0.50690   0.00000  Uiso   1.00
Li8    Li    0.26106   0.75791   0.51218   0.00000  Uiso   1.00
C37    C     0.29359   0.49206   0.98874   0.00000  Uiso   1.00
H11    H     0.26242   0.44535   0.96459   0.00000  Uiso   1.00
H12    H     0.29106   0.49210   0.06271   0.00000  Uiso   1.00
H13    H     0.26825   0.53647   0.96381   0.00000  Uiso   1.00
C38    C     0.34129   0.49395   0.16616   0.00000  Uiso   1.00
H14    H     0.31028   0.44725   0.14174   0.00000  Uiso   1.00
H15    H     0.33825   0.49398   0.24014   0.00000  Uiso   1.00
H16    H     0.31614   0.53837   0.14094   0.00000  Uiso   1.00
C39    C     0.70641   0.50794   0.01128   0.00000  Uiso   1.00
H17    H     0.73168   0.46341   0.03595   0.00000  Uiso   1.00
H18    H     0.70896   0.50814   0.93731   0.00000  Uiso   1.00
H19    H     0.73764   0.55453   0.03570   0.00000  Uiso   1.00
C40    C     0.65871   0.50604   0.83385   0.00000  Uiso   1.00
H20    H     0.68379   0.46150   0.85882   0.00000  Uiso   1.00
H21    H     0.66176   0.50624   0.75987   0.00000  Uiso   1.00
H22    H     0.68978   0.55262   0.85853   0.00000  Uiso   1.00
