# Generated by REPEAT Assigner based on pymatgen
data_DB1-Cu2O8N2-irmof20_A-irmof7_A_No325
_audit_creation_date              2022-05-24
_audit_creation_method            REPEAT_Assigner
_cell_length_a                    12.501100
_cell_length_b                    23.044300
_cell_length_c                    10.828700
_cell_angle_alpha                 89.999300
_cell_angle_beta                  89.999100
_cell_angle_gamma                 89.884700
_cell_volume                      3119.515819
_symmetry_space_group_name_H-M    P1
_symmetry_Int_Tables_number       1
loop_
    _symmetry_equiv_pos_site_id
    _symmetry_equiv_pos_as_xyz
    1  x,y,z
loop_
    _atom_site_type_symbol
    _atom_site_label
    _atom_site_fract_x
    _atom_site_fract_y
    _atom_site_fract_z
    _atom_type_partial_charge
    Cu  Cu1   0.499990  0.500000  0.382480  0.516335
    Cu  Cu2   0.499990  0.500000  0.617520  0.924140
    O   O1    0.499980  0.575460  0.390400  -0.305626
    O   O2    0.500320  0.424400  0.390410  -0.261822
    O   O3    0.639380  0.499860  0.390400  -0.447900
    O   O4    0.360920  0.499990  0.390410  -0.290832
    O   O5    0.360610  0.500130  0.609600  -0.444077
    O   O6    0.639070  0.500030  0.609590  -0.293939
    O   O7    0.500160  0.424490  0.609600  -0.389350
    O   O8    0.499630  0.575610  0.609590  -0.460934
    C   C1    0.499790  0.608840  0.500000  0.378718
    C   C2    0.500200  0.391170  0.500010  0.355547
    C   C3    0.700620  0.499960  0.500000  0.437450
    C   C4    0.299370  0.500050  0.500010  0.438412
    Cu  Cu3   0.499360  0.957520  0.617560  0.519481
    Cu  Cu4   0.500120  0.957520  0.382520  0.859993
    O   O9    0.499460  0.882070  0.609640  -0.336826
    O   O10   0.499630  0.033130  0.609630  -0.280813
    O   O11   0.638770  0.957410  0.610230  -0.399053
    O   O12   0.360320  0.957790  0.609040  -0.278998
    O   O13   0.360710  0.957660  0.389850  -0.483378
    O   O14   0.639160  0.957230  0.391030  -0.259666
    O   O15   0.500170  0.033040  0.390440  -0.384813
    O   O16   0.499810  0.881910  0.390440  -0.374147
    C   C5    0.499660  0.848690  0.500040  0.376904
    C   C6    0.499830  0.066360  0.500030  0.355338
    C   C7    0.700360  0.957200  0.500890  0.395183
    C   C8    0.299120  0.957850  0.499180  0.467948
    C   C9    0.439920  0.532580  0.872250  0.429782
    S   S1    0.586690  0.453000  0.866540  -0.178156
    C   C10   0.560070  0.467430  0.127750  0.285876
    S   S2    0.413300  0.547010  0.133460  -0.171059
    N   N1    0.499990  0.500000  0.792180  -0.193517
    N   N2    0.499990  0.500000  0.207820  -0.056172
    C   C11   0.538700  0.479020  0.000000  0.014437
    C   C12   0.461290  0.520990  0.000000  -0.113877
    C   C13   0.889340  0.499910  0.402050  0.103145
    S   S3    0.884380  0.500100  0.641360  -0.273048
    C   C14   0.110650  0.500100  0.597960  0.094768
    S   S4    0.115600  0.499910  0.358640  -0.320755
    C   C15   0.819980  0.499980  0.500000  -0.079088
    C   C16   0.180010  0.500030  0.500000  -0.013690
    C   C17   0.999990  0.500050  0.563120  0.129317
    C   C18   -0.000000  0.499950  0.436880  0.080994
    C   C19   0.499690  0.785360  0.500030  -0.005190
    C   C20   0.569080  0.755600  0.420230  0.099063
    C   C21   0.430330  0.755720  0.579820  -0.200134
    C   C22   0.636830  0.786920  0.342290  -0.445665
    C   C23   0.707030  0.758950  0.261560  0.313897
    H   H1    0.634980  0.827220  0.344400  0.219713
    C   C24   0.499750  0.672160  0.500010  -0.057215
    C   C25   0.430360  0.701920  0.579810  -0.128482
    C   C26   0.569110  0.701800  0.420220  0.212628
    C   C27   0.636900  0.670360  0.342270  -0.678221
    C   C28   0.707060  0.698210  0.261550  0.475032
    H   H2    0.635090  0.630070  0.344370  0.362419
    H   H3    0.385120  0.681320  0.631850  0.150649
    H   H4    0.385070  0.776410  0.631870  0.137499
    C   C29   0.500010  0.288790  0.597970  0.104539
    S   S5    0.500190  0.291470  0.358650  -0.259586
    C   C30   0.500020  0.168730  0.402070  0.085396
    S   S6    0.499840  0.166050  0.641390  -0.265917
    C   C31   0.500130  0.326420  0.500010  -0.004723
    C   C32   0.499900  0.131110  0.500030  0.011663
    C   C33   0.500060  0.228760  0.436900  0.080332
    C   C34   0.499970  0.228760  0.563140  0.083314
    C   C35   0.440900  0.925060  0.127530  0.485380
    S   S7    0.587560  0.004370  0.133870  -0.228564
    C   C36   0.561800  0.989980  0.872550  0.234989
    S   S8    0.415130  0.910670  0.866210  -0.152951
    N   N3    0.500680  0.957520  0.207860  -0.160039
    N   N4    0.502020  0.957520  0.792230  -0.047630
    C   C37   0.540030  0.978440  0.000210  0.082939
    C   C38   0.462660  0.936600  0.999880  -0.172013
    C   C39   0.888770  0.956890  0.599640  0.043123
    S   S9    0.884580  0.956710  0.360310  -0.258138
    C   C40   0.110700  0.956290  0.404680  0.096467
    S   S10   0.114890  0.956470  0.644010  -0.336097
    C   C41   0.819720  0.956950  0.501400  -0.046417
    C   C42   0.179750  0.956230  0.502920  -0.028987
    C   C43   0.999940  0.956540  0.439040  0.100611
    C   C44   0.999540  0.956640  0.565280  0.149861
    O   O17   0.369820  0.570580  0.836160  -0.711187
    Li  Li1   0.285460  0.616320  0.913920  0.759058
    O   O18   0.630170  0.429420  0.163830  -0.641351
    Li  Li2   0.714530  0.383680  0.086080  0.652751
    O   O19   0.858080  0.499810  0.287740  -0.380326
    Li  Li3   0.925440  0.499720  0.150190  0.477555
    O   O20   0.141910  0.500200  0.712260  -0.485124
    Li  Li4   0.074550  0.500290  0.849810  0.484958
    O   O21   0.499940  0.305750  0.712270  -0.504601
    Li  Li5   0.499800  0.269220  0.849830  0.526440
    O   O22   0.500080  0.151770  0.287770  -0.491854
    Li  Li6   0.500230  0.188310  0.150210  0.522040
    O   O23   0.370720  0.887180  0.163320  -0.755430
    Li  Li7   0.286670  0.841600  0.085210  0.768868
    O   O24   0.631970  0.027860  0.836760  -0.605266
    Li  Li8   0.716030  0.073440  0.914870  0.648150
    O   O25   0.857140  0.957050  0.713810  -0.422159
    Li  Li9   0.924060  0.957020  0.851650  0.495346
    O   O26   0.142330  0.956140  0.290500  -0.467969
    Li  Li10  0.075420  0.956160  0.152670  0.481089
    H   H5    0.749240  0.831530  0.127450  0.253339
    H   H6    0.864730  0.779320  0.165690  0.172453
    N   N5    0.780120  0.792940  0.177480  -0.642132
    H   H7    0.823440  0.625490  0.213260  0.262633
    H   H8    0.790700  0.677620  0.079830  0.245991
    N   N6    0.780190  0.664090  0.177460  -0.769056
