# Generated by REPEAT Assigner based on pymatgen
data_DB1-Cu2O8N2-ADC_A-irmof8_A_No12
_audit_creation_date              2022-05-24
_audit_creation_method            REPEAT_Assigner
_cell_length_a                    15.849400
_cell_length_b                    17.521800
_cell_length_c                    12.990200
_cell_angle_alpha                 89.918400
_cell_angle_beta                  87.674500
_cell_angle_gamma                 95.290000
_cell_volume                      3589.136846
_symmetry_space_group_name_H-M    P1
_symmetry_Int_Tables_number       1
loop_
    _symmetry_equiv_pos_site_id
    _symmetry_equiv_pos_as_xyz
    1  x,y,z
loop_
    _atom_site_type_symbol
    _atom_site_label
    _atom_site_fract_x
    _atom_site_fract_y
    _atom_site_fract_z
    _atom_type_partial_charge
    Cu  Cu1  0.419400  0.497030  0.504000  1.088449
    Cu  Cu2  0.580590  0.502960  0.496020  0.697690
    O   O1   0.424830  0.497280  0.637580  -0.567701
    O   O2   0.424850  0.497410  0.369600  -0.684030
    O   O3   0.430560  0.597020  0.503190  -0.410158
    O   O4   0.419120  0.397670  0.503990  -0.408912
    O   O5   0.569430  0.402970  0.496790  -0.454247
    O   O6   0.580870  0.602320  0.496060  -0.355736
    O   O7   0.575170  0.502820  0.362320  -0.517482
    O   O8   0.575140  0.502560  0.630410  -0.528131
    C   C1   0.499990  0.499930  0.693080  0.586591
    C   C2   0.500010  0.500060  0.306940  0.642427
    C   C3   0.508240  0.643630  0.499520  0.328349
    C   C4   0.491760  0.356360  0.500500  0.457308
    N   N1   0.299620  0.492630  0.509930  -0.363406
    C   C5   0.256760  0.539950  0.446180  0.221863
    C   C6   0.168050  0.536760  0.450480  -0.343963
    C   C7   0.119570  0.485920  0.518960  0.297740
    C   C8   0.162570  0.438730  0.582540  -0.175236
    C   C9   0.251200  0.441950  0.578200  0.396645
    C   C10  0.024950  0.479420  0.527720  -0.246279
    C   C11  0.975040  0.520580  0.472270  -0.236795
    C   C12  0.837420  0.561270  0.417470  -0.267911
    C   C13  0.880430  0.514080  0.481040  0.275012
    C   C14  0.831950  0.463230  0.549530  -0.212246
    C   C15  0.743240  0.460040  0.553830  0.071819
    N   N2   0.700380  0.507360  0.490090  -0.042722
    C   C16  0.748790  0.558040  0.421820  0.253053
    H   H1   0.292410  0.579490  0.392920  0.107137
    H   H2   0.138850  0.574390  0.399790  0.138854
    H   H3   0.872580  0.600970  0.363990  0.077282
    H   H4   0.861150  0.425610  0.600220  0.078173
    H   H5   0.996220  0.438170  0.583290  0.206578
    H   H6   0.003770  0.561830  0.416700  0.189564
    C   C17  0.486850  0.270840  0.500710  -0.104464
    C   C18  0.561060  0.232340  0.497180  -0.025748
    C   C19  0.556550  0.152120  0.497370  -0.311547
    C   C20  0.477350  0.108020  0.501120  0.302330
    C   C21  0.403350  0.146640  0.504640  -0.137119
    C   C22  0.407900  0.226790  0.504450  0.194882
    C   C23  0.467710  0.022450  0.501550  -0.244428
    C   C24  0.532320  0.977550  0.498470  -0.211670
    C   C25  0.596670  0.853340  0.495380  -0.297541
    C   C26  0.522670  0.891970  0.498900  0.261186
    C   C27  0.443460  0.847870  0.502650  -0.218918
    C   C28  0.438950  0.767650  0.502840  0.045417
    C   C29  0.513160  0.729150  0.499310  0.043286
    C   C30  0.592110  0.773200  0.495570  0.129222
    H   H7   0.622660  0.264790  0.494260  0.095605
    H   H8   0.615530  0.125930  0.494560  0.165866
    H   H9   0.658530  0.885340  0.492450  0.133315
    H   H10  0.384480  0.874060  0.505460  0.126814
    H   H11  0.403390  0.996250  0.504590  0.160711
    H   H12  0.596650  0.003740  0.495420  0.155552
    C   C31  0.438020  0.497850  0.126550  -0.144120
    C   C32  0.586240  0.503050  0.157650  0.049504
    C   C33  0.609140  0.503840  0.052040  -0.300641
    C   C34  0.542850  0.501500  0.981670  0.168469
    C   C35  0.561980  0.502140  0.873470  -0.147998
    C   C36  0.413760  0.496940  0.842370  0.062548
    C   C37  0.390860  0.496160  0.947970  -0.310419
    C   C38  0.457150  0.498500  0.018350  0.166099
    C   C39  0.500010  0.500040  0.192970  -0.095485
    C   C40  0.499990  0.499960  0.807050  -0.072306
    H   H13  0.371750  0.495540  0.153920  0.123075
    H   H14  0.635100  0.504790  0.213520  0.017821
    H   H15  0.675080  0.506150  0.024090  0.151922
    H   H16  0.628240  0.504450  0.846100  0.114569
    H   H17  0.364910  0.495210  0.786490  0.008470
    H   H18  0.324930  0.493850  0.975930  0.154236
    Cl  Cl1  0.301880  0.381650  0.659430  -0.000783
    Cl  Cl2  0.105420  0.374210  0.669450  -0.096994
    Cl  Cl3  0.685300  0.395780  0.640400  0.004297
    Cl  Cl4  0.698100  0.618340  0.340580  -0.003448
    Cl  Cl5  0.313360  0.272280  0.508950  -0.124894
    Cl  Cl6  0.302810  0.094630  0.509400  -0.059687
    Cl  Cl7  0.338820  0.714920  0.507580  -0.104501
    Cl  Cl8  0.686650  0.727700  0.491070  -0.122060
