data_DB1-Zn2O8-ADC_A-fum_A_No295_repeat
_audit_creation_date              2024-02-20
_audit_creation_method            'Materials Studio'
_symmetry_space_group_name_H-M    'P1'
_symmetry_Int_Tables_number       1
_symmetry_cell_setting            triclinic
loop_
_symmetry_equiv_pos_as_xyz
  x,y,z
_cell_length_a                    35.3975
_cell_length_b                    26.5894
_cell_length_c                    10.0000
_cell_angle_alpha                 90.0000
_cell_angle_beta                  90.0000
_cell_angle_gamma                 89.6957
loop_
_atom_site_label
_atom_site_type_symbol
_atom_site_fract_x
_atom_site_fract_y
_atom_site_fract_z
_atom_site_U_iso_or_equiv
_atom_site_adp_type
_atom_site_occupancy
O1     O     0.50045   0.42709   0.36552   0.00000  Uiso   1.00
O2     O     0.50008   0.42786   0.63731   0.00000  Uiso   1.00
C1     C     0.50025   0.40192   0.50185   0.00000  Uiso   1.00
Zn1    Zn    0.50011   0.49955   0.33424   0.00000  Uiso   1.00
O3     O     0.55438   0.50031   0.63619   0.00000  Uiso   1.00
O4     O     0.55458   0.49962   0.36438   0.00000  Uiso   1.00
C2     C     0.57369   0.49991   0.50026   0.00000  Uiso   1.00
O5     O     0.49962   0.57292   0.63449   0.00000  Uiso   1.00
O6     O     0.49985   0.57216   0.36269   0.00000  Uiso   1.00
C3     C     0.49972   0.59809   0.49815   0.00000  Uiso   1.00
Zn2    Zn    0.49989   0.50047   0.66576   0.00000  Uiso   1.00
O7     O     0.44562   0.49960   0.36381   0.00000  Uiso   1.00
O8     O     0.44542   0.50048   0.63561   0.00000  Uiso   1.00
C4     C     0.42632   0.49993   0.49974   0.00000  Uiso   1.00
O9     O     0.99990   0.42653   0.72791   0.00000  Uiso   1.00
O10    O     0.00028   0.42592   0.45611   0.00000  Uiso   1.00
C5     C     0.00022   0.40067   0.59249   0.00000  Uiso   1.00
Zn3    Zn    0.99991   0.49914   0.75659   0.00000  Uiso   1.00
O11    O     0.94564   0.49869   0.45461   0.00000  Uiso   1.00
O12    O     0.94543   0.49938   0.72642   0.00000  Uiso   1.00
C6     C     0.92633   0.49909   0.59054   0.00000  Uiso   1.00
O13    O     0.00007   0.57098   0.45374   0.00000  Uiso   1.00
O14    O     0.99983   0.57160   0.72555   0.00000  Uiso   1.00
C7     C     0.99984   0.59685   0.58917   0.00000  Uiso   1.00
Zn4    Zn    0.00013   0.49838   0.42506   0.00000  Uiso   1.00
O15    O     0.05440   0.49872   0.72704   0.00000  Uiso   1.00
O16    O     0.05461   0.49822   0.45523   0.00000  Uiso   1.00
C8     C     0.07370   0.49825   0.59112   0.00000  Uiso   1.00
O17    O     0.49984   0.90753   0.73701   0.00000  Uiso   1.00
O18    O     0.49993   0.90677   0.46521   0.00000  Uiso   1.00
C9     C     0.49984   0.93270   0.60067   0.00000  Uiso   1.00
Zn5    Zn    0.49954   0.83508   0.76828   0.00000  Uiso   1.00
O19    O     0.55432   0.83367   0.46747   0.00000  Uiso   1.00
O20    O     0.55406   0.83436   0.73928   0.00000  Uiso   1.00
C10    C     0.57339   0.83384   0.60381   0.00000  Uiso   1.00
O21    O     0.49964   0.76171   0.46802   0.00000  Uiso   1.00
O22    O     0.49942   0.76247   0.73982   0.00000  Uiso   1.00
C11    C     0.49954   0.73653   0.60437   0.00000  Uiso   1.00
Zn6    Zn    0.49988   0.83416   0.43675   0.00000  Uiso   1.00
O23    O     0.44510   0.83567   0.73756   0.00000  Uiso   1.00
O24    O     0.44535   0.83480   0.46575   0.00000  Uiso   1.00
C12    C     0.42602   0.83557   0.60122   0.00000  Uiso   1.00
O25    O     0.99829   0.90505   0.33925   0.00000  Uiso   1.00
O26    O     0.99820   0.90566   0.61105   0.00000  Uiso   1.00
C13    C     0.99817   0.93091   0.47467   0.00000  Uiso   1.00
Zn7    Zn    0.99893   0.83244   0.31058   0.00000  Uiso   1.00
O27    O     0.94415   0.83288   0.61139   0.00000  Uiso   1.00
O28    O     0.94441   0.83219   0.33958   0.00000  Uiso   1.00
C14    C     0.92508   0.83247   0.47505   0.00000  Uiso   1.00
O29    O     0.99916   0.76060   0.61343   0.00000  Uiso   1.00
O30    O     0.99939   0.75998   0.34163   0.00000  Uiso   1.00
C15    C     0.99938   0.73473   0.47800   0.00000  Uiso   1.00
Zn8    Zn    0.99859   0.83320   0.64210   0.00000  Uiso   1.00
O31    O     0.05337   0.83287   0.34129   0.00000  Uiso   1.00
O32    O     0.05311   0.83337   0.61311   0.00000  Uiso   1.00
C16    C     0.07244   0.83335   0.47763   0.00000  Uiso   1.00
C17    C     0.88414   0.49922   0.59060   0.00000  Uiso   1.00
C18    C     0.86375   0.49897   0.46972   0.00000  Uiso   1.00
C19    C     0.82418   0.49909   0.46962   0.00000  Uiso   1.00
C20    C     0.80383   0.49946   0.59096   0.00000  Uiso   1.00
C21    C     0.82428   0.49970   0.71154   0.00000  Uiso   1.00
C22    C     0.86381   0.49958   0.71156   0.00000  Uiso   1.00
C23    C     0.76170   0.49960   0.59852   0.00000  Uiso   1.00
C24    C     0.73832   0.49940   0.49223   0.00000  Uiso   1.00
C25    C     0.67574   0.49930   0.37923   0.00000  Uiso   1.00
C26    C     0.69619   0.49954   0.49981   0.00000  Uiso   1.00
C27    C     0.67584   0.49991   0.62116   0.00000  Uiso   1.00
C28    C     0.63627   0.50003   0.62106   0.00000  Uiso   1.00
C29    C     0.61588   0.49978   0.50019   0.00000  Uiso   1.00
C30    C     0.63620   0.49942   0.37923   0.00000  Uiso   1.00
H1     H     0.87866   0.49869   0.37517   0.00000  Uiso   1.00
H2     H     0.81014   0.49889   0.37395   0.00000  Uiso   1.00
H3     H     0.80959   0.49998   0.80654   0.00000  Uiso   1.00
H4     H     0.69042   0.49901   0.28423   0.00000  Uiso   1.00
H5     H     0.68987   0.50011   0.71683   0.00000  Uiso   1.00
H6     H     0.62136   0.50031   0.71562   0.00000  Uiso   1.00
H7     H     0.74993   0.49989   0.69793   0.00000  Uiso   1.00
H8     H     0.75009   0.49911   0.39282   0.00000  Uiso   1.00
C31    C     0.11589   0.49849   0.59105   0.00000  Uiso   1.00
C32    C     0.13626   0.49821   0.47011   0.00000  Uiso   1.00
C33    C     0.17583   0.49843   0.46988   0.00000  Uiso   1.00
C34    C     0.19620   0.49894   0.59116   0.00000  Uiso   1.00
C35    C     0.17578   0.49921   0.71180   0.00000  Uiso   1.00
C36    C     0.13625   0.49899   0.71194   0.00000  Uiso   1.00
C37    C     0.23833   0.49920   0.59859   0.00000  Uiso   1.00
C38    C     0.26169   0.49899   0.49223   0.00000  Uiso   1.00
C39    C     0.32424   0.49897   0.37903   0.00000  Uiso   1.00
C40    C     0.30382   0.49925   0.49967   0.00000  Uiso   1.00
C41    C     0.32419   0.49975   0.62095   0.00000  Uiso   1.00
C42    C     0.36376   0.49997   0.62074   0.00000  Uiso   1.00
C43    C     0.38413   0.49970   0.49980   0.00000  Uiso   1.00
C44    C     0.36378   0.49919   0.37890   0.00000  Uiso   1.00
H9     H     0.12133   0.49782   0.37560   0.00000  Uiso   1.00
H10    H     0.18984   0.49820   0.37417   0.00000  Uiso   1.00
H11    H     0.19049   0.49960   0.80675   0.00000  Uiso   1.00
H12    H     0.30954   0.49858   0.28407   0.00000  Uiso   1.00
H13    H     0.31018   0.49998   0.71667   0.00000  Uiso   1.00
H14    H     0.37869   0.50036   0.71525   0.00000  Uiso   1.00
H15    H     0.25012   0.49959   0.69796   0.00000  Uiso   1.00
H16    H     0.24990   0.49860   0.39285   0.00000  Uiso   1.00
C45    C     0.49958   0.68116   0.60716   0.00000  Uiso   1.00
C46    C     0.49969   0.65347   0.49535   0.00000  Uiso   1.00
C47    C     0.49988   0.98887   0.59971   0.00000  Uiso   1.00
C48    C     0.50006   0.01570   0.47834   0.00000  Uiso   1.00
C49    C     0.50009   0.06838   0.47727   0.00000  Uiso   1.00
C50    C     0.49994   0.09579   0.59812   0.00000  Uiso   1.00
C51    C     0.49976   0.06887   0.71919   0.00000  Uiso   1.00
C52    C     0.49973   0.01624   0.72017   0.00000  Uiso   1.00
C53    C     0.49996   0.15189   0.60466   0.00000  Uiso   1.00
C54    C     0.50013   0.18274   0.49781   0.00000  Uiso   1.00
C55    C     0.50033   0.26575   0.38330   0.00000  Uiso   1.00
C56    C     0.50015   0.23884   0.50436   0.00000  Uiso   1.00
C57    C     0.50000   0.26624   0.62522   0.00000  Uiso   1.00
C58    C     0.50003   0.31892   0.62417   0.00000  Uiso   1.00
C59    C     0.50022   0.34576   0.50280   0.00000  Uiso   1.00
C60    C     0.50037   0.31839   0.38233   0.00000  Uiso   1.00
H17    H     0.50017   0.99561   0.38415   0.00000  Uiso   1.00
H18    H     0.50023   0.08682   0.38126   0.00000  Uiso   1.00
H19    H     0.49964   0.08867   0.81384   0.00000  Uiso   1.00
H20    H     0.50045   0.24596   0.28865   0.00000  Uiso   1.00
H21    H     0.49986   0.24781   0.72123   0.00000  Uiso   1.00
H22    H     0.49992   0.33901   0.71836   0.00000  Uiso   1.00
H23    H     0.49984   0.16781   0.70379   0.00000  Uiso   1.00
H24    H     0.50025   0.16681   0.39868   0.00000  Uiso   1.00
C61    C     0.99961   0.67935   0.47719   0.00000  Uiso   1.00
C62    C     0.99962   0.65223   0.58998   0.00000  Uiso   1.00
C63    C     0.00252   0.98715   0.50943   0.00000  Uiso   1.00
C64    C     0.00221   0.01460   0.62983   0.00000  Uiso   1.00
C65    C     0.00193   0.06729   0.62901   0.00000  Uiso   1.00
C66    C     0.00196   0.09407   0.50719   0.00000  Uiso   1.00
C67    C     0.00227   0.06655   0.38709   0.00000  Uiso   1.00
C68    C     0.00254   0.01391   0.38800   0.00000  Uiso   1.00
C69    C     0.00167   0.15013   0.49864   0.00000  Uiso   1.00
C70    C     0.00136   0.18153   0.60438   0.00000  Uiso   1.00
C71    C     0.00077   0.26512   0.71591   0.00000  Uiso   1.00
C72    C     0.00108   0.23759   0.59582   0.00000  Uiso   1.00
C73    C     0.00111   0.26437   0.47399   0.00000  Uiso   1.00
C74    C     0.00083   0.31705   0.47316   0.00000  Uiso   1.00
C75    C     0.00052   0.34451   0.59355   0.00000  Uiso   1.00
C76    C     0.00049   0.31775   0.71499   0.00000  Uiso   1.00
H25    H     0.00218   0.99499   0.72473   0.00000  Uiso   1.00
H26    H     0.00170   0.08620   0.72435   0.00000  Uiso   1.00
H27    H     0.00230   0.08586   0.29175   0.00000  Uiso   1.00
H28    H     0.00074   0.24581   0.81126   0.00000  Uiso   1.00
H29    H     0.00134   0.24546   0.37864   0.00000  Uiso   1.00
H30    H     0.00086   0.33667   0.37825   0.00000  Uiso   1.00
H31    H     0.00173   0.16556   0.39895   0.00000  Uiso   1.00
H32    H     0.00131   0.16610   0.70407   0.00000  Uiso   1.00
C77    C     0.88400   0.83081   0.52000   0.00000  Uiso   1.00
C78    C     0.86340   0.83130   0.64045   0.00000  Uiso   1.00
C79    C     0.82383   0.83166   0.63972   0.00000  Uiso   1.00
C80    C     0.80368   0.83153   0.51795   0.00000  Uiso   1.00
C81    C     0.82434   0.83104   0.39780   0.00000  Uiso   1.00
C82    C     0.86387   0.83069   0.39862   0.00000  Uiso   1.00
C83    C     0.76157   0.83189   0.50950   0.00000  Uiso   1.00
C84    C     0.73801   0.83238   0.61530   0.00000  Uiso   1.00
C85    C     0.67524   0.83323   0.72698   0.00000  Uiso   1.00
C86    C     0.69590   0.83274   0.60684   0.00000  Uiso   1.00
C87    C     0.67575   0.83261   0.48506   0.00000  Uiso   1.00
C88    C     0.63618   0.83297   0.48432   0.00000  Uiso   1.00
C89    C     0.61558   0.83346   0.60477   0.00000  Uiso   1.00
C90    C     0.63571   0.83358   0.72615   0.00000  Uiso   1.00
H33    H     0.87815   0.83141   0.73531   0.00000  Uiso   1.00
H34    H     0.80964   0.83203   0.73510   0.00000  Uiso   1.00
H35    H     0.80981   0.83094   0.30250   0.00000  Uiso   1.00
H36    H     0.68976   0.83334   0.82229   0.00000  Uiso   1.00
H37    H     0.68994   0.83224   0.38968   0.00000  Uiso   1.00
H38    H     0.62143   0.83286   0.38946   0.00000  Uiso   1.00
H39    H     0.74997   0.83175   0.40985   0.00000  Uiso   1.00
H40    H     0.74961   0.83252   0.71496   0.00000  Uiso   1.00
C91    C     0.11576   0.84073   0.50338   0.00000  Uiso   1.00
C92    C     0.13592   0.84077   0.62475   0.00000  Uiso   1.00
C93    C     0.17549   0.84007   0.62581   0.00000  Uiso   1.00
C94    C     0.19607   0.83932   0.50496   0.00000  Uiso   1.00
C95    C     0.17585   0.83929   0.38390   0.00000  Uiso   1.00
C96    C     0.13631   0.83998   0.38292   0.00000  Uiso   1.00
C97    C     0.23821   0.83856   0.49842   0.00000  Uiso   1.00
C98    C     0.26139   0.83849   0.60527   0.00000  Uiso   1.00
C99    C     0.32375   0.83776   0.71978   0.00000  Uiso   1.00
C100   C     0.30353   0.83773   0.59872   0.00000  Uiso   1.00
C101   C     0.32410   0.83697   0.47786   0.00000  Uiso   1.00
C102   C     0.36367   0.83628   0.47892   0.00000  Uiso   1.00
C103   C     0.38384   0.83631   0.60028   0.00000  Uiso   1.00
C104   C     0.36328   0.83706   0.72074   0.00000  Uiso   1.00
H41    H     0.12083   0.84134   0.71894   0.00000  Uiso   1.00
H42    H     0.18934   0.84014   0.72182   0.00000  Uiso   1.00
H43    H     0.19071   0.83872   0.28925   0.00000  Uiso   1.00
H44    H     0.30888   0.83833   0.81443   0.00000  Uiso   1.00
H45    H     0.31026   0.83691   0.38185   0.00000  Uiso   1.00
H46    H     0.37876   0.83571   0.38472   0.00000  Uiso   1.00
H47    H     0.25017   0.83803   0.39930   0.00000  Uiso   1.00
H48    H     0.24943   0.83902   0.70440   0.00000  Uiso   1.00
O33    O     0.88168   0.49982   0.82491   0.00000  Uiso   1.00
Li1    Li    0.86687   0.50027   0.98777   0.00000  Uiso   1.00
O34    O     0.61833   0.49918   0.26588   0.00000  Uiso   1.00
Li2    Li    0.63314   0.49873   0.10301   0.00000  Uiso   1.00
O35    O     0.11841   0.49926   0.82534   0.00000  Uiso   1.00
Li3    Li    0.13325   0.49987   0.98816   0.00000  Uiso   1.00
O36    O     0.38162   0.49893   0.26551   0.00000  Uiso   1.00
Li4    Li    0.36678   0.49832   0.10268   0.00000  Uiso   1.00
O37    O     0.49956   0.99275   0.83395   0.00000  Uiso   1.00
Li5    Li    0.49935   0.01289   0.99646   0.00000  Uiso   1.00
O38    O     0.50053   0.34188   0.26856   0.00000  Uiso   1.00
Li6    Li    0.50074   0.32175   0.10604   0.00000  Uiso   1.00
O39    O     0.00283   0.98985   0.27507   0.00000  Uiso   1.00
Li7    Li    0.00295   0.00916   0.11186   0.00000  Uiso   1.00
O40    O     0.00021   0.34182   0.82791   0.00000  Uiso   1.00
Li8    Li    0.00009   0.32251   0.99113   0.00000  Uiso   1.00
O41    O     0.88193   0.83024   0.28565   0.00000  Uiso   1.00
Li9    Li    0.86739   0.82996   0.12247   0.00000  Uiso   1.00
O42    O     0.61765   0.83403   0.83912   0.00000  Uiso   1.00
Li10   Li    0.63218   0.83431   0.00230   0.00000  Uiso   1.00
O43    O     0.11866   0.83993   0.26915   0.00000  Uiso   1.00
Li11   Li    0.13378   0.83914   0.10664   0.00000  Uiso   1.00
O44    O     0.38093   0.83712   0.83451   0.00000  Uiso   1.00
Li12   Li    0.36582   0.83791   0.99702   0.00000  Uiso   1.00
O45    O     0.49948   0.65567   0.74210   0.00000  Uiso   1.00
H49    H     0.49952   0.61426   0.72819   0.00000  Uiso   1.00
O46    O     0.49979   0.67895   0.36041   0.00000  Uiso   1.00
H50    H     0.49975   0.72037   0.37432   0.00000  Uiso   1.00
O47    O     0.99983   0.65318   0.34318   0.00000  Uiso   1.00
H51    H     0.99998   0.61184   0.35857   0.00000  Uiso   1.00
O48    O     0.99940   0.67840   0.72400   0.00000  Uiso   1.00
H52    H     0.99924   0.71974   0.70860   0.00000  Uiso   1.00
