# generated using pymatgen
data_Zn4H23C52N4(ClO4)5
_symmetry_space_group_name_H-M   'P 1'
_cell_length_a   25.99850000
_cell_length_b   10.90060000
_cell_length_c   10.01700000
_cell_angle_alpha   90.03580000
_cell_angle_beta   89.87590000
_cell_angle_gamma   89.86500000
_symmetry_Int_Tables_number   1
_chemical_formula_structural   Zn4H23C52N4(ClO4)5
_chemical_formula_sum   'Zn4 H23 C52 N4 Cl5 O20'
_cell_volume   2838.79517604
_cell_formula_units_Z   1
loop_
 _symmetry_equiv_pos_site_id
 _symmetry_equiv_pos_as_xyz
  1  'x, y, z'
loop_
 _atom_site_type_symbol
 _atom_site_label
 _atom_site_symmetry_multiplicity
 _atom_site_fract_x
 _atom_site_fract_y
 _atom_site_fract_z
 _atom_site_occupancy
  Zn  Zn1  1  0.50000000  0.50002000  0.66548000  1
  Zn  Zn2  1  0.50000000  0.50001000  0.33451000  1
  Zn  Zn3  1  0.08072000  0.49787000  0.33465000  1
  Zn  Zn4  1  0.08072000  0.49827000  0.66562000  1
  H  H1  1  0.55544000  0.36843000  0.11693000  1
  H  H2  1  0.44458000  0.63160000  0.11775000  1
  H  H3  1  0.55543000  0.36843000  0.88224000  1
  H  H4  1  0.50009000  0.10802000  0.70271000  1
  H  H5  1  0.49999000  0.10768000  0.29723000  1
  H  H6  1  0.49997000  0.89236000  0.70277000  1
  H  H7  1  0.66335000  0.49963000  0.29892000  1
  H  H8  1  0.74692000  0.49928000  0.18886000  1
  H  H9  1  0.66293000  0.49988000  0.70083000  1
  H  H10  1  0.91736000  0.49903000  0.70121000  1
  H  H11  1  0.83380000  0.49938000  0.81127000  1
  H  H12  1  0.91779000  0.49878000  0.29930000  1
  H  H13  1  0.24536000  0.49801000  0.29726000  1
  H  H14  1  0.24494000  0.49758000  0.70274000  1
  H  H15  1  0.33578000  0.49910000  0.29739000  1
  H  H16  1  0.02539000  0.36608000  0.88321000  1
  H  H17  1  0.13604000  0.62850000  0.88236000  1
  H  H18  1  0.02539000  0.36638000  0.11790000  1
  H  H19  1  0.08015000  0.10582000  0.29735000  1
  H  H20  1  0.08025000  0.10599000  0.70283000  1
  H  H21  1  0.08044000  0.89015000  0.29731000  1
  H  H22  1  0.90363000  0.42578000  0.21985000  1
  H  H23  1  0.67714000  0.42689000  0.78029000  1
  C  C1  1  0.50013000  0.26075000  0.49992000  1
  C  C2  1  0.60033000  0.49997000  0.49978000  1
  C  C3  1  0.49983000  0.73928000  0.50008000  1
  C  C4  1  0.39968000  0.49965000  0.50022000  1
  C  C5  1  0.08078000  0.25880000  0.50024000  1
  C  C6  1  0.98039000  0.49869000  0.50035000  1
  C  C7  1  0.08070000  0.73734000  0.50002000  1
  C  C8  1  0.18104000  0.49703000  0.49991000  1
  C  C9  1  0.46727000  0.57773000  0.93081000  1
  C  C10  1  0.53274000  0.42230000  0.06919000  1
  C  C11  1  0.46727000  0.57773000  0.06967000  1
  C  C12  1  0.53274000  0.42230000  0.93032000  1
  C  C13  1  0.49991000  0.87152000  0.50004000  1
  C  C14  1  0.50005000  0.12851000  0.49996000  1
  C  C15  1  0.49991000  0.93611000  0.38029000  1
  C  C16  1  0.50005000  0.06392000  0.61972000  1
  C  C17  1  0.49999000  0.06372000  0.38025000  1
  C  C18  1  0.49997000  0.93631000  0.61976000  1
  C  C19  1  0.68006000  0.49962000  0.38098000  1
  C  C20  1  0.73388000  0.49945000  0.38688000  1
  C  C21  1  0.76376000  0.49927000  0.27092000  1
  C  C22  1  0.67981000  0.49977000  0.61882000  1
  C  C23  1  0.73364000  0.49959000  0.61308000  1
  C  C24  1  0.76327000  0.49956000  0.72913000  1
  C  C25  1  0.90065000  0.49903000  0.61915000  1
  C  C26  1  0.84684000  0.49921000  0.61325000  1
  C  C27  1  0.81696000  0.49938000  0.72921000  1
  C  C28  1  0.90091000  0.49888000  0.38131000  1
  C  C29  1  0.84708000  0.49907000  0.38705000  1
  C  C30  1  0.81745000  0.49909000  0.27100000  1
  C  C31  1  0.65177000  0.49979000  0.49985000  1
  C  C32  1  0.76497000  0.49941000  0.50003000  1
  C  C33  1  0.92895000  0.49886000  0.50027000  1
  C  C34  1  0.81575000  0.49924000  0.50010000  1
  C  C35  1  0.34423000  0.49898000  0.50014000  1
  C  C36  1  0.23649000  0.49769000  0.49999000  1
  C  C37  1  0.31699000  0.49853000  0.61984000  1
  C  C38  1  0.26373000  0.49815000  0.38029000  1
  C  C39  1  0.26348000  0.49789000  0.61976000  1
  C  C40  1  0.31724000  0.49879000  0.38037000  1
  C  C41  1  0.11339000  0.57502000  0.06931000  1
  C  C42  1  0.04804000  0.41986000  0.93095000  1
  C  C43  1  0.11339000  0.57485000  0.93045000  1
  C  C44  1  0.04804000  0.42003000  0.06982000  1
  C  C45  1  0.08052000  0.86958000  0.50004000  1
  C  C46  1  0.08017000  0.12656000  0.50009000  1
  C  C47  1  0.08046000  0.93432000  0.61979000  1
  C  C48  1  0.08022000  0.06183000  0.38034000  1
  C  C49  1  0.08028000  0.06193000  0.61982000  1
  C  C50  1  0.08040000  0.93422000  0.38032000  1
  C  C51  1  0.84516000  0.49892000  0.13743000  1
  C  C52  1  0.73556000  0.49974000  0.86270000  1
  N  N1  1  0.50000000  0.50002000  0.86017000  1
  N  N2  1  0.50001000  0.50001000  0.13983000  1
  N  N3  1  0.08072000  0.49762000  0.13996000  1
  N  N4  1  0.08071000  0.49726000  0.86030000  1
  Cl  Cl1  1  0.42566000  0.67650000  0.84328000  1
  Cl  Cl2  1  0.49983000  0.85527000  0.22814000  1
  Cl  Cl3  1  0.35067000  0.49877000  0.77206000  1
  Cl  Cl4  1  0.15492000  0.67362000  0.15683000  1
  Cl  Cl5  1  0.08061000  0.85366000  0.77195000  1
  O  O1  1  0.50033000  0.32308000  0.63557000  1
  O  O2  1  0.50007000  0.32310000  0.36422000  1
  O  O3  1  0.57416000  0.49997000  0.36406000  1
  O  O4  1  0.57420000  0.50014000  0.63542000  1
  O  O5  1  0.49976000  0.67696000  0.36443000  1
  O  O6  1  0.49983000  0.67694000  0.63578000  1
  O  O7  1  0.42584000  0.49982000  0.63594000  1
  O  O8  1  0.42581000  0.50011000  0.36458000  1
  O  O9  1  0.08053000  0.32096000  0.36458000  1
  O  O10  1  0.08079000  0.32132000  0.63593000  1
  O  O11  1  0.00656000  0.49869000  0.63607000  1
  O  O12  1  0.00652000  0.49852000  0.36471000  1
  O  O13  1  0.08081000  0.67518000  0.63568000  1
  O  O14  1  0.08075000  0.67482000  0.36433000  1
  O  O15  1  0.15488000  0.49720000  0.36419000  1
  O  O16  1  0.15491000  0.49783000  0.63555000  1
  O  O17  1  0.89084000  0.44517000  0.12661000  1
  O  O18  1  0.82462000  0.54572000  0.03913000  1
  O  O19  1  0.68992000  0.44631000  0.87353000  1
  O  O20  1  0.75606000  0.54652000  0.96100000  1
