# Generated by REPEAT Assigner based on pymatgen
data_DB1-MIL47V-ADC_B-BDC_B_No602
_audit_creation_date              2022-05-24
_audit_creation_method            REPEAT_Assigner
_cell_length_a                    25.871800
_cell_length_b                    11.151700
_cell_length_c                    6.818000
_cell_angle_alpha                 108.443000
_cell_angle_beta                  113.571000
_cell_angle_gamma                 58.723700
_cell_volume                      1526.027354
_symmetry_space_group_name_H-M    P1
_symmetry_Int_Tables_number       1
loop_
    _symmetry_equiv_pos_site_id
    _symmetry_equiv_pos_as_xyz
    1  x,y,z
loop_
    _atom_site_type_symbol
    _atom_site_label
    _atom_site_fract_x
    _atom_site_fract_y
    _atom_site_fract_z
    _atom_type_partial_charge
    O  O1   0.497130  0.676630  0.160570  -0.516237
    O  O2   0.586890  0.407550  0.157520  -0.475397
    V  V1   0.495680  0.495670  0.007050  1.216196
    O  O3   0.591720  0.413390  0.497590  -0.412192
    O  O4   0.504240  0.324840  0.489300  -0.603383
    C  C1   0.616450  0.383620  0.353090  0.583957
    O  O5   0.409710  0.588030  0.811770  -0.413221
    C  C2   0.385040  0.617730  0.623090  0.574390
    O  O6   0.498910  0.320500  0.808690  -0.558765
    C  C3   0.501470  0.268540  0.619060  0.746161
    O  O7   0.502460  0.680970  0.500620  -0.543177
    O  O8   0.414540  0.593860  0.492400  -0.448329
    C  C4   0.499950  0.732880  0.357050  0.671166
    V  V2   0.505740  0.505750  0.527520  1.249390
    O  O9   0.527820  0.527860  0.797610  -0.395517
    O  O10  0.473600  0.473560  0.187240  -0.411793
    O  O11  0.914570  0.094070  0.801260  -0.603624
    O  O12  0.004220  0.824890  0.798020  -0.482309
    V  V3   0.005780  0.005740  0.951630  1.354377
    O  O13  0.998880  0.820550  0.457960  -0.454832
    O  O14  0.086910  0.907450  0.466220  -0.578264
    C  C5   0.001400  0.768580  0.601510  0.589372
    O  O15  0.002600  0.180840  0.150020  -0.536000
    C  C6   0.000090  0.232690  0.339650  0.717197
    O  O16  0.091750  0.913260  0.146840  -0.580012
    C  C7   0.116450  0.883430  0.335510  0.720713
    O  O17  0.909740  0.088240  0.461190  -0.600185
    O  O18  0.997270  0.176520  0.469410  -0.541537
    C  C8   0.885040  0.117970  0.605720  0.783029
    V  V4   0.995710  0.995680  0.431150  1.332953
    O  O19  0.973610  0.973620  0.161060  -0.440043
    O  O20  0.027880  0.027780  0.771440  -0.460878
    C  C9   0.500340  0.868720  0.423490  -0.166578
    C  C10  0.501090  0.132700  0.552620  -0.075029
    C  C11  0.497700  0.935690  0.276310  0.367401
    C  C12  0.503730  0.065720  0.699800  -0.092638
    C  C13  0.498070  0.066770  0.340430  -0.263949
    C  C14  0.503360  0.934640  0.635680  -0.158965
    H  H1   0.505820  0.110590  0.846480  0.112234
    H  H2   0.496230  0.112360  0.238000  0.213647
    H  H3   0.505190  0.889050  0.738110  0.214938
    C  C15  0.684560  0.316250  0.417150  -0.143336
    C  C16  0.816930  0.185340  0.541650  -0.089590
    C  C17  0.719030  0.287810  0.628240  0.325045
    C  C18  0.782450  0.213780  0.330570  -0.115708
    C  C19  0.784760  0.222800  0.690060  -0.220501
    C  C20  0.716730  0.278790  0.268750  -0.137720
    H  H4   0.804330  0.188230  0.227300  0.141755
    H  H5   0.808240  0.203500  0.835990  0.187754
    H  H6   0.693250  0.298090  0.122820  0.179995
    C  C21  0.316930  0.685110  0.550160  -0.157232
    C  C22  0.184560  0.816050  0.408440  -0.048916
    C  C23  0.282450  0.713560  0.686060  0.323265
    C  C24  0.219040  0.787600  0.272540  -0.148871
    C  C25  0.216730  0.778580  0.615690  -0.230017
    C  C26  0.284760  0.722580  0.342910  -0.106637
    H  H7   0.197160  0.813150  0.129330  0.156549
    H  H8   0.193250  0.797890  0.710340  0.184742
    H  H9   0.308240  0.703270  0.248260  0.160936
    C  C27  0.001010  0.632740  0.535070  -0.133236
    C  C28  0.000260  0.368750  0.405960  -0.092423
    C  C29  0.997990  0.566810  0.322880  0.304193
    C  C30  0.003280  0.434680  0.618140  -0.140579
    C  C31  0.997620  0.435730  0.258770  -0.186934
    C  C32  0.003660  0.565760  0.682260  -0.119340
    H  H10  0.005120  0.389100  0.720580  0.149359
    H  H11  0.995530  0.390860  0.112090  0.166326
    H  H12  0.005750  0.610630  0.828940  0.170391
    O  O21  0.494410  0.865120  0.045600  -0.596010
    H  H13  0.494600  0.762200  0.025690  0.330042
    O  O22  0.684620  0.328000  0.790670  -0.551877
    H  H14  0.632870  0.378240  0.711780  0.289784
    O  O23  0.316860  0.673370  0.911320  -0.543845
    H  H15  0.368620  0.623120  0.937520  0.294436
    O  O24  0.995110  0.638510  0.161760  -0.548822
    H  H16  0.995880  0.741260  0.242440  0.312755
