# Generated by REPEAT Assigner based on pymatgen
data_DB1-Zn2O8N2-BDC_A-irmof8_A_No187
_audit_creation_date              2022-05-24
_audit_creation_method            REPEAT_Assigner
_cell_length_a                    24.091600
_cell_length_b                    10.900600
_cell_length_c                    10.017000
_cell_angle_alpha                 90.035800
_cell_angle_beta                  89.878500
_cell_angle_gamma                 89.858700
_cell_volume                      2630.578933
_symmetry_space_group_name_H-M    P1
_symmetry_Int_Tables_number       1
loop_
    _symmetry_equiv_pos_site_id
    _symmetry_equiv_pos_as_xyz
    1  x,y,z
loop_
    _atom_site_type_symbol
    _atom_site_label
    _atom_site_fract_x
    _atom_site_fract_y
    _atom_site_fract_z
    _atom_type_partial_charge
    O   O1   0.500360  0.323080  0.635570  -0.624607
    O   O2   0.500080  0.323100  0.364220  -0.554349
    C   C1   0.500140  0.260750  0.499920  0.516907
    Zn  Zn1  0.500000  0.500020  0.665480  0.915227
    O   O3   0.580030  0.499950  0.364070  -0.549239
    O   O4   0.580070  0.500120  0.635420  -0.537842
    C   C2   0.608270  0.499940  0.499790  0.434273
    O   O5   0.499750  0.676960  0.364430  -0.382601
    O   O6   0.499820  0.676940  0.635780  -0.560644
    C   C3   0.499820  0.739280  0.500080  0.332835
    Zn  Zn2  0.500000  0.500010  0.334510  0.948297
    O   O7   0.419970  0.499840  0.635930  -0.332276
    O   O8   0.419930  0.500130  0.364570  -0.580305
    C   C4   0.391740  0.499680  0.500210  0.310822
    O   O9   0.047320  0.321070  0.364530  -0.612548
    O   O10  0.047600  0.321430  0.635880  -0.562330
    C   C5   0.047600  0.258910  0.500190  0.529299
    Zn  Zn3  0.047530  0.497980  0.334590  0.972744
    O   O11  0.967500  0.498820  0.636010  -0.547406
    O   O12  0.967460  0.498650  0.364650  -0.580303
    C   C6   0.939260  0.498830  0.500290  0.436644
    O   O13  0.047630  0.675290  0.635630  -0.385860
    O   O14  0.047560  0.674930  0.364280  -0.502687
    C   C7   0.047510  0.737450  0.499970  0.275218
    Zn  Zn4  0.047530  0.498380  0.665570  0.950225
    O   O15  0.127560  0.497290  0.364150  -0.539935
    O   O16  0.127600  0.497920  0.635510  -0.585206
    C   C8   0.155800  0.497110  0.499870  0.480020
    N   N1   0.500000  0.500020  0.860170  0.039697
    N   N2   0.500010  0.500010  0.139830  -0.086066
    C   C9   0.464680  0.577740  0.930800  0.049905
    C   C10  0.535340  0.422290  0.069190  -0.024372
    C   C11  0.464680  0.577740  0.069670  0.231525
    C   C12  0.535330  0.422290  0.930330  -0.144994
    H   H1   0.559830  0.368410  0.116940  0.182509
    H   H2   0.440190  0.631610  0.117750  0.033610
    H   H3   0.559820  0.368420  0.882250  0.240323
    C   C13  0.499900  0.871520  0.500040  0.081271
    C   C14  0.500060  0.128510  0.499960  0.028071
    C   C15  0.499910  0.936110  0.380280  0.122025
    C   C16  0.500050  0.063920  0.619720  -0.165762
    C   C17  0.499990  0.063720  0.380250  -0.116835
    C   C18  0.499970  0.936310  0.619760  -0.058236
    H   H4   0.500100  0.108020  0.702710  0.141660
    H   H5   0.499990  0.107680  0.297230  0.095319
    H   H6   0.499970  0.892360  0.702770  0.101407
    C   C19  0.840450  0.499100  0.402430  -0.252442
    C   C20  0.860920  0.499180  0.636120  -0.058528
    C   C21  0.804550  0.499390  0.672150  -0.117757
    C   C22  0.764950  0.499460  0.567570  0.136976
    C   C23  0.707080  0.499670  0.597650  -0.227371
    C   C24  0.686610  0.499590  0.363960  -0.047567
    C   C25  0.742990  0.499380  0.327930  -0.115830
    C   C26  0.782590  0.499310  0.432500  0.141733
    C   C27  0.877810  0.499040  0.500200  0.144991
    C   C28  0.669720  0.499730  0.499880  0.121334
    H   H7   0.853560  0.498970  0.297970  0.155398
    H   H8   0.892260  0.499110  0.713190  0.088672
    H   H9   0.693980  0.499800  0.702100  0.135954
    H   H10  0.655260  0.499650  0.286910  0.089056
    C   C29  0.331900  0.499030  0.500120  0.148414
    C   C30  0.215630  0.497760  0.499960  0.029974
    C   C31  0.302500  0.498580  0.619820  0.122108
    C   C32  0.245030  0.498210  0.380260  -0.039869
    C   C33  0.244760  0.497950  0.619730  -0.128240
    C   C34  0.302770  0.498840  0.380340  -0.234850
    H   H11  0.225210  0.498080  0.297230  0.088451
    H   H12  0.224750  0.497640  0.702710  0.091726
    H   H13  0.322780  0.499140  0.297370  0.168680
    N   N3   0.047530  0.497730  0.139910  0.120668
    N   N4   0.047520  0.497370  0.860250  -0.116028
    C   C35  0.082790  0.575120  0.069270  -0.130198
    C   C36  0.012260  0.419980  0.930900  0.020475
    C   C37  0.082790  0.574950  0.930400  0.312975
    C   C38  0.012270  0.420150  0.069760  -0.168211
    H   H14  0.987820  0.366200  0.883160  0.173282
    H   H15  0.107230  0.628600  0.882320  0.031682
    H   H16  0.987830  0.366500  0.117850  0.238203
    C   C39  0.047310  0.869690  0.499990  0.174797
    C   C40  0.046940  0.126680  0.500040  -0.018468
    C   C41  0.047250  0.934430  0.619740  0.048399
    C   C42  0.047000  0.061940  0.380290  -0.088976
    C   C43  0.047060  0.062040  0.619770  -0.060503
    C   C44  0.047190  0.934330  0.380270  -0.167599
    H   H17  0.046910  0.105930  0.297300  0.118327
    H   H18  0.047020  0.106100  0.702780  0.080878
    H   H19  0.047230  0.890260  0.297260  0.142683
    Cl  Cl1  0.419780  0.676520  0.843270  0.054213
    Cl  Cl2  0.499820  0.855270  0.228140  -0.183727
    Cl  Cl3  0.338850  0.498810  0.772040  -0.182930
    Cl  Cl4  0.127600  0.673710  0.156790  0.058921
    Cl  Cl5  0.047410  0.853770  0.771900  -0.152118
    S   S1   0.764490  0.499200  0.161480  0.735689
    O   O17  0.786070  0.639400  0.112960  -0.429006
    O   O18  0.716890  0.458430  0.060990  -0.372524
    H   H20  0.818780  0.619430  0.058900  0.356948
    O   O19  0.816470  0.411440  0.137990  -0.379270
    S   S2   0.783040  0.499550  0.838600  0.744184
    O   O20  0.761340  0.639950  0.887120  -0.428307
    O   O21  0.830690  0.458590  0.939090  -0.374356
    H   H21  0.728650  0.620260  0.941190  0.359998
    O   O22  0.731150  0.412160  0.862100  -0.376548
