# Generated by REPEAT Assigner based on pymatgen
data_DB1-Zn2O8-AZO_A-BDC_A_No629
_audit_creation_date              2022-05-24
_audit_creation_method            REPEAT_Assigner
_cell_length_a                    10.900600
_cell_length_b                    36.528600
_cell_length_c                    10.000000
_cell_angle_alpha                 90.000000
_cell_angle_beta                  90.000000
_cell_angle_gamma                 107.181000
_cell_volume                      3804.152570
_symmetry_space_group_name_H-M    P1
_symmetry_Int_Tables_number       1
loop_
    _symmetry_equiv_pos_site_id
    _symmetry_equiv_pos_as_xyz
    1  x,y,z
loop_
    _atom_site_type_symbol
    _atom_site_label
    _atom_site_fract_x
    _atom_site_fract_y
    _atom_site_fract_z
    _atom_type_partial_charge
    O   O1   0.323340  0.500340  0.635800  -0.254921
    O   O2   0.323140  0.499960  0.363990  -0.335759
    C   C1   0.260840  0.500100  0.499920  -0.004435
    Zn  Zn1  0.500030  0.500110  0.665770  1.147767
    O   O3   0.555060  0.555160  0.363800  -0.474955
    O   O4   0.555280  0.555370  0.635620  -0.279204
    C   C2   0.574510  0.574740  0.499740  0.069396
    O   O5   0.676770  0.499730  0.364200  -0.335877
    O   O6   0.676820  0.499960  0.636010  -0.255629
    C   C3   0.739160  0.499880  0.500080  -0.003933
    Zn  Zn2  0.500000  0.499890  0.334230  1.181787
    O   O7   0.444720  0.444840  0.636200  -0.278972
    O   O8   0.444960  0.444640  0.364380  -0.472485
    C   C4   0.425100  0.425260  0.500260  0.066130
    O   O9   0.819240  0.999790  0.266560  -0.283914
    O   O10  0.819820  0.000160  0.538360  -0.321242
    C   C5   0.757280  0.000070  0.402440  0.005211
    Zn  Zn3  0.996280  0.999910  0.236570  1.153758
    O   O11  0.942020  0.944860  0.538530  -0.480730
    O   O12  0.941800  0.944650  0.266720  -0.273544
    C   C6   0.922570  0.925280  0.402590  0.072451
    O   O13  0.173690  0.000180  0.538110  -0.324517
    O   O14  0.173260  0.999950  0.266310  -0.280675
    C   C7   0.235750  0.000000  0.402220  0.003783
    Zn  Zn4  0.996720  0.000130  0.568100  1.180984
    O   O15  0.050730  0.055180  0.266140  -0.280013
    O   O16  0.051410  0.055380  0.537950  -0.481146
    C   C8   0.070010  0.074760  0.402070  0.082141
    C   C9   0.880110  0.882510  0.402520  0.334644
    C   C10  0.859580  0.861830  0.523640  -0.236958
    C   C11  0.819690  0.821660  0.523250  -0.092257
    C   C12  0.799530  0.801360  0.401930  0.411895
    C   C13  0.819770  0.821750  0.281370  -0.321680
    C   C14  0.859630  0.861900  0.281290  0.005817
    N   N1   0.758670  0.760220  0.398290  -0.211357
    N   N2   0.738410  0.739800  0.504050  -0.216934
    C   C15  0.677320  0.678270  0.620970  -0.314537
    C   C16  0.697560  0.698660  0.500410  0.412431
    C   C17  0.677390  0.678360  0.379080  -0.089019
    C   C18  0.637510  0.638190  0.378700  -0.244356
    C   C19  0.616980  0.617510  0.499810  0.341521
    C   C20  0.637450  0.638120  0.621040  0.002447
    H   H1   0.874580  0.876930  0.618230  0.209740
    H   H2   0.804450  0.806310  0.617150  0.102432
    H   H3   0.804490  0.806360  0.187430  0.171528
    H   H4   0.692600  0.693660  0.714910  0.167952
    H   H5   0.692640  0.693710  0.285190  0.100187
    H   H6   0.622510  0.623090  0.284110  0.211231
    C   C21  0.113350  0.117520  0.402130  0.325369
    C   C22  0.134090  0.138180  0.523300  -0.232041
    C   C23  0.174790  0.178340  0.523040  -0.097002
    C   C24  0.195600  0.198670  0.401780  0.419209
    C   C25  0.175170  0.178310  0.281150  -0.325567
    C   C26  0.134480  0.138170  0.280960  0.010864
    N   N3   0.237310  0.239820  0.398260  -0.215843
    N   N4   0.257800  0.260200  0.504080  -0.214036
    C   C27  0.319940  0.321710  0.621180  -0.316720
    C   C28  0.299510  0.301350  0.500560  0.413628
    C   C29  0.320310  0.321680  0.379300  -0.091216
    C   C30  0.361020  0.361840  0.379030  -0.244318
    C   C31  0.381750  0.382500  0.500210  0.344105
    C   C32  0.360630  0.361850  0.621380  0.003724
    H   H7   0.118600  0.123050  0.617850  0.208970
    H   H8   0.190180  0.193670  0.616980  0.102696
    H   H9   0.190940  0.193720  0.187260  0.172759
    H   H10  0.304170  0.306300  0.715070  0.167988
    H   H11  0.304930  0.306340  0.285350  0.101135
    H   H12  0.376510  0.376970  0.284480  0.211787
    C   C33  0.871450  0.499930  0.500040  0.388010
    C   C34  0.128550  0.500040  0.499960  0.386881
    C   C35  0.936040  0.499860  0.380080  -0.044489
    C   C36  0.063960  0.500110  0.619920  -0.139082
    C   C37  0.063700  0.499910  0.380040  -0.042870
    C   C38  0.936300  0.500060  0.619960  -0.142504
    C   C39  0.367860  0.999870  0.402250  0.385611
    C   C40  0.624590  0.999610  0.402300  0.379811
    C   C41  0.432560  0.999900  0.522200  -0.049114
    C   C42  0.559880  0.999570  0.282350  -0.130462
    C   C43  0.560040  0.999770  0.522220  -0.042821
    C   C44  0.432400  0.999700  0.282320  -0.135622
    O   O17  0.994320  0.916770  0.130680  -0.301681
    O   O18  0.787420  0.869960  0.039220  -0.323812
    N   N5   0.880620  0.883040  0.149350  0.402825
    O   O19  0.663140  0.583200  0.771650  -0.307931
    O   O20  0.549290  0.630100  0.863120  -0.318780
    N   N6   0.616460  0.616970  0.752980  0.401554
    O   O21  0.999100  0.083490  0.130030  -0.299541
    O   O22  0.206810  0.130000  0.039020  -0.324105
    N   N7   0.113290  0.117050  0.148960  0.398791
    O   O23  0.335960  0.416900  0.771990  -0.308674
    O   O24  0.448350  0.369650  0.863630  -0.319273
    N   N8   0.381810  0.382970  0.753380  0.400579
    O   O25  0.782890  0.524710  0.231870  -0.163994
    O   O26  0.882320  0.474590  0.138680  -0.190208
    N   N9   0.866530  0.499720  0.249180  0.212739
    O   O27  0.266500  0.525370  0.767610  -0.248235
    O   O28  0.068290  0.475280  0.861840  -0.193686
    N   N10  0.133470  0.500250  0.750830  0.348563
    O   O29  0.216520  0.474810  0.232240  -0.163909
    O   O30  0.116890  0.524770  0.138110  -0.189528
    N   N11  0.132920  0.499830  0.249090  0.211656
    O   O31  0.734090  0.475060  0.768280  -0.249731
    O   O32  0.932500  0.525300  0.861380  -0.195725
    N   N12  0.867080  0.500140  0.750910  0.352350
    O   O33  0.230180  0.975160  0.670430  -0.170823
    O   O34  0.429070  0.025190  0.763610  -0.188324
    N   N13  0.363390  0.000090  0.653110  0.213982
    O   O35  0.712140  0.974210  0.134630  -0.243642
    O   O36  0.613500  0.024390  0.040420  -0.194566
    N   N14  0.629050  0.999390  0.151430  0.343251
    O   O37  0.762630  0.024770  0.670010  -0.165778
    O   O38  0.563860  0.974900  0.764160  -0.187546
    N   N15  0.629390  0.999820  0.653170  0.210371
    O   O39  0.279940  0.024810  0.134020  -0.238442
    O   O40  0.378460  0.974470  0.040900  -0.195331
    N   N16  0.363050  0.999660  0.151380  0.341577
