data_DB1-Zn2O8-irmof10_A-irmof6_A_No322_repeat
_audit_creation_date              2024-02-20
_audit_creation_method            'Materials Studio'
_symmetry_space_group_name_H-M    'P1'
_symmetry_Int_Tables_number       1
_symmetry_cell_setting            triclinic
loop_
_symmetry_equiv_pos_as_xyz
  x,y,z
_cell_length_a                    30.2925
_cell_length_b                    26.1509
_cell_length_c                    10.0000
_cell_angle_alpha                 90.0000
_cell_angle_beta                  90.0000
_cell_angle_gamma                 89.7129
loop_
_atom_site_label
_atom_site_type_symbol
_atom_site_fract_x
_atom_site_fract_y
_atom_site_fract_z
_atom_site_U_iso_or_equiv
_atom_site_adp_type
_atom_site_occupancy
O1     O     0.50051   0.42621   0.36422   0.00000  Uiso   1.00
O2     O     0.50009   0.42630   0.63602   0.00000  Uiso   1.00
C1     C     0.50028   0.40027   0.50010   0.00000  Uiso   1.00
Zn1    Zn    0.50012   0.49996   0.33423   0.00000  Uiso   1.00
O3     O     0.56355   0.49997   0.63618   0.00000  Uiso   1.00
O4     O     0.56378   0.49997   0.36437   0.00000  Uiso   1.00
C2     C     0.58610   0.49992   0.50024   0.00000  Uiso   1.00
O5     O     0.49957   0.57380   0.63578   0.00000  Uiso   1.00
O6     O     0.49983   0.57372   0.36398   0.00000  Uiso   1.00
C3     C     0.49969   0.59974   0.49989   0.00000  Uiso   1.00
Zn2    Zn    0.49988   0.50005   0.66577   0.00000  Uiso   1.00
O7     O     0.43645   0.49994   0.36382   0.00000  Uiso   1.00
O8     O     0.43622   0.50013   0.63563   0.00000  Uiso   1.00
C4     C     0.41390   0.49992   0.49976   0.00000  Uiso   1.00
O9     O     0.99987   0.42500   0.63578   0.00000  Uiso   1.00
O10    O     0.00029   0.42507   0.36397   0.00000  Uiso   1.00
C5     C     0.00023   0.39905   0.49990   0.00000  Uiso   1.00
Zn3    Zn    0.99989   0.49875   0.66575   0.00000  Uiso   1.00
O11    O     0.93646   0.49906   0.36380   0.00000  Uiso   1.00
O12    O     0.93623   0.49906   0.63562   0.00000  Uiso   1.00
C6     C     0.91390   0.49911   0.49974   0.00000  Uiso   1.00
O13    O     0.00007   0.57257   0.36419   0.00000  Uiso   1.00
O14    O     0.99981   0.57250   0.63600   0.00000  Uiso   1.00
C7     C     0.99982   0.59852   0.50008   0.00000  Uiso   1.00
Zn4    Zn    0.00013   0.49883   0.33422   0.00000  Uiso   1.00
O15    O     0.06356   0.49841   0.63617   0.00000  Uiso   1.00
O16    O     0.06379   0.49860   0.36435   0.00000  Uiso   1.00
C8     C     0.08611   0.49828   0.50023   0.00000  Uiso   1.00
O17    O     0.49995   0.99462   0.63569   0.00000  Uiso   1.00
O18    O     0.50005   0.99454   0.36389   0.00000  Uiso   1.00
C9     C     0.49995   0.02056   0.49981   0.00000  Uiso   1.00
Zn5    Zn    0.49959   0.92087   0.66567   0.00000  Uiso   1.00
O19    O     0.56359   0.92022   0.36484   0.00000  Uiso   1.00
O20    O     0.56330   0.92022   0.63665   0.00000  Uiso   1.00
C10    C     0.58588   0.92005   0.50117   0.00000  Uiso   1.00
O21    O     0.49969   0.84704   0.36412   0.00000  Uiso   1.00
O22    O     0.49943   0.84712   0.63593   0.00000  Uiso   1.00
C11    C     0.49957   0.82110   0.50001   0.00000  Uiso   1.00
Zn6    Zn    0.49998   0.92079   0.33414   0.00000  Uiso   1.00
O23    O     0.43597   0.92155   0.63498   0.00000  Uiso   1.00
O24    O     0.43626   0.92135   0.36316   0.00000  Uiso   1.00
C12    C     0.41368   0.92179   0.49865   0.00000  Uiso   1.00
O25    O     0.99758   0.99340   0.36421   0.00000  Uiso   1.00
O26    O     0.99749   0.99333   0.63602   0.00000  Uiso   1.00
C13    C     0.99745   0.01935   0.50009   0.00000  Uiso   1.00
Zn7    Zn    0.99832   0.91965   0.33424   0.00000  Uiso   1.00
O27    O     0.93432   0.91931   0.63508   0.00000  Uiso   1.00
O28    O     0.93460   0.91931   0.36327   0.00000  Uiso   1.00
C14    C     0.91202   0.91925   0.49875   0.00000  Uiso   1.00
O29    O     0.99858   0.84582   0.63581   0.00000  Uiso   1.00
O30    O     0.99884   0.84590   0.36400   0.00000  Uiso   1.00
C15    C     0.99883   0.81988   0.49992   0.00000  Uiso   1.00
Zn8    Zn    0.99793   0.91957   0.66578   0.00000  Uiso   1.00
O31    O     0.06193   0.92002   0.36494   0.00000  Uiso   1.00
O32    O     0.06164   0.91983   0.63675   0.00000  Uiso   1.00
C16    C     0.08422   0.92015   0.50127   0.00000  Uiso   1.00
C17    C     0.63369   0.49980   0.50017   0.00000  Uiso   1.00
C18    C     0.86632   0.49923   0.49981   0.00000  Uiso   1.00
C19    C     0.65695   0.49974   0.38019   0.00000  Uiso   1.00
C20    C     0.70325   0.49963   0.37901   0.00000  Uiso   1.00
C21    C     0.84306   0.49929   0.61979   0.00000  Uiso   1.00
C22    C     0.79676   0.49940   0.62098   0.00000  Uiso   1.00
C23    C     0.84302   0.49929   0.37991   0.00000  Uiso   1.00
C24    C     0.79672   0.49940   0.37887   0.00000  Uiso   1.00
C25    C     0.65699   0.49974   0.62007   0.00000  Uiso   1.00
C26    C     0.70329   0.49963   0.62112   0.00000  Uiso   1.00
C27    C     0.72668   0.49957   0.50003   0.00000  Uiso   1.00
C28    C     0.77333   0.49946   0.49996   0.00000  Uiso   1.00
H1     H     0.64109   0.49978   0.29708   0.00000  Uiso   1.00
H2     H     0.85892   0.49925   0.70291   0.00000  Uiso   1.00
H3     H     0.85885   0.49925   0.29674   0.00000  Uiso   1.00
H4     H     0.78106   0.49944   0.29541   0.00000  Uiso   1.00
H5     H     0.64116   0.49978   0.70324   0.00000  Uiso   1.00
H6     H     0.71895   0.49959   0.70458   0.00000  Uiso   1.00
C29    C     0.36631   0.49968   0.49983   0.00000  Uiso   1.00
C30    C     0.13370   0.49852   0.50016   0.00000  Uiso   1.00
C31    C     0.34302   0.49948   0.37992   0.00000  Uiso   1.00
C32    C     0.29672   0.49925   0.37887   0.00000  Uiso   1.00
C33    C     0.15699   0.49872   0.62007   0.00000  Uiso   1.00
C34    C     0.20329   0.49895   0.62112   0.00000  Uiso   1.00
C35    C     0.15696   0.49855   0.38019   0.00000  Uiso   1.00
C36    C     0.20325   0.49878   0.37901   0.00000  Uiso   1.00
C37    C     0.34306   0.49966   0.61980   0.00000  Uiso   1.00
C38    C     0.29676   0.49942   0.62098   0.00000  Uiso   1.00
C39    C     0.27333   0.49922   0.49996   0.00000  Uiso   1.00
C40    C     0.22668   0.49898   0.50003   0.00000  Uiso   1.00
H7     H     0.35885   0.49950   0.29675   0.00000  Uiso   1.00
H8     H     0.14116   0.49870   0.70323   0.00000  Uiso   1.00
H9     H     0.14110   0.49841   0.29707   0.00000  Uiso   1.00
H10    H     0.21889   0.49880   0.29550   0.00000  Uiso   1.00
H11    H     0.35891   0.49979   0.70292   0.00000  Uiso   1.00
H12    H     0.28112   0.49941   0.70449   0.00000  Uiso   1.00
C41    C     0.49960   0.76625   0.49998   0.00000  Uiso   1.00
C42    C     0.49966   0.65459   0.49992   0.00000  Uiso   1.00
C43    C     0.49972   0.73830   0.39435   0.00000  Uiso   1.00
C44    C     0.49955   0.68255   0.60556   0.00000  Uiso   1.00
C45    C     0.49975   0.68256   0.39432   0.00000  Uiso   1.00
C46    C     0.49952   0.73828   0.60559   0.00000  Uiso   1.00
C47    C     0.49986   0.73712   0.24414   0.00000  Uiso   1.00
C48    C     0.49989   0.68376   0.24411   0.00000  Uiso   1.00
H13    H     0.49943   0.75574   0.70422   0.00000  Uiso   1.00
H14    H     0.52886   0.75582   0.20023   0.00000  Uiso   1.00
H15    H     0.47095   0.75638   0.20054   0.00000  Uiso   1.00
H16    H     0.47098   0.66506   0.19967   0.00000  Uiso   1.00
H17    H     0.52888   0.66451   0.20100   0.00000  Uiso   1.00
C49    C     0.50023   0.34515   0.50006   0.00000  Uiso   1.00
C50    C     0.50000   0.07569   0.49985   0.00000  Uiso   1.00
C51    C     0.50039   0.31820   0.38010   0.00000  Uiso   1.00
C52    C     0.50035   0.26457   0.37894   0.00000  Uiso   1.00
C53    C     0.49983   0.10264   0.61981   0.00000  Uiso   1.00
C54    C     0.49988   0.15627   0.62097   0.00000  Uiso   1.00
C55    C     0.50021   0.10266   0.37994   0.00000  Uiso   1.00
C56    C     0.50026   0.15629   0.37886   0.00000  Uiso   1.00
C57    C     0.50002   0.31817   0.61998   0.00000  Uiso   1.00
C58    C     0.49997   0.26454   0.62105   0.00000  Uiso   1.00
C59    C     0.50014   0.23744   0.49998   0.00000  Uiso   1.00
C60    C     0.50009   0.18340   0.49994   0.00000  Uiso   1.00
H18    H     0.50054   0.33656   0.29697   0.00000  Uiso   1.00
H19    H     0.49969   0.08428   0.70294   0.00000  Uiso   1.00
H20    H     0.50032   0.08432   0.29678   0.00000  Uiso   1.00
H21    H     0.50040   0.17443   0.29539   0.00000  Uiso   1.00
H22    H     0.49990   0.33652   0.70314   0.00000  Uiso   1.00
H23    H     0.49983   0.24641   0.70452   0.00000  Uiso   1.00
C61    C     0.99907   0.76503   0.49996   0.00000  Uiso   1.00
C62    C     0.99958   0.65337   0.50004   0.00000  Uiso   1.00
C63    C     0.99910   0.73708   0.60560   0.00000  Uiso   1.00
C64    C     0.99955   0.68132   0.39440   0.00000  Uiso   1.00
C65    C     0.99935   0.68134   0.60564   0.00000  Uiso   1.00
C66    C     0.99930   0.73706   0.39436   0.00000  Uiso   1.00
C67    C     0.99896   0.73591   0.75580   0.00000  Uiso   1.00
C68    C     0.99920   0.68254   0.75584   0.00000  Uiso   1.00
H24    H     0.99930   0.75451   0.29572   0.00000  Uiso   1.00
H25    H     0.96987   0.75475   0.79971   0.00000  Uiso   1.00
H26    H     0.02778   0.75502   0.79941   0.00000  Uiso   1.00
H27    H     0.02821   0.66370   0.80028   0.00000  Uiso   1.00
H28    H     0.97030   0.66344   0.79896   0.00000  Uiso   1.00
C69    C     0.00056   0.34393   0.49995   0.00000  Uiso   1.00
C70    C     0.00214   0.07446   0.50020   0.00000  Uiso   1.00
C71    C     0.00053   0.31698   0.61991   0.00000  Uiso   1.00
C72    C     0.00084   0.26335   0.62108   0.00000  Uiso   1.00
C73    C     0.00217   0.10141   0.38024   0.00000  Uiso   1.00
C74    C     0.00185   0.15504   0.37907   0.00000  Uiso   1.00
C75    C     0.00179   0.10144   0.62011   0.00000  Uiso   1.00
C76    C     0.00148   0.15507   0.62118   0.00000  Uiso   1.00
C77    C     0.00090   0.31695   0.38004   0.00000  Uiso   1.00
C78    C     0.00122   0.26332   0.37897   0.00000  Uiso   1.00
C79    C     0.00119   0.23621   0.50005   0.00000  Uiso   1.00
C80    C     0.00151   0.18218   0.50010   0.00000  Uiso   1.00
H29    H     0.00029   0.33534   0.70304   0.00000  Uiso   1.00
H30    H     0.00240   0.08305   0.29711   0.00000  Uiso   1.00
H31    H     0.00177   0.08310   0.70327   0.00000  Uiso   1.00
H32    H     0.00124   0.17321   0.70464   0.00000  Uiso   1.00
H33    H     0.00092   0.33529   0.29688   0.00000  Uiso   1.00
H34    H     0.00146   0.24518   0.29551   0.00000  Uiso   1.00
C81    C     0.63347   0.91968   0.50208   0.00000  Uiso   1.00
C82    C     0.86609   0.91787   0.50650   0.00000  Uiso   1.00
C83    C     0.65650   0.91950   0.62246   0.00000  Uiso   1.00
C84    C     0.70279   0.91914   0.62445   0.00000  Uiso   1.00
C85    C     0.84306   0.91805   0.38612   0.00000  Uiso   1.00
C86    C     0.79677   0.91841   0.38412   0.00000  Uiso   1.00
C87    C     0.84256   0.91806   0.62599   0.00000  Uiso   1.00
C88    C     0.79627   0.91841   0.62623   0.00000  Uiso   1.00
C89    C     0.65700   0.91949   0.38258   0.00000  Uiso   1.00
C90    C     0.70329   0.91913   0.38234   0.00000  Uiso   1.00
C91    C     0.72646   0.91895   0.50384   0.00000  Uiso   1.00
C92    C     0.77310   0.91859   0.50473   0.00000  Uiso   1.00
H35    H     0.64048   0.91962   0.70530   0.00000  Uiso   1.00
H36    H     0.85908   0.91792   0.30327   0.00000  Uiso   1.00
H37    H     0.85824   0.91793   0.70943   0.00000  Uiso   1.00
H38    H     0.78044   0.91854   0.70941   0.00000  Uiso   1.00
H39    H     0.64133   0.91961   0.29914   0.00000  Uiso   1.00
H40    H     0.71912   0.91901   0.29916   0.00000  Uiso   1.00
C93    C     0.36609   0.92252   0.49775   0.00000  Uiso   1.00
C94    C     0.13348   0.92605   0.49335   0.00000  Uiso   1.00
C95    C     0.34257   0.92296   0.61725   0.00000  Uiso   1.00
C96    C     0.29627   0.92366   0.61748   0.00000  Uiso   1.00
C97    C     0.15700   0.92561   0.37385   0.00000  Uiso   1.00
C98    C     0.20330   0.92491   0.37361   0.00000  Uiso   1.00
C99    C     0.15651   0.92579   0.61372   0.00000  Uiso   1.00
C100   C     0.20280   0.92509   0.61572   0.00000  Uiso   1.00
C101   C     0.34306   0.92278   0.37737   0.00000  Uiso   1.00
C102   C     0.29677   0.92349   0.37538   0.00000  Uiso   1.00
C103   C     0.27311   0.92393   0.49599   0.00000  Uiso   1.00
C104   C     0.22646   0.92464   0.49510   0.00000  Uiso   1.00
H41    H     0.35824   0.92278   0.70069   0.00000  Uiso   1.00
H42    H     0.14133   0.92579   0.29041   0.00000  Uiso   1.00
H43    H     0.14050   0.92609   0.69657   0.00000  Uiso   1.00
H44    H     0.21828   0.92491   0.69949   0.00000  Uiso   1.00
H45    H     0.35908   0.92248   0.29453   0.00000  Uiso   1.00
H46    H     0.28129   0.92366   0.29160   0.00000  Uiso   1.00
O33    O     0.72439   0.49957   0.26611   0.00000  Uiso   1.00
Li1    Li    0.70746   0.49962   0.10287   0.00000  Uiso   1.00
O34    O     0.77562   0.49946   0.73388   0.00000  Uiso   1.00
Li2    Li    0.79255   0.49942   0.89712   0.00000  Uiso   1.00
O35    O     0.27555   0.49906   0.26603   0.00000  Uiso   1.00
Li3    Li    0.29242   0.49903   0.10274   0.00000  Uiso   1.00
O36    O     0.22447   0.49914   0.73395   0.00000  Uiso   1.00
Li4    Li    0.20759   0.49918   0.89724   0.00000  Uiso   1.00
O37    O     0.50050   0.24007   0.26606   0.00000  Uiso   1.00
Li5    Li    0.50078   0.25966   0.10281   0.00000  Uiso   1.00
O38    O     0.49972   0.18077   0.73386   0.00000  Uiso   1.00
Li6    Li    0.49945   0.16118   0.89710   0.00000  Uiso   1.00
O39    O     0.00081   0.23885   0.73397   0.00000  Uiso   1.00
Li7    Li    0.00044   0.25845   0.89721   0.00000  Uiso   1.00
O40    O     0.00189   0.17953   0.26618   0.00000  Uiso   1.00
Li8    Li    0.00226   0.15994   0.10294   0.00000  Uiso   1.00
O41    O     0.72372   0.91898   0.73772   0.00000  Uiso   1.00
Li9    Li    0.70648   0.91911   0.90066   0.00000  Uiso   1.00
O42    O     0.77584   0.91857   0.27085   0.00000  Uiso   1.00
Li10   Li    0.79308   0.91844   0.10791   0.00000  Uiso   1.00
O43    O     0.27488   0.92407   0.72995   0.00000  Uiso   1.00
Li11   Li    0.29144   0.92393   0.89353   0.00000  Uiso   1.00
O44    O     0.22469   0.92450   0.26114   0.00000  Uiso   1.00
Li12   Li    0.20813   0.92464   0.09756   0.00000  Uiso   1.00
C105   C     0.49942   0.65813   0.74330   0.00000  Uiso   1.00
O45    O     0.51859   0.68199   0.84487   0.00000  Uiso   1.00
O46    O     0.48258   0.61582   0.75949   0.00000  Uiso   1.00
H47    H     0.52559   0.71818   0.81555   0.00000  Uiso   1.00
C106   C     0.99980   0.65691   0.25666   0.00000  Uiso   1.00
O47    O     0.98051   0.68085   0.15508   0.00000  Uiso   1.00
O48    O     0.01685   0.61450   0.24048   0.00000  Uiso   1.00
H48    H     0.97333   0.71708   0.18440   0.00000  Uiso   1.00
