# generated using pymatgen
data_Cu2H12C27(Cl3O4)2
_symmetry_space_group_name_H-M   'P 1'
_cell_length_a   34.99640000
_cell_length_b   43.66070000
_cell_length_c   10.00000000
_cell_angle_alpha   90.00000000
_cell_angle_beta   90.00000000
_cell_angle_gamma   36.85710000
_symmetry_Int_Tables_number   1
_chemical_formula_structural   Cu2H12C27(Cl3O4)2
_chemical_formula_sum   'Cu8 H48 C108 Cl24 O32'
_cell_volume   9165.07339305
_cell_formula_units_Z   4
loop_
 _symmetry_equiv_pos_site_id
 _symmetry_equiv_pos_as_xyz
  1  'x, y, z'
loop_
 _atom_site_type_symbol
 _atom_site_label
 _atom_site_symmetry_multiplicity
 _atom_site_fract_x
 _atom_site_fract_y
 _atom_site_fract_z
 _atom_site_occupancy
  Cu  Cu1  1  0.50033000  0.49967000  0.37274000  1
  Cu  Cu2  1  0.49967000  0.50033000  0.62726000  1
  Cu  Cu3  1  0.99924000  0.50076000  0.71812000  1
  Cu  Cu4  1  0.00015000  0.49985000  0.46361000  1
  Cu  Cu5  1  0.16787000  0.83243000  0.73000000  1
  Cu  Cu6  1  0.16826000  0.83177000  0.47549000  1
  Cu  Cu7  1  0.66961000  0.83127000  0.34681000  1
  Cu  Cu8  1  0.66896000  0.83218000  0.60132000  1
  H  H1  1  0.88045000  0.49970000  0.37539000  1
  H  H2  1  0.81115000  0.49969000  0.37406000  1
  H  H3  1  0.69035000  0.49941000  0.28415000  1
  H  H4  1  0.68841000  0.50075000  0.71675000  1
  H  H5  1  0.74921000  0.50069000  0.69795000  1
  H  H6  1  0.75035000  0.49975000  0.39284000  1
  H  H7  1  0.12031000  0.49955000  0.37543000  1
  H  H8  1  0.18961000  0.49954000  0.37409000  1
  H  H9  1  0.31099000  0.49924000  0.28417000  1
  H  H10  1  0.31021000  0.50064000  0.71677000  1
  H  H11  1  0.24952000  0.50059000  0.69797000  1
  H  H12  1  0.25030000  0.49960000  0.39286000  1
  H  H13  1  0.00836000  0.99170000  0.38444000  1
  H  H14  1  0.91572000  0.08430000  0.38146000  1
  H  H15  1  0.75406000  0.24587000  0.28867000  1
  H  H16  1  0.75224000  0.24780000  0.72126000  1
  H  H17  1  0.83349000  0.16658000  0.70390000  1
  H  H18  1  0.83447000  0.16552000  0.39879000  1
  H  H19  1  0.50540000  0.99278000  0.72793000  1
  H  H20  1  0.41315000  0.08539000  0.72699000  1
  H  H21  1  0.25168000  0.24751000  0.81293000  1
  H  H22  1  0.25232000  0.24677000  0.38031000  1
  H  H23  1  0.33311000  0.16567000  0.40111000  1
  H  H24  1  0.33235000  0.16649000  0.70622000  1
  H  H25  1  0.54605000  0.83439000  0.72234000  1
  H  H26  1  0.47710000  0.83404000  0.72458000  1
  H  H27  1  0.35647000  0.83368000  0.81609000  1
  H  H28  1  0.35674000  0.83234000  0.38350000  1
  H  H29  1  0.41713000  0.83272000  0.40150000  1
  H  H30  1  0.41671000  0.83366000  0.70661000  1
  H  H31  1  0.78959000  0.83056000  0.73233000  1
  H  H32  1  0.85852000  0.83093000  0.73275000  1
  H  H33  1  0.97877000  0.83186000  0.82107000  1
  H  H34  1  0.98031000  0.83046000  0.38847000  1
  H  H35  1  0.91985000  0.83020000  0.40807000  1
  H  H36  1  0.91898000  0.83119000  0.71318000  1
  H  H37  1  0.35921000  0.66348000  0.79469000  1
  H  H38  1  0.38301000  0.61715000  0.73401000  1
  H  H39  1  0.31441000  0.66348000  0.79514000  1
  H  H40  1  0.35369000  0.66874000  0.30776000  1
  H  H41  1  0.28504000  0.71495000  0.36873000  1
  H  H42  1  0.30913000  0.66850000  0.30789000  1
  H  H43  1  0.81595000  0.66194000  0.28928000  1
  H  H44  1  0.88427000  0.61599000  0.35192000  1
  H  H45  1  0.86074000  0.66194000  0.28884000  1
  H  H46  1  0.80796000  0.67020000  0.77593000  1
  H  H47  1  0.78473000  0.71604000  0.71301000  1
  H  H48  1  0.85299000  0.66997000  0.77581000  1
  C  C1  1  0.40431000  0.59577000  0.49830000  1
  C  C2  1  0.59568000  0.40424000  0.50170000  1
  C  C3  1  0.42840000  0.49994000  0.50001000  1
  C  C4  1  0.57160000  0.50007000  0.50000000  1
  C  C5  1  0.90419000  0.59607000  0.58851000  1
  C  C6  1  0.09520000  0.40454000  0.59321000  1
  C  C7  1  0.07142000  0.50025000  0.59088000  1
  C  C8  1  0.92797000  0.50037000  0.59084000  1
  C  C9  1  0.26385000  0.73633000  0.60444000  1
  C  C10  1  0.07227000  0.92786000  0.60104000  1
  C  C11  1  0.09671000  0.83179000  0.60368000  1
  C  C12  1  0.23942000  0.83240000  0.60180000  1
  C  C13  1  0.76469000  0.73596000  0.47642000  1
  C  C14  1  0.57388000  0.92748000  0.47171000  1
  C  C15  1  0.74126000  0.83141000  0.47316000  1
  C  C16  1  0.59732000  0.83203000  0.47497000  1
  C  C17  1  0.88530000  0.50037000  0.59083000  1
  C  C18  1  0.86506000  0.49999000  0.46992000  1
  C  C19  1  0.82504000  0.49999000  0.46976000  1
  C  C20  1  0.80407000  0.50036000  0.59107000  1
  C  C21  1  0.82437000  0.50074000  0.71167000  1
  C  C22  1  0.86435000  0.50074000  0.71176000  1
  C  C23  1  0.76144000  0.50038000  0.59856000  1
  C  C24  1  0.73813000  0.50006000  0.49223000  1
  C  C25  1  0.67520000  0.49970000  0.37913000  1
  C  C26  1  0.69550000  0.50008000  0.49974000  1
  C  C27  1  0.67453000  0.50045000  0.62106000  1
  C  C28  1  0.63451000  0.50045000  0.62090000  1
  C  C29  1  0.61427000  0.50007000  0.49999000  1
  C  C30  1  0.63521000  0.49970000  0.37906000  1
  C  C31  1  0.11410000  0.50025000  0.59087000  1
  C  C32  1  0.13510000  0.49985000  0.46996000  1
  C  C33  1  0.17513000  0.49985000  0.46979000  1
  C  C34  1  0.19533000  0.50024000  0.59109000  1
  C  C35  1  0.17427000  0.50063000  0.71171000  1
  C  C36  1  0.13428000  0.50064000  0.71179000  1
  C  C37  1  0.23792000  0.50026000  0.59858000  1
  C  C38  1  0.26190000  0.49992000  0.49226000  1
  C  C39  1  0.32555000  0.49955000  0.37915000  1
  C  C40  1  0.30449000  0.49994000  0.49976000  1
  C  C41  1  0.32469000  0.50033000  0.62107000  1
  C  C42  1  0.36472000  0.50033000  0.62091000  1
  C  C43  1  0.38573000  0.49994000  0.50000000  1
  C  C44  1  0.36554000  0.49955000  0.37908000  1
  C  C45  1  0.32005000  0.68011000  0.60727000  1
  C  C46  1  0.34811000  0.65199000  0.49547000  1
  C  C47  1  0.01523000  0.98488000  0.60002000  1
  C  C48  1  0.98796000  0.01211000  0.47861000  1
  C  C49  1  0.93445000  0.06560000  0.47750000  1
  C  C50  1  0.90663000  0.09344000  0.59832000  1
  C  C51  1  0.93398000  0.06613000  0.71942000  1
  C  C52  1  0.98744000  0.01269000  0.72045000  1
  C  C53  1  0.84965000  0.15040000  0.60479000  1
  C  C54  1  0.81831000  0.18170000  0.49791000  1
  C  C55  1  0.73397000  0.26597000  0.38330000  1
  C  C56  1  0.76132000  0.23866000  0.50440000  1
  C  C57  1  0.73351000  0.26650000  0.62522000  1
  C  C58  1  0.68000000  0.31999000  0.62411000  1
  C  C59  1  0.65273000  0.34722000  0.50271000  1
  C  C60  1  0.68052000  0.31941000  0.38228000  1
  C  C61  1  0.82074000  0.67973000  0.47597000  1
  C  C62  1  0.84814000  0.65230000  0.58895000  1
  C  C63  1  0.51346000  0.98464000  0.51267000  1
  C  C64  1  0.48562000  0.01261000  0.63291000  1
  C  C65  1  0.43234000  0.06610000  0.63176000  1
  C  C66  1  0.40533000  0.09319000  0.50978000  1
  C  C67  1  0.43325000  0.06514000  0.38985000  1
  C  C68  1  0.48648000  0.01170000  0.39108000  1
  C  C69  1  0.34864000  0.15010000  0.50089000  1
  C  C70  1  0.31682000  0.18206000  0.60644000  1
  C  C71  1  0.23221000  0.26703000  0.71746000  1
  C  C72  1  0.26013000  0.23897000  0.59754000  1
  C  C73  1  0.23312000  0.26606000  0.47554000  1
  C  C74  1  0.17984000  0.31955000  0.47439000  1
  C  C75  1  0.15201000  0.34752000  0.59462000  1
  C  C76  1  0.17898000  0.32046000  0.71622000  1
  C  C77  1  0.55197000  0.83375000  0.50682000  1
  C  C78  1  0.53122000  0.83402000  0.62801000  1
  C  C79  1  0.49140000  0.83381000  0.62870000  1
  C  C80  1  0.47116000  0.83333000  0.50766000  1
  C  C81  1  0.49196000  0.83307000  0.38679000  1
  C  C82  1  0.53174000  0.83327000  0.38618000  1
  C  C83  1  0.42878000  0.83309000  0.50074000  1
  C  C84  1  0.40506000  0.83329000  0.60737000  1
  C  C85  1  0.34187000  0.83331000  0.72130000  1
  C  C86  1  0.36268000  0.83305000  0.60043000  1
  C  C87  1  0.34244000  0.83257000  0.47938000  1
  C  C88  1  0.30262000  0.83236000  0.48007000  1
  C  C89  1  0.28187000  0.83263000  0.60125000  1
  C  C90  1  0.30209000  0.83311000  0.72190000  1
  C  C91  1  0.78457000  0.82983000  0.51696000  1
  C  C92  1  0.80481000  0.83033000  0.63760000  1
  C  C93  1  0.84462000  0.83055000  0.63724000  1
  C  C94  1  0.86537000  0.83026000  0.51567000  1
  C  C95  1  0.84508000  0.82976000  0.39533000  1
  C  C96  1  0.80530000  0.82955000  0.39577000  1
  C  C97  1  0.90777000  0.83046000  0.50762000  1
  C  C98  1  0.93105000  0.83093000  0.61363000  1
  C  C99  1  0.99376000  0.83163000  0.72590000  1
  C  C100  1  0.97346000  0.83113000  0.60557000  1
  C  C101  1  0.99421000  0.83085000  0.48398000  1
  C  C102  1  0.03402000  0.83106000  0.48361000  1
  C  C103  1  0.05426000  0.83156000  0.60425000  1
  C  C104  1  0.03353000  0.83185000  0.72544000  1
  C  C105  1  0.34671000  0.65352000  0.74602000  1
  C  C106  1  0.32145000  0.67858000  0.35673000  1
  C  C107  1  0.84803000  0.65228000  0.33837000  1
  C  C108  1  0.82085000  0.67975000  0.72655000  1
  Cl  Cl1  1  0.88836000  0.50122000  0.86549000  1
  Cl  Cl2  1  0.79973000  0.50121000  0.86603000  1
  Cl  Cl3  1  0.60951000  0.50092000  0.77454000  1
  Cl  Cl4  1  0.61120000  0.49923000  0.22534000  1
  Cl  Cl5  1  0.10930000  0.50113000  0.86552000  1
  Cl  Cl6  1  0.19794000  0.50113000  0.86606000  1
  Cl  Cl7  1  0.38876000  0.50083000  0.77455000  1
  Cl  Cl8  1  0.39053000  0.49905000  0.22535000  1
  Cl  Cl9  1  0.01981000  0.98038000  0.87477000  1
  Cl  Cl10  1  0.90132000  0.09881000  0.87320000  1
  Cl  Cl11  1  0.64685000  0.35316000  0.77717000  1
  Cl  Cl12  1  0.64814000  0.35173000  0.22797000  1
  Cl  Cl13  1  0.51958000  0.97843000  0.23816000  1
  Cl  Cl14  1  0.40161000  0.09687000  0.23470000  1
  Cl  Cl15  1  0.14771000  0.35177000  0.31994000  1
  Cl  Cl16  1  0.14588000  0.35373000  0.86914000  1
  Cl  Cl17  1  0.55641000  0.83293000  0.23212000  1
  Cl  Cl18  1  0.46824000  0.83246000  0.23275000  1
  Cl  Cl19  1  0.27853000  0.83176000  0.32675000  1
  Cl  Cl20  1  0.27742000  0.83345000  0.87595000  1
  Cl  Cl21  1  0.78128000  0.82892000  0.24237000  1
  Cl  Cl22  1  0.86944000  0.82939000  0.24066000  1
  Cl  Cl23  1  0.05875000  0.83069000  0.32965000  1
  Cl  Cl24  1  0.05756000  0.83247000  0.87885000  1
  O  O1  1  0.43392000  0.56609000  0.38014000  1
  O  O2  1  0.56671000  0.43317000  0.38251000  1
  O  O3  1  0.45066000  0.49955000  0.38133000  1
  O  O4  1  0.54998000  0.49970000  0.38132000  1
  O  O5  1  0.54936000  0.50044000  0.61867000  1
  O  O6  1  0.45001000  0.50032000  0.61868000  1
  O  O7  1  0.56608000  0.43386000  0.61986000  1
  O  O8  1  0.43330000  0.56684000  0.61749000  1
  O  O9  1  0.93310000  0.56712000  0.70791000  1
  O  O10  1  0.06568000  0.43421000  0.71117000  1
  O  O11  1  0.04920000  0.50059000  0.70955000  1
  O  O12  1  0.94959000  0.50074000  0.70952000  1
  O  O13  1  0.95021000  0.50000000  0.47217000  1
  O  O14  1  0.04979000  0.49990000  0.47220000  1
  O  O15  1  0.06640000  0.43344000  0.47382000  1
  O  O16  1  0.93370000  0.56641000  0.47056000  1
  O  O17  1  0.23424000  0.76601000  0.72260000  1
  O  O18  1  0.10127000  0.89893000  0.72024000  1
  O  O19  1  0.11821000  0.83229000  0.72207000  1
  O  O20  1  0.21731000  0.83266000  0.72077000  1
  O  O21  1  0.21790000  0.83192000  0.48342000  1
  O  O22  1  0.11884000  0.83152000  0.48472000  1
  O  O23  1  0.10177000  0.89824000  0.48289000  1
  O  O24  1  0.23487000  0.76526000  0.48525000  1
  O  O25  1  0.73578000  0.76491000  0.35702000  1
  O  O26  1  0.60338000  0.89782000  0.35375000  1
  O  O27  1  0.71949000  0.83118000  0.35476000  1
  O  O28  1  0.61966000  0.83155000  0.35602000  1
  O  O29  1  0.61906000  0.83228000  0.59337000  1
  O  O30  1  0.71893000  0.83188000  0.59211000  1
  O  O31  1  0.60280000  0.89859000  0.59110000  1
  O  O32  1  0.73518000  0.76562000  0.59437000  1
