data_DB1-Zn2O8-AZO_A-irmof6_A_No362_repeat
_audit_creation_date              2024-02-24
_audit_creation_method            'Materials Studio'
_symmetry_space_group_name_H-M    'P1'
_symmetry_Int_Tables_number       1
_symmetry_cell_setting            triclinic
loop_
_symmetry_equiv_pos_as_xyz
  x,y,z
_cell_length_a                    11.0049
_cell_length_b                    36.5594
_cell_length_c                    10.0000
_cell_angle_alpha                 90.0000
_cell_angle_beta                  90.0000
_cell_angle_gamma                 107.3370
loop_
_atom_site_label
_atom_site_type_symbol
_atom_site_fract_x
_atom_site_fract_y
_atom_site_fract_z
_atom_site_U_iso_or_equiv
_atom_site_adp_type
_atom_site_occupancy
O1     O     0.32502   0.50034   0.63580   0.00000  Uiso   1.00
O2     O     0.32482   0.49997   0.36399   0.00000  Uiso   1.00
C1     C     0.26312   0.50010   0.49992   0.00000  Uiso   1.00
Zn1    Zn    0.50004   0.50011   0.66577   0.00000  Uiso   1.00
O3     O     0.55507   0.55516   0.36380   0.00000  Uiso   1.00
O4     O     0.55529   0.55537   0.63562   0.00000  Uiso   1.00
C2     C     0.57452   0.57474   0.49974   0.00000  Uiso   1.00
O5     O     0.67509   0.49973   0.36420   0.00000  Uiso   1.00
O6     O     0.67515   0.49996   0.63601   0.00000  Uiso   1.00
C3     C     0.73689   0.49987   0.50008   0.00000  Uiso   1.00
Zn2    Zn    0.50000   0.49989   0.33423   0.00000  Uiso   1.00
O7     O     0.44473   0.44484   0.63620   0.00000  Uiso   1.00
O8     O     0.44496   0.44464   0.36438   0.00000  Uiso   1.00
C4     C     0.42511   0.42526   0.50026   0.00000  Uiso   1.00
O9     O     0.82096   0.99979   0.26656   0.00000  Uiso   1.00
O10    O     0.82153   0.00016   0.53836   0.00000  Uiso   1.00
C5     C     0.75959   0.00007   0.40244   0.00000  Uiso   1.00
Zn3    Zn    0.99633   0.99991   0.23657   0.00000  Uiso   1.00
O11    O     0.94205   0.94486   0.53853   0.00000  Uiso   1.00
O12    O     0.94184   0.94466   0.26672   0.00000  Uiso   1.00
C6     C     0.92260   0.92528   0.40259   0.00000  Uiso   1.00
O13    O     0.17205   0.00018   0.53812   0.00000  Uiso   1.00
O14    O     0.17162   0.99995   0.26631   0.00000  Uiso   1.00
C7     C     0.23352   0.00000   0.40222   0.00000  Uiso   1.00
Zn4    Zn    0.99675   0.00013   0.56810   0.00000  Uiso   1.00
O15    O     0.05077   0.05518   0.26614   0.00000  Uiso   1.00
O16    O     0.05145   0.05538   0.53795   0.00000  Uiso   1.00
C8     C     0.07005   0.07476   0.40207   0.00000  Uiso   1.00
C9     C     0.88013   0.88251   0.40252   0.00000  Uiso   1.00
C10    C     0.85960   0.86183   0.52364   0.00000  Uiso   1.00
C11    C     0.81972   0.82166   0.52325   0.00000  Uiso   1.00
C12    C     0.79955   0.80136   0.40193   0.00000  Uiso   1.00
C13    C     0.81979   0.82175   0.28137   0.00000  Uiso   1.00
C14    C     0.85966   0.86190   0.28129   0.00000  Uiso   1.00
N1     N     0.75869   0.76022   0.39829   0.00000  Uiso   1.00
N2     N     0.73843   0.73980   0.50405   0.00000  Uiso   1.00
C15    C     0.67733   0.67827   0.62097   0.00000  Uiso   1.00
C16    C     0.69757   0.69866   0.50041   0.00000  Uiso   1.00
C17    C     0.67741   0.67836   0.37908   0.00000  Uiso   1.00
C18    C     0.63752   0.63819   0.37870   0.00000  Uiso   1.00
C19    C     0.61699   0.61751   0.49981   0.00000  Uiso   1.00
C20    C     0.63746   0.63812   0.62104   0.00000  Uiso   1.00
H1     H     0.87461   0.87693   0.61823   0.00000  Uiso   1.00
H2     H     0.80447   0.80631   0.61715   0.00000  Uiso   1.00
H3     H     0.69261   0.69366   0.71491   0.00000  Uiso   1.00
H4     H     0.69265   0.69371   0.28519   0.00000  Uiso   1.00
C21    C     0.11340   0.11752   0.40213   0.00000  Uiso   1.00
C22    C     0.13413   0.13818   0.52330   0.00000  Uiso   1.00
C23    C     0.17483   0.17834   0.52304   0.00000  Uiso   1.00
C24    C     0.19563   0.19867   0.40178   0.00000  Uiso   1.00
C25    C     0.17520   0.17831   0.28115   0.00000  Uiso   1.00
C26    C     0.13451   0.13817   0.28096   0.00000  Uiso   1.00
N3     N     0.23734   0.23982   0.39826   0.00000  Uiso   1.00
N4     N     0.25782   0.26020   0.50408   0.00000  Uiso   1.00
C27    C     0.31996   0.32171   0.62118   0.00000  Uiso   1.00
C28    C     0.29953   0.30135   0.50056   0.00000  Uiso   1.00
C29    C     0.32033   0.32168   0.37930   0.00000  Uiso   1.00
C30    C     0.36103   0.36184   0.37903   0.00000  Uiso   1.00
C31    C     0.38176   0.38250   0.50021   0.00000  Uiso   1.00
C32    C     0.36065   0.36185   0.62138   0.00000  Uiso   1.00
H5     H     0.11864   0.12305   0.61785   0.00000  Uiso   1.00
H6     H     0.19022   0.19368   0.61698   0.00000  Uiso   1.00
H7     H     0.30419   0.30630   0.71507   0.00000  Uiso   1.00
H8     H     0.30494   0.30634   0.28535   0.00000  Uiso   1.00
C33    C     0.13274   0.50004   0.49996   0.00000  Uiso   1.00
C34    C     0.86727   0.49993   0.50004   0.00000  Uiso   1.00
C35    C     0.06614   0.49992   0.39436   0.00000  Uiso   1.00
C36    C     0.93387   0.50005   0.60564   0.00000  Uiso   1.00
C37    C     0.93364   0.49987   0.39441   0.00000  Uiso   1.00
C38    C     0.06637   0.50010   0.60560   0.00000  Uiso   1.00
C39    C     0.06315   0.49980   0.24416   0.00000  Uiso   1.00
C40    C     0.93630   0.49974   0.24420   0.00000  Uiso   1.00
H9     H     0.08313   0.47464   0.20023   0.00000  Uiso   1.00
H10    H     0.13330   0.52490   0.20052   0.00000  Uiso   1.00
H11    H     0.91621   0.52483   0.19978   0.00000  Uiso   1.00
H12    H     0.86606   0.47456   0.20111   0.00000  Uiso   1.00
C41    C     0.62879   0.99960   0.40230   0.00000  Uiso   1.00
C42    C     0.36371   0.99987   0.40225   0.00000  Uiso   1.00
C43    C     0.56248   0.99975   0.50791   0.00000  Uiso   1.00
C44    C     0.43003   0.99971   0.29664   0.00000  Uiso   1.00
C45    C     0.43017   0.99989   0.50788   0.00000  Uiso   1.00
C46    C     0.56233   0.99957   0.29667   0.00000  Uiso   1.00
C47    C     0.55977   0.99988   0.65811   0.00000  Uiso   1.00
C48    C     0.43309   0.00001   0.65809   0.00000  Uiso   1.00
H13    H     0.62969   0.02501   0.70204   0.00000  Uiso   1.00
H14    H     0.58003   0.97475   0.70174   0.00000  Uiso   1.00
H15    H     0.36322   0.97496   0.70251   0.00000  Uiso   1.00
H16    H     0.41289   0.02522   0.70118   0.00000  Uiso   1.00
O17    O     0.87768   0.88005   0.16801   0.00000  Uiso   1.00
Li1    Li    0.86281   0.86509   0.00508   0.00000  Uiso   1.00
O18    O     0.80146   0.80329   0.16868   0.00000  Uiso   1.00
Li2    Li    0.75407   0.75557   0.12946   0.00000  Uiso   1.00
O19    O     0.61944   0.61997   0.73433   0.00000  Uiso   1.00
Li3    Li    0.63431   0.63494   0.89725   0.00000  Uiso   1.00
O20    O     0.61954   0.62009   0.26531   0.00000  Uiso   1.00
Li4    Li    0.63447   0.63514   0.10247   0.00000  Uiso   1.00
O21    O     0.11633   0.12004   0.16762   0.00000  Uiso   1.00
Li5    Li    0.13180   0.13505   0.00474   0.00000  Uiso   1.00
O22    O     0.19412   0.19680   0.16852   0.00000  Uiso   1.00
Li6    Li    0.24255   0.24453   0.12944   0.00000  Uiso   1.00
O23    O     0.37883   0.37998   0.73471   0.00000  Uiso   1.00
Li7    Li    0.36336   0.36497   0.89760   0.00000  Uiso   1.00
O24    O     0.37959   0.37997   0.26570   0.00000  Uiso   1.00
Li8    Li    0.36465   0.36496   0.10281   0.00000  Uiso   1.00
O25    O     0.87633   0.50015   0.74267   0.00000  Uiso   1.00
H17    H     0.77587   0.50010   0.73228   0.00000  Uiso   1.00
O26    O     0.12418   0.50022   0.74260   0.00000  Uiso   1.00
H18    H     0.22461   0.50024   0.73215   0.00000  Uiso   1.00
O27    O     0.37232   0.99965   0.15962   0.00000  Uiso   1.00
H19    H     0.27201   0.99975   0.17002   0.00000  Uiso   1.00
O28    O     0.61987   0.99942   0.15967   0.00000  Uiso   1.00
H20    H     0.72020   0.99934   0.17010   0.00000  Uiso   1.00
