# Generated by REPEAT Assigner based on pymatgen
data_DB1-Zn2O8N2-BDC_A-pmof1_A_No3
_audit_creation_date              2022-05-24
_audit_creation_method            REPEAT_Assigner
_cell_length_a                    16.564800
_cell_length_b                    23.823100
_cell_length_c                    10.017000
_cell_angle_alpha                 90.046000
_cell_angle_beta                  90.471000
_cell_angle_gamma                 45.952600
_cell_volume                      2841.084628
_symmetry_space_group_name_H-M    P1
_symmetry_Int_Tables_number       1
loop_
    _symmetry_equiv_pos_site_id
    _symmetry_equiv_pos_as_xyz
    1  x,y,z
loop_
    _atom_site_type_symbol
    _atom_site_label
    _atom_site_fract_x
    _atom_site_fract_y
    _atom_site_fract_z
    _atom_type_partial_charge
    O   O1   0.495990  0.421010  0.635480  -0.622420
    O   O2   0.496560  0.420740  0.364140  -0.560277
    C   C1   0.495290  0.392830  0.499810  0.530779
    Zn  Zn1  0.500000  0.500010  0.665480  0.994901
    O   O3   0.338090  0.580080  0.362430  -0.556444
    O   O4   0.338020  0.580200  0.633780  -0.618492
    C   C2   0.280970  0.608340  0.497570  0.511805
    O   O5   0.503790  0.579120  0.364510  -0.622483
    O   O6   0.503640  0.579180  0.635860  -0.558625
    C   C3   0.504790  0.607140  0.500190  0.530593
    Zn  Zn2  0.499990  0.500010  0.334510  0.995830
    O   O7   0.661900  0.419830  0.637570  -0.556058
    O   O8   0.661980  0.419920  0.366210  -0.616597
    C   C4   0.719010  0.391490  0.502430  0.507766
    N   N1   0.499990  0.500010  0.860170  0.140250
    N   N2   0.499980  0.500010  0.139830  0.138993
    C   C5   0.572890  0.499510  0.931560  -0.120597
    C   C6   0.427080  0.500510  0.068430  -0.119487
    C   C7   0.572890  0.499510  0.070430  0.069265
    C   C8   0.427080  0.500510  0.929570  0.068922
    H   H1   0.623430  0.499170  0.119030  0.087725
    H   H2   0.376540  0.500860  0.880970  0.087707
    C   C9   0.977120  0.762550  0.377930  -0.351083
    C   C10  0.500510  0.760610  0.620710  -0.360941
    C   C11  0.020270  0.238630  0.380910  -0.295504
    C   C12  0.502270  0.238170  0.620460  -0.305742
    C   C13  0.022970  0.237430  0.622080  -0.348353
    C   C14  0.499580  0.239370  0.379290  -0.361371
    C   C15  0.979810  0.761350  0.619100  -0.299108
    C   C16  0.497810  0.761810  0.379540  -0.306330
    H   H3   0.931000  0.785470  0.284520  0.144387
    H   H4   0.501580  0.782670  0.714250  0.146368
    H   H5   0.064300  0.216640  0.287210  0.134285
    H   H6   0.503290  0.215180  0.714020  0.136435
    H   H7   0.069090  0.214510  0.715490  0.144165
    H   H8   0.498510  0.217310  0.285750  0.146525
    H   H9   0.935780  0.783340  0.712790  0.134758
    H   H10  0.496790  0.784800  0.285980  0.136502
    C   C17  0.094590  0.703430  0.377450  0.058705
    C   C18  0.501620  0.701320  0.620850  0.066877
    C   C19  0.902800  0.297740  0.381160  -0.064436
    C   C20  0.501160  0.297460  0.620550  -0.055715
    C   C21  0.905500  0.296540  0.622560  0.055767
    C   C22  0.498460  0.298660  0.379150  0.067199
    C   C23  0.097280  0.702230  0.618840  -0.060743
    C   C24  0.498920  0.702520  0.379460  -0.055370
    H   H11  0.137250  0.681770  0.282960  0.067893
    H   H12  0.503350  0.678650  0.715220  0.067349
    H   H13  0.858030  0.320340  0.286940  0.124129
    H   H14  0.501540  0.319190  0.714890  0.123224
    H   H15  0.862830  0.318200  0.717050  0.068231
    H   H16  0.496730  0.321330  0.284790  0.067594
    H   H17  0.142060  0.679630  0.713060  0.123892
    H   H18  0.498550  0.680790  0.285110  0.123333
    N   N3   0.620540  0.879680  0.499660  -0.520708
    N   N4   0.379550  0.120300  0.500350  -0.521406
    C   C25  0.739360  0.829300  0.499280  0.387606
    C   C26  0.602830  0.829090  0.499740  0.383417
    C   C27  0.260720  0.170680  0.500720  0.388355
    C   C28  0.397260  0.170890  0.500260  0.383562
    C   C29  0.792430  0.747980  0.499150  -0.275633
    C   C30  0.712550  0.747860  0.499410  -0.273807
    C   C31  0.207660  0.251990  0.500860  -0.275627
    C   C32  0.287540  0.252110  0.500590  -0.274346
    H   H19  0.881550  0.695930  0.498870  0.158680
    H   H20  0.727800  0.695700  0.499390  0.158651
    H   H21  0.118540  0.304040  0.501130  0.158893
    H   H22  0.272280  0.304280  0.500610  0.158839
    C   C33  0.738150  0.936290  0.499230  0.184262
    C   C34  0.390070  0.935750  0.500410  0.187818
    C   C35  0.261940  0.063690  0.500770  0.184808
    C   C36  0.610020  0.064220  0.499600  0.186398
    C   C37  0.794350  0.960070  0.499030  -0.213525
    C   C38  0.286480  0.959290  0.500740  -0.220987
    C   C39  0.205730  0.039910  0.500970  -0.212888
    C   C40  0.713610  0.040690  0.499260  -0.220377
    H   H23  0.884280  0.923140  0.498740  0.143783
    H   H24  0.270670  0.922200  0.500820  0.145685
    H   H25  0.115800  0.076830  0.501260  0.143506
    H   H26  0.729420  0.077780  0.499190  0.145644
    C   C41  0.794540  0.852540  0.499080  -0.295565
    C   C42  0.501340  0.852090  0.500070  -0.297816
    C   C43  0.205550  0.147430  0.500920  -0.295217
    C   C44  0.498750  0.147880  0.499930  -0.296895
    C   C45  0.919110  0.791540  0.498700  0.443695
    C   C46  0.499140  0.790900  0.500110  0.456839
    C   C47  0.080970  0.208430  0.501310  0.439487
    C   C48  0.500940  0.209080  0.499890  0.456200
    C   C49  0.156260  0.672220  0.497960  -0.071662
    C   C50  0.501370  0.671210  0.500170  -0.090594
    C   C51  0.843830  0.327760  0.502040  -0.066395
    C   C52  0.498710  0.328770  0.499840  -0.090444
    N   N5   0.626350  0.000180  0.499570  -0.133872
    N   N6   0.373740  0.999790  0.500430  -0.136553
    H   H27  0.564540  0.000090  0.499780  0.191496
    H   H28  0.435540  0.999890  0.500220  0.193639
    Br  Br1  0.682250  0.498760  0.829390  0.058791
    Br  Br2  0.317720  0.501260  0.170610  0.058287
