# generated using pymatgen
data_CuH3C13Br4NO6
_symmetry_space_group_name_H-M   'P 1'
_cell_length_a   10.54320000
_cell_length_b   34.49760000
_cell_length_c   10.00000000
_cell_angle_alpha   90.00000000
_cell_angle_beta   90.00000000
_cell_angle_gamma   90.09340000
_symmetry_Int_Tables_number   1
_chemical_formula_structural   CuH3C13Br4NO6
_chemical_formula_sum   'Cu4 H12 C52 Br16 N4 O24'
_cell_volume   3637.14613061
_cell_formula_units_Z   4
loop_
 _symmetry_equiv_pos_site_id
 _symmetry_equiv_pos_as_xyz
  1  'x, y, z'
loop_
 _atom_site_type_symbol
 _atom_site_label
 _atom_site_symmetry_multiplicity
 _atom_site_fract_x
 _atom_site_fract_y
 _atom_site_fract_z
 _atom_site_occupancy
  Cu  Cu1  1  0.50000000  0.50000000  0.62726000  1
  Cu  Cu2  1  0.50001000  0.50000000  0.37274000  1
  Cu  Cu3  1  0.50051000  0.00000000  0.27502000  1
  Cu  Cu4  1  0.49987000  0.00000000  0.52953000  1
  H  H1  1  0.21577000  0.54901000  0.33146000  1
  H  H2  1  0.78486000  0.54906000  0.33148000  1
  H  H3  1  0.21551000  0.95169000  0.57284000  1
  H  H4  1  0.78461000  0.95122000  0.57160000  1
  H  H5  1  0.76437000  0.45273000  0.66258000  1
  H  H6  1  0.23504000  0.45268000  0.66256000  1
  H  H7  1  0.24446000  0.59692000  0.16679000  1
  H  H8  1  0.75678000  0.59697000  0.16681000  1
  H  H9  1  0.76498000  0.04754000  0.24044000  1
  H  H10  1  0.23564000  0.04804000  0.24179000  1
  H  H11  1  0.24377000  0.90381000  0.73759000  1
  H  H12  1  0.75609000  0.90328000  0.73619000  1
  C  C1  1  0.73789000  0.50003000  0.50001000  1
  C  C2  1  0.26213000  0.49997000  0.49999000  1
  C  C3  1  0.49984000  0.42730000  0.50000000  1
  C  C4  1  0.50018000  0.57270000  0.50000000  1
  C  C5  1  0.73807000  0.00021000  0.40294000  1
  C  C6  1  0.26231000  0.99980000  0.40162000  1
  C  C7  1  0.50004000  0.07270000  0.40228000  1
  C  C8  1  0.50034000  0.92730000  0.40228000  1
  C  C9  1  0.50034000  0.88404000  0.40227000  1
  C  C10  1  0.50018000  0.86313000  0.52342000  1
  C  C11  1  0.50018000  0.82250000  0.52310000  1
  C  C12  1  0.50033000  0.80194000  0.40182000  1
  C  C13  1  0.50048000  0.82255000  0.28122000  1
  C  C14  1  0.50049000  0.86317000  0.28108000  1
  C  C15  1  0.50004000  0.67745000  0.62106000  1
  C  C16  1  0.50019000  0.69806000  0.50046000  1
  C  C17  1  0.50034000  0.67751000  0.37917000  1
  C  C18  1  0.50034000  0.63687000  0.37885000  1
  C  C19  1  0.50018000  0.61597000  0.50000000  1
  C  C20  1  0.50003000  0.63684000  0.62120000  1
  C  C21  1  0.50004000  0.11597000  0.40227000  1
  C  C22  1  0.49983000  0.13687000  0.52342000  1
  C  C23  1  0.49983000  0.17751000  0.52310000  1
  C  C24  1  0.50003000  0.19806000  0.40182000  1
  C  C25  1  0.50023000  0.17745000  0.28122000  1
  C  C26  1  0.50023000  0.13684000  0.28108000  1
  C  C27  1  0.49965000  0.32255000  0.62105000  1
  C  C28  1  0.49986000  0.30194000  0.50046000  1
  C  C29  1  0.50005000  0.32250000  0.37917000  1
  C  C30  1  0.50005000  0.36313000  0.37885000  1
  C  C31  1  0.49985000  0.38404000  0.50000000  1
  C  C32  1  0.49965000  0.36317000  0.62120000  1
  C  C33  1  0.12372000  0.49999000  0.49999000  1
  C  C34  1  0.05896000  0.52514000  0.41359000  1
  C  C35  1  0.05864000  0.47486000  0.58640000  1
  C  C36  1  0.12771000  0.54969000  0.32919000  1
  C  C37  1  0.06687000  0.57512000  0.24178000  1
  C  C38  1  0.87629000  0.50002000  0.50000000  1
  C  C39  1  0.94105000  0.47487000  0.58641000  1
  C  C40  1  0.94137000  0.52515000  0.41359000  1
  C  C41  1  0.87294000  0.54971000  0.32919000  1
  C  C42  1  0.93410000  0.57514000  0.24178000  1
  C  C43  1  0.12390000  0.00062000  0.40405000  1
  C  C44  1  0.05892000  0.97541000  0.49027000  1
  C  C45  1  0.05905000  0.02569000  0.31745000  1
  C  C46  1  0.12744000  0.95093000  0.57486000  1
  C  C47  1  0.06638000  0.92543000  0.66210000  1
  C  C48  1  0.87648000  0.00036000  0.40334000  1
  C  C49  1  0.94146000  0.02557000  0.31712000  1
  C  C50  1  0.94133000  0.97528000  0.48993000  1
  C  C51  1  0.87267000  0.95066000  0.57413000  1
  C  C52  1  0.93360000  0.92529000  0.66172000  1
  Br  Br1  1  0.50072000  0.89254000  0.09975000  1
  Br  Br2  1  0.50071000  0.79265000  0.10093000  1
  Br  Br3  1  0.49995000  0.89246000  0.70483000  1
  Br  Br4  1  0.49994000  0.79268000  0.70355000  1
  Br  Br5  1  0.49981000  0.70736000  0.80135000  1
  Br  Br6  1  0.49980000  0.60747000  0.80253000  1
  Br  Br7  1  0.50058000  0.70733000  0.19873000  1
  Br  Br8  1  0.50057000  0.60754000  0.19745000  1
  Br  Br9  1  0.50053000  0.10747000  0.09975000  1
  Br  Br10  1  0.50052000  0.20735000  0.10093000  1
  Br  Br11  1  0.49954000  0.10754000  0.70483000  1
  Br  Br12  1  0.49953000  0.20733000  0.70355000  1
  Br  Br13  1  0.49936000  0.29265000  0.80135000  1
  Br  Br14  1  0.49935000  0.39254000  0.80253000  1
  Br  Br15  1  0.50035000  0.29267000  0.19873000  1
  Br  Br16  1  0.50034000  0.39246000  0.19745000  1
  N  N1  1  0.50033000  0.76032000  0.39824000  1
  N  N2  1  0.50019000  0.73968000  0.50403000  1
  N  N3  1  0.50003000  0.23968000  0.39824000  1
  N  N4  1  0.49985000  0.26032000  0.50403000  1
  O  O1  1  0.66492000  0.49997000  0.61869000  1
  O  O2  1  0.33475000  0.49992000  0.61867000  1
  O  O3  1  0.49964000  0.44949000  0.61868000  1
  O  O4  1  0.50002000  0.55040000  0.61868000  1
  O  O5  1  0.50033000  0.55051000  0.38132000  1
  O  O6  1  0.50003000  0.44961000  0.38132000  1
  O  O7  1  0.33496000  0.49998000  0.38131000  1
  O  O8  1  0.66527000  0.50010000  0.38133000  1
  O  O9  1  0.66540000  0.00019000  0.28405000  1
  O  O10  1  0.33523000  0.99993000  0.28314000  1
  O  O11  1  0.50014000  0.05051000  0.28359000  1
  O  O12  1  0.50050000  0.94961000  0.28359000  1
  O  O13  1  0.50019000  0.94949000  0.52095000  1
  O  O14  1  0.49993000  0.05040000  0.52096000  1
  O  O15  1  0.33484000  0.99987000  0.52049000  1
  O  O16  1  0.66514000  0.00006000  0.52141000  1
  O  O17  1  0.86757000  0.44824000  0.67796000  1
  O  O18  1  0.13179000  0.44821000  0.67795000  1
  O  O19  1  0.14145000  0.60161000  0.15072000  1
  O  O20  1  0.85985000  0.60164000  0.15073000  1
  O  O21  1  0.86821000  0.05212000  0.22536000  1
  O  O22  1  0.13243000  0.05241000  0.22611000  1
  O  O23  1  0.14072000  0.89902000  0.75337000  1
  O  O24  1  0.85912000  0.89871000  0.75256000  1
