# generated using pymatgen
data_Zn4H19C44N6(ClO4)5
_symmetry_space_group_name_H-M   'P 1'
_cell_length_a   21.64460000
_cell_length_b   10.90060000
_cell_length_c   10.01700000
_cell_angle_alpha   90.03580000
_cell_angle_beta   89.88260000
_cell_angle_gamma   89.84880000
_symmetry_Int_Tables_number   1
_chemical_formula_structural   Zn4H19C44N6(ClO4)5
_chemical_formula_sum   'Zn4 H19 C44 N6 Cl5 O20'
_cell_volume   2363.38857272
_cell_formula_units_Z   1
loop_
 _symmetry_equiv_pos_site_id
 _symmetry_equiv_pos_as_xyz
  1  'x, y, z'
loop_
 _atom_site_type_symbol
 _atom_site_label
 _atom_site_symmetry_multiplicity
 _atom_site_fract_x
 _atom_site_fract_y
 _atom_site_fract_z
 _atom_site_occupancy
  Zn  Zn1  1  0.50000000  0.50002000  0.66548000  1
  Zn  Zn2  1  0.50000000  0.50001000  0.33451000  1
  Zn  Zn3  1  0.99638000  0.49815000  0.33452000  1
  Zn  Zn4  1  0.99637000  0.49856000  0.66549000  1
  H  H1  1  0.56659000  0.36839000  0.11695000  1
  H  H2  1  0.43343000  0.63164000  0.11774000  1
  H  H3  1  0.56658000  0.36840000  0.88226000  1
  H  H4  1  0.50011000  0.10802000  0.70271000  1
  H  H5  1  0.49999000  0.10768000  0.29723000  1
  H  H6  1  0.49996000  0.89236000  0.70277000  1
  H  H7  1  0.85285000  0.65412000  0.66871000  1
  H  H8  1  0.64295000  0.65482000  0.66839000  1
  H  H9  1  0.69781000  0.36834000  0.35714000  1
  H  H10  1  0.79906000  0.36800000  0.35730000  1
  H  H11  1  0.19414000  0.49819000  0.29718000  1
  H  H12  1  0.19363000  0.49775000  0.70266000  1
  H  H13  1  0.30275000  0.49921000  0.29734000  1
  H  H14  1  0.92991000  0.36640000  0.88307000  1
  H  H15  1  0.06282000  0.62875000  0.88225000  1
  H  H16  1  0.92992000  0.36670000  0.11776000  1
  H  H17  1  0.99569000  0.10610000  0.29722000  1
  H  H18  1  0.99581000  0.10627000  0.70270000  1
  H  H19  1  0.99604000  0.89044000  0.29718000  1
  C  C1  1  0.50015000  0.26075000  0.49992000  1
  C  C2  1  0.62051000  0.49990000  0.49981000  1
  C  C3  1  0.49980000  0.73928000  0.50008000  1
  C  C4  1  0.37950000  0.49972000  0.50019000  1
  C  C5  1  0.99645000  0.25909000  0.50011000  1
  C  C6  1  0.87587000  0.49904000  0.50019000  1
  C  C7  1  0.99635000  0.73762000  0.49989000  1
  C  C8  1  0.11688000  0.49724000  0.49981000  1
  C  C9  1  0.46068000  0.57775000  0.93080000  1
  C  C10  1  0.53933000  0.42228000  0.06920000  1
  C  C11  1  0.46069000  0.57775000  0.06966000  1
  C  C12  1  0.53933000  0.42228000  0.93033000  1
  C  C13  1  0.49989000  0.87152000  0.50004000  1
  C  C14  1  0.50006000  0.12851000  0.49996000  1
  C  C15  1  0.49990000  0.93611000  0.38029000  1
  C  C16  1  0.50005000  0.06392000  0.61972000  1
  C  C17  1  0.49998000  0.06372000  0.38025000  1
  C  C18  1  0.49997000  0.93631000  0.61976000  1
  C  C19  1  0.80845000  0.49927000  0.50009000  1
  C  C20  1  0.77668000  0.57884000  0.58646000  1
  C  C21  1  0.77697000  0.41990000  0.41363000  1
  C  C22  1  0.80995000  0.65636000  0.67092000  1
  C  C23  1  0.78008000  0.73685000  0.75829000  1
  C  C24  1  0.68793000  0.49967000  0.49991000  1
  C  C25  1  0.71970000  0.42010000  0.41354000  1
  C  C26  1  0.71940000  0.57904000  0.58637000  1
  C  C27  1  0.68585000  0.65677000  0.67073000  1
  C  C28  1  0.71541000  0.73707000  0.75820000  1
  C  C29  1  0.31290000  0.49909000  0.50010000  1
  C  C30  1  0.18348000  0.49787000  0.49991000  1
  C  C31  1  0.28017000  0.49865000  0.61978000  1
  C  C32  1  0.21621000  0.49831000  0.38022000  1
  C  C33  1  0.21591000  0.49805000  0.61969000  1
  C  C34  1  0.28047000  0.49891000  0.38031000  1
  C  C35  1  0.03562000  0.57528000  0.06919000  1
  C  C36  1  0.95712000  0.42016000  0.93081000  1
  C  C37  1  0.03562000  0.57511000  0.93033000  1
  C  C38  1  0.95712000  0.42034000  0.06968000  1
  C  C39  1  0.99613000  0.86986000  0.49991000  1
  C  C40  1  0.99571000  0.12685000  0.49997000  1
  C  C41  1  0.99606000  0.93460000  0.61966000  1
  C  C42  1  0.99578000  0.06211000  0.38022000  1
  C  C43  1  0.99585000  0.06221000  0.61969000  1
  C  C44  1  0.99599000  0.93450000  0.38019000  1
  N  N1  1  0.50000000  0.50002000  0.86017000  1
  N  N2  1  0.50001000  0.50001000  0.13983000  1
  N  N3  1  0.99637000  0.49790000  0.13983000  1
  N  N4  1  0.99637000  0.49754000  0.86017000  1
  N  N5  1  0.81622000  0.82057000  0.84952000  1
  N  N6  1  0.67896000  0.82103000  0.84932000  1
  Cl  Cl1  1  0.41071000  0.67655000  0.84326000  1
  Cl  Cl2  1  0.49980000  0.85527000  0.22814000  1
  Cl  Cl3  1  0.32063000  0.49887000  0.77201000  1
  Cl  Cl4  1  0.08550000  0.67385000  0.15672000  1
  Cl  Cl5  1  0.99624000  0.85395000  0.77182000  1
  O  O1  1  0.50040000  0.32308000  0.63557000  1
  O  O2  1  0.50009000  0.32310000  0.36422000  1
  O  O3  1  0.58908000  0.49992000  0.36408000  1
  O  O4  1  0.58912000  0.50009000  0.63544000  1
  O  O5  1  0.49972000  0.67696000  0.36443000  1
  O  O6  1  0.49980000  0.67694000  0.63578000  1
  O  O7  1  0.41092000  0.49987000  0.63592000  1
  O  O8  1  0.41088000  0.50016000  0.36456000  1
  O  O9  1  0.99614000  0.32125000  0.36446000  1
  O  O10  1  0.99646000  0.32160000  0.63580000  1
  O  O11  1  0.90729000  0.49902000  0.63592000  1
  O  O12  1  0.90725000  0.49885000  0.36456000  1
  O  O13  1  0.99649000  0.67546000  0.63555000  1
  O  O14  1  0.99641000  0.67510000  0.36420000  1
  O  O15  1  0.08546000  0.49743000  0.36409000  1
  O  O16  1  0.08550000  0.49806000  0.63544000  1
  O  O17  1  0.87084000  0.77304000  0.92148000  1
  O  O18  1  0.79687000  0.94984000  0.86664000  1
  O  O19  1  0.62430000  0.88723000  0.79766000  1
  O  O20  1  0.69804000  0.83682000  0.98993000  1
