# generated using pymatgen
data_Li5Cu2H7C24S5N2O13
_symmetry_space_group_name_H-M   'P 1'
_cell_length_a   12.50110000
_cell_length_b   23.04430000
_cell_length_c   10.82870000
_cell_angle_alpha   89.99930000
_cell_angle_beta   89.99910000
_cell_angle_gamma   89.88470000
_symmetry_Int_Tables_number   1
_chemical_formula_structural   Li5Cu2H7C24S5N2O13
_chemical_formula_sum   'Li10 Cu4 H14 C48 S10 N4 O26'
_cell_volume   3119.51581938
_cell_formula_units_Z   2
loop_
 _symmetry_equiv_pos_site_id
 _symmetry_equiv_pos_as_xyz
  1  'x, y, z'
loop_
 _atom_site_type_symbol
 _atom_site_label
 _atom_site_symmetry_multiplicity
 _atom_site_fract_x
 _atom_site_fract_y
 _atom_site_fract_z
 _atom_site_occupancy
  Li  Li1  1  0.28546000  0.61632000  0.91392000  1
  Li  Li2  1  0.71453000  0.38368000  0.08608000  1
  Li  Li3  1  0.92544000  0.49972000  0.15019000  1
  Li  Li4  1  0.07455000  0.50029000  0.84981000  1
  Li  Li5  1  0.49980000  0.26922000  0.84983000  1
  Li  Li6  1  0.50023000  0.18831000  0.15021000  1
  Li  Li7  1  0.28667000  0.84160000  0.08521000  1
  Li  Li8  1  0.71603000  0.07344000  0.91487000  1
  Li  Li9  1  0.92406000  0.95702000  0.85165000  1
  Li  Li10  1  0.07542000  0.95616000  0.15267000  1
  Cu  Cu1  1  0.49999000  0.50000000  0.38248000  1
  Cu  Cu2  1  0.49999000  0.50000000  0.61752000  1
  Cu  Cu3  1  0.49936000  0.95752000  0.61756000  1
  Cu  Cu4  1  0.50012000  0.95752000  0.38252000  1
  H  H1  1  0.63498000  0.82722000  0.34440000  1
  H  H2  1  0.63509000  0.63007000  0.34437000  1
  H  H3  1  0.28184000  0.67727000  0.64834000  1
  H  H4  1  0.36562000  0.62665000  0.65457000  1
  H  H5  1  0.37024000  0.67731000  0.75102000  1
  H  H6  1  0.37040000  0.78056000  0.75105000  1
  H  H7  1  0.36528000  0.83112000  0.65434000  1
  H  H8  1  0.28179000  0.78052000  0.64861000  1
  H  H9  1  0.76664000  0.78441000  0.09068000  1
  H  H10  1  0.77111000  0.83467000  0.18808000  1
  H  H11  1  0.85525000  0.78419000  0.19312000  1
  H  H12  1  0.85532000  0.67257000  0.19335000  1
  H  H13  1  0.77100000  0.62237000  0.18779000  1
  H  H14  1  0.76692000  0.67278000  0.09068000  1
  C  C1  1  0.49979000  0.60884000  0.50000000  1
  C  C2  1  0.50020000  0.39117000  0.50001000  1
  C  C3  1  0.70062000  0.49996000  0.50000000  1
  C  C4  1  0.29937000  0.50005000  0.50001000  1
  C  C5  1  0.49966000  0.84869000  0.50004000  1
  C  C6  1  0.49983000  0.06636000  0.50003000  1
  C  C7  1  0.70036000  0.95720000  0.50089000  1
  C  C8  1  0.29912000  0.95785000  0.49918000  1
  C  C9  1  0.43992000  0.53258000  0.87225000  1
  C  C10  1  0.56007000  0.46743000  0.12775000  1
  C  C11  1  0.53870000  0.47902000  0.00000000  1
  C  C12  1  0.46129000  0.52099000  0.00000000  1
  C  C13  1  0.88934000  0.49991000  0.40205000  1
  C  C14  1  0.11065000  0.50010000  0.59796000  1
  C  C15  1  0.81998000  0.49998000  0.50000000  1
  C  C16  1  0.18001000  0.50003000  0.50000000  1
  C  C17  1  0.99999000  0.50005000  0.56312000  1
  C  C18  1  0.00000000  0.49995000  0.43688000  1
  C  C19  1  0.49969000  0.78536000  0.50003000  1
  C  C20  1  0.56908000  0.75560000  0.42023000  1
  C  C21  1  0.43033000  0.75572000  0.57982000  1
  C  C22  1  0.63683000  0.78692000  0.34229000  1
  C  C23  1  0.70703000  0.75895000  0.26156000  1
  C  C24  1  0.49975000  0.67216000  0.50001000  1
  C  C25  1  0.43036000  0.70192000  0.57981000  1
  C  C26  1  0.56911000  0.70180000  0.42022000  1
  C  C27  1  0.63690000  0.67036000  0.34227000  1
  C  C28  1  0.70706000  0.69821000  0.26155000  1
  C  C29  1  0.50001000  0.28879000  0.59797000  1
  C  C30  1  0.50002000  0.16873000  0.40207000  1
  C  C31  1  0.50013000  0.32642000  0.50001000  1
  C  C32  1  0.49990000  0.13111000  0.50003000  1
  C  C33  1  0.50006000  0.22876000  0.43690000  1
  C  C34  1  0.49997000  0.22876000  0.56314000  1
  C  C35  1  0.44090000  0.92506000  0.12753000  1
  C  C36  1  0.56180000  0.98998000  0.87255000  1
  C  C37  1  0.54003000  0.97844000  0.00021000  1
  C  C38  1  0.46266000  0.93660000  0.99988000  1
  C  C39  1  0.88877000  0.95689000  0.59964000  1
  C  C40  1  0.11070000  0.95629000  0.40468000  1
  C  C41  1  0.81972000  0.95695000  0.50140000  1
  C  C42  1  0.17975000  0.95623000  0.50292000  1
  C  C43  1  0.99994000  0.95654000  0.43904000  1
  C  C44  1  0.99954000  0.95664000  0.56528000  1
  C  C45  1  0.35481000  0.66751000  0.66666667  1
  C  C46  1  0.35474000  0.79028000  0.66675000  1
  C  C47  1  0.78218000  0.79389000  0.17511000  1
  C  C48  1  0.78225000  0.66314000  0.17509000  1
  S  S1  1  0.58669000  0.45300000  0.86654000  1
  S  S2  1  0.41330000  0.54701000  0.13346000  1
  S  S3  1  0.88438000  0.50010000  0.64136000  1
  S  S4  1  0.11560000  0.49991000  0.35864000  1
  S  S5  1  0.50019000  0.29147000  0.35865000  1
  S  S6  1  0.49984000  0.16605000  0.64139000  1
  S  S7  1  0.58756000  0.00437000  0.13387000  1
  S  S8  1  0.41513000  0.91067000  0.86621000  1
  S  S9  1  0.88458000  0.95671000  0.36031000  1
  S  S10  1  0.11489000  0.95647000  0.64401000  1
  N  N1  1  0.49999000  0.50000000  0.79218000  1
  N  N2  1  0.49999000  0.50000000  0.20782000  1
  N  N3  1  0.50068000  0.95752000  0.20786000  1
  N  N4  1  0.50202000  0.95752000  0.79223000  1
  O  O1  1  0.49998000  0.57546000  0.39040000  1
  O  O2  1  0.50032000  0.42440000  0.39041000  1
  O  O3  1  0.63938000  0.49986000  0.39040000  1
  O  O4  1  0.36092000  0.49999000  0.39041000  1
  O  O5  1  0.36061000  0.50013000  0.60960000  1
  O  O6  1  0.63907000  0.50003000  0.60959000  1
  O  O7  1  0.50016000  0.42449000  0.60960000  1
  O  O8  1  0.49963000  0.57561000  0.60959000  1
  O  O9  1  0.49946000  0.88207000  0.60964000  1
  O  O10  1  0.49963000  0.03313000  0.60963000  1
  O  O11  1  0.63877000  0.95741000  0.61023000  1
  O  O12  1  0.36032000  0.95779000  0.60904000  1
  O  O13  1  0.36071000  0.95766000  0.38985000  1
  O  O14  1  0.63916000  0.95723000  0.39103000  1
  O  O15  1  0.50017000  0.03304000  0.39044000  1
  O  O16  1  0.49981000  0.88191000  0.39044000  1
  O  O17  1  0.36982000  0.57058000  0.83616000  1
  O  O18  1  0.63017000  0.42942000  0.16383000  1
  O  O19  1  0.85808000  0.49981000  0.28774000  1
  O  O20  1  0.14191000  0.50020000  0.71226000  1
  O  O21  1  0.49994000  0.30575000  0.71227000  1
  O  O22  1  0.50008000  0.15177000  0.28777000  1
  O  O23  1  0.37072000  0.88718000  0.16332000  1
  O  O24  1  0.63197000  0.02786000  0.83676000  1
  O  O25  1  0.85714000  0.95705000  0.71381000  1
  O  O26  1  0.14233000  0.95614000  0.29050000  1
