# Generated by REPEAT Assigner based on pymatgen
data_DB1-Zn2O8N2-irmof10_A-irmof6_A_No27
_audit_creation_date              2022-05-24
_audit_creation_method            REPEAT_Assigner
_cell_length_a                    11.005200
_cell_length_b                    26.150900
_cell_length_c                    14.262400
_cell_angle_alpha                 90.040800
_cell_angle_beta                  89.880700
_cell_angle_gamma                 89.777500
_cell_volume                      4104.619113
_symmetry_space_group_name_H-M    P1
_symmetry_Int_Tables_number       1
loop_
    _symmetry_equiv_pos_site_id
    _symmetry_equiv_pos_as_xyz
    1  x,y,z
loop_
    _atom_site_type_symbol
    _atom_site_label
    _atom_site_fract_x
    _atom_site_fract_y
    _atom_site_fract_z
    _atom_type_partial_charge
    O   O1   0.501130  0.426250  0.595200  -0.620935
    O   O2   0.500520  0.426260  0.404630  -0.587528
    C   C1   0.500760  0.400270  0.499930  0.460002
    Zn  Zn1  0.500000  0.500010  0.616230  0.948305
    O   O3   0.675200  0.500020  0.404540  -0.589445
    O   O4   0.675280  0.500090  0.595120  -0.508068
    C   C2   0.737010  0.500030  0.499860  0.550449
    O   O5   0.499100  0.573760  0.404800  -0.554749
    O   O6   0.499260  0.573750  0.595370  -0.615183
    C   C3   0.499140  0.599740  0.500070  0.502034
    Zn  Zn2  0.500010  0.500000  0.383770  0.968824
    O   O7   0.324810  0.499890  0.595460  -0.525740
    O   O8   0.324730  0.500010  0.404880  -0.600414
    C   C4   0.263000  0.499810  0.500140  0.585514
    O   O9   0.500150  0.994580  0.404860  -0.612478
    O   O10  0.499850  0.994580  0.595430  -0.598762
    C   C5   0.499860  0.020560  0.500130  0.457972
    Zn  Zn3  0.499200  0.920830  0.383840  0.938440
    O   O11  0.674750  0.920340  0.594790  -0.586130
    O   O12  0.674520  0.920270  0.404210  -0.514625
    C   C6   0.736400  0.920160  0.499210  0.563123
    O   O13  0.498860  0.847080  0.595270  -0.591490
    O   O14  0.498710  0.847090  0.404690  -0.572957
    C   C7   0.498820  0.821100  0.499990  0.504817
    Zn  Zn4  0.499590  0.920830  0.616290  0.978876
    O   O15  0.324040  0.921430  0.405340  -0.524700
    O   O16  0.324270  0.921310  0.595920  -0.590673
    C   C8   0.262390  0.921680  0.500920  0.577633
    N   N1   0.500000  0.500010  0.752960  -0.089839
    N   N2   0.500030  0.500000  0.247040  -0.032685
    C   C9   0.422520  0.532390  0.802570  0.063890
    C   C10  0.421800  0.532690  0.900900  -0.298091
    C   C11  0.577510  0.467620  0.197430  -0.018517
    C   C12  0.578220  0.467320  0.099100  -0.238557
    C   C13  0.422540  0.532380  0.197770  0.043851
    C   C14  0.421810  0.532690  0.099440  -0.282476
    C   C15  0.577490  0.467630  0.802230  0.101882
    C   C16  0.578220  0.467330  0.900560  -0.310050
    C   C17  0.500010  0.500010  0.950460  0.178526
    C   C18  0.500020  0.500010  0.049540  0.167268
    H   H1   0.368810  0.554830  0.769040  0.152136
    H   H2   0.367870  0.555230  0.934260  0.166708
    H   H3   0.631220  0.445180  0.230960  0.166877
    H   H4   0.632160  0.444790  0.065740  0.152792
    H   H5   0.368830  0.554830  0.231540  0.152693
    H   H6   0.367880  0.555220  0.066320  0.163318
    H   H7   0.631200  0.445180  0.768460  0.124117
    H   H8   0.632150  0.444790  0.933680  0.173698
    C   C19  0.498900  0.766250  0.500010  -0.076276
    C   C20  0.499060  0.654590  0.500050  -0.086235
    C   C21  0.499000  0.738320  0.574080  0.002296
    C   C22  0.498960  0.682520  0.425990  0.181604
    C   C23  0.499080  0.682590  0.574100  0.024893
    C   C24  0.498880  0.738250  0.425970  0.190930
    C   C25  0.499090  0.737190  0.679390  -0.073020
    C   C26  0.499170  0.683830  0.679410  -0.040028
    H   H9   0.578810  0.755940  0.710190  0.045497
    H   H10  0.419420  0.756420  0.709960  0.033394
    H   H11  0.419500  0.665100  0.710560  0.022849
    H   H12  0.578890  0.664630  0.709650  0.027171
    C   C27  0.500630  0.345150  0.499960  0.012087
    C   C28  0.500000  0.075690  0.500100  0.013662
    C   C29  0.500840  0.318230  0.584070  -0.043652
    C   C30  0.500710  0.264600  0.584880  -0.243425
    C   C31  0.499790  0.102610  0.415990  -0.048391
    C   C32  0.499910  0.156230  0.415180  -0.234415
    C   C33  0.500330  0.102700  0.584180  -0.056127
    C   C34  0.500460  0.156320  0.584940  -0.224980
    C   C35  0.500300  0.318140  0.415880  -0.059586
    C   C36  0.500170  0.264510  0.415120  -0.227844
    C   C37  0.500380  0.237430  0.500020  0.133804
    C   C38  0.500250  0.183400  0.500050  0.123264
    H   H13  0.501070  0.336610  0.642350  0.104364
    H   H14  0.500860  0.246510  0.643420  0.149887
    H   H15  0.499560  0.084220  0.357710  0.103919
    H   H16  0.499770  0.174330  0.356640  0.146813
    H   H17  0.500470  0.084380  0.642490  0.109847
    H   H18  0.500690  0.174490  0.643460  0.144526
    H   H19  0.500160  0.336460  0.357570  0.110152
    H   H20  0.499940  0.246350  0.356600  0.146346
    C   C39  0.132680  0.499860  0.500070  -0.211799
    C   C40  0.867330  0.499970  0.499930  -0.187398
    C   C41  0.066490  0.499860  0.425980  0.052037
    C   C42  0.933520  0.499970  0.574020  0.238775
    C   C43  0.934050  0.499920  0.425910  0.041825
    C   C44  0.065960  0.499920  0.574090  0.249440
    C   C45  0.064050  0.499830  0.320660  -0.047836
    C   C46  0.937250  0.499880  0.320600  -0.052285
    H   H21  0.108720  0.533350  0.289710  0.023490
    H   H22  0.109790  0.466270  0.290280  0.027588
    H   H23  0.892790  0.466330  0.289600  0.026733
    H   H24  0.891730  0.533410  0.290170  0.024418
    N   N3   0.498990  0.920830  0.247100  -0.144011
    N   N4   0.498210  0.920840  0.753030  0.016571
    C   C47  0.421520  0.888660  0.197820  0.154866
    C   C48  0.420640  0.888370  0.099490  -0.329019
    C   C49  0.575680  0.953000  0.802320  -0.028272
    C   C50  0.576550  0.953300  0.900640  -0.231665
    C   C51  0.420900  0.888670  0.802620  -0.068914
    C   C52  0.420330  0.888370  0.900960  -0.228743
    C   C53  0.576300  0.953000  0.197510  0.129368
    C   C54  0.576860  0.953300  0.099180  -0.323139
    C   C55  0.498680  0.920830  0.049600  0.177030
    C   C56  0.498520  0.920830  0.950530  0.169739
    H   H25  0.367920  0.866370  0.231570  0.118042
    H   H26  0.366720  0.865980  0.066350  0.166264
    H   H27  0.629270  0.975300  0.768560  0.166411
    H   H28  0.630470  0.975690  0.933780  0.149374
    H   H29  0.367190  0.866370  0.769080  0.192690
    H   H30  0.366510  0.865980  0.934300  0.150474
    H   H31  0.630000  0.975290  0.231050  0.119748
    H   H32  0.630680  0.975690  0.065830  0.177057
    C   C57  0.132070  0.919230  0.497350  -0.221094
    C   C58  0.866720  0.919850  0.498600  -0.190959
    C   C59  0.066000  0.919410  0.571720  0.047930
    C   C60  0.932790  0.919670  0.424230  0.222619
    C   C61  0.933560  0.919720  0.572340  0.055704
    C   C62  0.065230  0.919360  0.423610  0.267852
    C   C63  0.063730  0.919460  0.677040  -0.043267
    C   C64  0.936930  0.919750  0.677640  -0.082953
    H   H33  0.108540  0.885810  0.707810  0.028808
    H   H34  0.109430  0.952890  0.707240  0.029700
    H   H35  0.892430  0.953420  0.708830  0.033047
    H   H36  0.891550  0.886340  0.708250  0.039518
    H   H37  0.558540  0.624810  0.315210  0.291160
    H   H38  0.439210  0.673710  0.274040  0.233361
    N   N5   0.498900  0.658200  0.329930  -0.617351
    H   H39  0.439210  0.795850  0.315380  0.256795
    H   H40  0.558440  0.746890  0.273780  0.235632
    N   N6   0.498840  0.762470  0.329890  -0.596095
    H   H41  0.796150  0.525140  0.684630  0.296021
    H   H42  0.912220  0.474940  0.726080  0.250208
    N   N7   0.875510  0.500020  0.670060  -0.668359
    H   H43  0.202550  0.474860  0.684850  0.293698
    H   H44  0.086140  0.525090  0.726170  0.255185
    N   N8   0.123280  0.499960  0.670190  -0.673285
    H   H45  0.795310  0.894880  0.314200  0.285922
    H   H46  0.911170  0.944760  0.272260  0.250454
    N   N9   0.874620  0.919780  0.328440  -0.653762
    H   H47  0.201570  0.944040  0.312280  0.285181
    H   H48  0.085240  0.894130  0.271450  0.246919
    N   N10  0.122390  0.919160  0.327270  -0.670425
