# generated using pymatgen
data_CuH18C18N7O4
_symmetry_space_group_name_H-M   'P 1'
_cell_length_a   15.60630000
_cell_length_b   17.27650000
_cell_length_c   10.70030000
_cell_angle_alpha   89.92240000
_cell_angle_beta   87.46100000
_cell_angle_gamma   95.77320000
_symmetry_Int_Tables_number   1
_chemical_formula_structural   CuH18C18N7O4
_chemical_formula_sum   'Cu2 H36 C36 N14 O8'
_cell_volume   2867.53870224
_cell_formula_units_Z   2
loop_
 _symmetry_equiv_pos_site_id
 _symmetry_equiv_pos_as_xyz
  1  'x, y, z'
loop_
 _atom_site_type_symbol
 _atom_site_label
 _atom_site_symmetry_multiplicity
 _atom_site_fract_x
 _atom_site_fract_y
 _atom_site_fract_z
 _atom_site_occupancy
  Cu  Cu1  1  0.41809000  0.49671000  0.50530000  1
  Cu  Cu2  1  0.58191000  0.50328000  0.49471000  1
  H  H1  1  0.28945000  0.58004000  0.37096000  1
  H  H2  1  0.13079000  0.57329000  0.38185000  1
  H  H3  1  0.88030000  0.60342000  0.33327000  1
  H  H4  1  0.86921000  0.42670000  0.61816000  1
  H  H5  1  0.62355000  0.26178000  0.49242000  1
  H  H6  1  0.61394000  0.11850000  0.49296000  1
  H  H7  1  0.66264000  0.89256000  0.48986000  1
  H  H8  1  0.38606000  0.88149000  0.50706000  1
  H  H9  1  0.34574000  0.35732000  0.64335000  1
  H  H10  1  0.26839000  0.37987000  0.78033000  1
  H  H11  1  0.04941000  0.39994000  0.74797000  1
  H  H12  1  0.12273000  0.32050000  0.70272000  1
  H  H13  1  0.65089000  0.58877000  0.27023000  1
  H  H14  1  0.73498000  0.67401000  0.30612000  1
  H  H15  1  0.64062000  0.42288000  0.71099000  1
  H  H16  1  0.71446000  0.34400000  0.66483000  1
  H  H17  1  0.31664000  0.31287000  0.57284000  1
  H  H18  1  0.26821000  0.23994000  0.45319000  1
  H  H19  1  0.30097000  0.04238000  0.45109000  1
  H  H20  1  0.26035000  0.11134000  0.57627000  1
  H  H21  1  0.68320000  0.68698000  0.54982000  1
  H  H22  1  0.73194000  0.76018000  0.42418000  1
  H  H23  1  0.33936000  0.67348000  0.44857000  1
  H  H24  1  0.29963000  0.74290000  0.57370000  1
  H  H25  1  0.69310000  0.46188000  0.87164000  1
  H  H26  1  0.65244000  0.50592000  0.76440000  1
  H  H27  1  0.69912000  0.55301000  0.87128000  1
  H  H28  1  0.30099000  0.44687000  0.12901000  1
  H  H29  1  0.34758000  0.49430000  0.23561000  1
  H  H30  1  0.30678000  0.53798000  0.12810000  1
  H  H31  1  0.69902000  0.55317000  0.10299000  1
  H  H32  1  0.65244000  0.50578000  0.21587000  1
  H  H33  1  0.69323000  0.46205000  0.10333000  1
  H  H34  1  0.30689000  0.53806000  0.89640000  1
  H  H35  1  0.34755000  0.49397000  0.78414000  1
  H  H36  1  0.30088000  0.44693000  0.89732000  1
  C  C1  1  0.49999000  0.49994000  0.73439000  1
  C  C2  1  0.50001000  0.50005000  0.26562000  1
  C  C3  1  0.50914000  0.64576000  0.49932000  1
  C  C4  1  0.49086000  0.35423000  0.50070000  1
  C  C5  1  0.25306000  0.53979000  0.43585000  1
  C  C6  1  0.16283000  0.53604000  0.44189000  1
  C  C7  1  0.11406000  0.48434000  0.52525000  1
  C  C8  1  0.15670000  0.43658000  0.60225000  1
  C  C9  1  0.24689000  0.44013000  0.59652000  1
  C  C10  1  0.84329000  0.56341000  0.39777000  1
  C  C11  1  0.88594000  0.51566000  0.47476000  1
  C  C12  1  0.83717000  0.46395000  0.55812000  1
  C  C13  1  0.74694000  0.46020000  0.56416000  1
  C  C14  1  0.75311000  0.55986000  0.40350000  1
  C  C15  1  0.48542000  0.26748000  0.50101000  1
  C  C16  1  0.56076000  0.22869000  0.49631000  1
  C  C17  1  0.55544000  0.14721000  0.49661000  1
  C  C18  1  0.47479000  0.10287000  0.50161000  1
  C  C19  1  0.39976000  0.14108000  0.50629000  1
  C  C20  1  0.40478000  0.22251000  0.50601000  1
  C  C21  1  0.60024000  0.85891000  0.49373000  1
  C  C22  1  0.52521000  0.89712000  0.49841000  1
  C  C23  1  0.44456000  0.85278000  0.50341000  1
  C  C24  1  0.43924000  0.77130000  0.50371000  1
  C  C25  1  0.51458000  0.73251000  0.49901000  1
  C  C26  1  0.59522000  0.77748000  0.49401000  1
  C  C27  1  0.50000000  0.49997000  0.86911000  1
  C  C28  1  0.50001000  0.50002000  0.13091000  1
  C  C29  1  0.57719000  0.50295000  0.93001000  1
  C  C30  1  0.42281000  0.49704000  0.07000000  1
  C  C31  1  0.57719000  0.50297000  0.06001000  1
  C  C32  1  0.42281000  0.49701000  0.94001000  1
  C  C33  1  0.66372000  0.50626000  0.85188000  1
  C  C34  1  0.33629000  0.49373000  0.14814000  1
  C  C35  1  0.66373000  0.50631000  0.12694000  1
  C  C36  1  0.33627000  0.49367000  0.87308000  1
  N  N1  1  0.29635000  0.49183000  0.51317000  1
  N  N2  1  0.02155000  0.47916000  0.53360000  1
  N  N3  1  0.97845000  0.52083000  0.46642000  1
  N  N4  1  0.70365000  0.50816000  0.48685000  1
  N  N5  1  0.46725000  0.01932000  0.50205000  1
  N  N6  1  0.53275000  0.98067000  0.49797000  1
  N  N7  1  0.29089000  0.38782000  0.68085000  1
  N  N8  1  0.10506000  0.38074000  0.69226000  1
  N  N9  1  0.70911000  0.61217000  0.31917000  1
  N  N10  1  0.69619000  0.40407000  0.65465000  1
  N  N11  1  0.32263000  0.26192000  0.51113000  1
  N  N12  1  0.31267000  0.09412000  0.51170000  1
  N  N13  1  0.67738000  0.73807000  0.48889000  1
  N  N14  1  0.35168000  0.72515000  0.50914000  1
  O  O1  1  0.42361000  0.49699000  0.66744000  1
  O  O2  1  0.42363000  0.49710000  0.34212000  1
  O  O3  1  0.42996000  0.59821000  0.50423000  1
  O  O4  1  0.41728000  0.39589000  0.50533000  1
  O  O5  1  0.57004000  0.40178000  0.49574000  1
  O  O6  1  0.58272000  0.60410000  0.49473000  1
  O  O7  1  0.57639000  0.50311000  0.33244000  1
  O  O8  1  0.57637000  0.50286000  0.65790000  1
