# Generated by REPEAT Assigner based on pymatgen
data_DB1-Cu2O8N2-irmof20_A-imd_No7
_audit_creation_date              2022-05-24
_audit_creation_method            REPEAT_Assigner
_cell_length_a                    21.657400
_cell_length_b                    16.539500
_cell_length_c                    16.539100
_cell_angle_alpha                 64.563300
_cell_angle_beta                  130.900000
_cell_angle_gamma                 130.901000
_cell_volume                      3384.611112
_symmetry_space_group_name_H-M    P1
_symmetry_Int_Tables_number       1
loop_
    _symmetry_equiv_pos_site_id
    _symmetry_equiv_pos_as_xyz
    1  x,y,z
loop_
    _atom_site_type_symbol
    _atom_site_label
    _atom_site_fract_x
    _atom_site_fract_y
    _atom_site_fract_z
    _atom_type_partial_charge
    Cu  Cu1   0.441240  0.499990  0.500010  0.819304
    Cu  Cu2   0.558760  0.499990  0.500010  0.824283
    O   O1    0.375620  0.360910  0.499940  -0.449535
    O   O2    0.514770  0.639360  0.499760  -0.483177
    O   O3    0.375640  0.500260  0.360620  -0.491163
    O   O4    0.514750  0.500010  0.639080  -0.442712
    O   O5    0.624380  0.499770  0.639390  -0.450094
    O   O6    0.485230  0.499940  0.360930  -0.485269
    O   O7    0.624360  0.639200  0.499930  -0.492113
    O   O8    0.485250  0.360620  0.500290  -0.442241
    C   C1    0.399730  0.299370  0.500090  0.483765
    C   C2    0.600270  0.700610  0.499920  0.550172
    C   C3    0.399730  0.500080  0.299380  0.550475
    C   C4    0.600270  0.499900  0.700630  0.484015
    Cu  Cu3   0.058760  0.499990  0.500010  0.820076
    Cu  Cu4   0.941240  0.499990  0.500010  0.824404
    O   O9    0.985220  0.499930  0.360920  -0.443332
    O   O10   0.124360  0.499740  0.639380  -0.490986
    O   O11   0.985230  0.360610  0.500260  -0.482112
    O   O12   0.124350  0.639060  0.500030  -0.449676
    O   O13   0.014790  0.639380  0.499790  -0.443205
    O   O14   0.875630  0.360920  0.499940  -0.492466
    O   O15   0.014760  0.499910  0.639210  -0.484010
    O   O16   0.875660  0.500280  0.360630  -0.450020
    C   C5    0.899730  0.500090  0.299380  0.485029
    C   C6    0.100260  0.499900  0.700630  0.549478
    C   C7    0.899720  0.299370  0.500080  0.547043
    C   C8    0.100280  0.700620  0.499930  0.484013
    C   C9    0.686130  0.560030  0.439970  0.215651
    S   S1    0.683270  0.413340  0.586650  0.189900
    C   C10   0.813870  0.439950  0.560040  0.214966
    S   S2    0.816730  0.586640  0.413360  0.190310
    N   N1    0.646090  0.499990  0.500010  -0.188192
    N   N2    0.853910  0.499990  0.500010  -0.188216
    C   C11   0.750000  0.461310  0.538690  -0.075441
    C   C12   0.750000  0.538680  0.461320  -0.076273
    C   C13   0.313880  0.560030  0.439970  0.214414
    S   S3    0.316730  0.413340  0.586650  0.189126
    C   C14   0.186120  0.439950  0.560040  0.213703
    S   S4    0.183270  0.586640  0.413360  0.189297
    N   N3    0.353910  0.499990  0.500010  -0.186454
    N   N4    0.146090  0.499990  0.500010  -0.186560
    C   C15   0.250000  0.461310  0.538690  -0.075185
    C   C16   0.250000  0.538680  0.461320  -0.075447
    C   C17   0.354250  0.499880  0.110660  0.078989
    S   S5    0.237240  0.500230  0.115610  0.049984
    C   C18   0.145750  0.500100  0.889350  0.078648
    S   S6    0.262760  0.499750  0.884410  0.049539
    C   C19   0.340030  0.500040  0.180020  -0.142340
    C   C20   0.159960  0.499930  0.819990  -0.141441
    C   C21   0.218480  0.500080  0.000000  0.016297
    C   C22   0.281510  0.499890  0.000010  0.016388
    C   C23   0.645740  0.500060  0.889360  0.073889
    S   S7    0.762790  0.499790  0.884400  0.050161
    C   C24   0.854270  0.499890  0.110660  0.074644
    S   S8    0.737220  0.500160  0.115620  0.049943
    C   C25   0.659970  0.499930  0.819990  -0.145987
    C   C26   0.840040  0.500020  0.180020  -0.146873
    C   C27   0.781530  0.499900  0.000000  0.026859
    C   C28   0.718480  0.500040  0.000010  0.027623
    C   C29   0.354400  0.110660  0.500200  0.075762
    S   S9    0.237020  0.115590  0.499820  0.049960
    C   C30   0.145600  0.889330  0.499820  0.075747
    S   S10   0.262990  0.884400  0.500200  0.050020
    C   C31   0.340030  0.180010  0.500060  -0.146670
    C   C32   0.159970  0.819980  0.499960  -0.146743
    C   C33   0.218390  0.999990  0.499910  0.026599
    C   C34   0.281610  -0.000000  0.500110  0.026392
    C   C35   0.645750  0.889340  0.500070  0.079374
    S   S11   0.763010  0.884380  0.500250  0.049603
    C   C36   0.854570  0.110650  0.500490  0.076538
    S   S12   0.737300  0.115600  0.500310  0.049057
    C   C37   0.660030  0.819980  0.500060  -0.142483
    C   C38   0.840280  0.180010  0.500500  -0.138397
    C   C39   0.781740  0.999990  0.500330  0.017333
    C   C40   0.718580  0.999990  0.500230  0.015859
    Cl  Cl1   0.661670  0.655030  0.344970  0.001419
    Cl  Cl2   0.838330  0.344950  0.655040  0.001780
    Cl  Cl3   0.338350  0.655040  0.344970  0.001683
    Cl  Cl4   0.161650  0.344950  0.655040  0.002149
    Cl  Cl5   0.452830  0.499660  0.153060  -0.064260
    Cl  Cl6   0.047160  0.500310  0.846960  -0.064505
    Cl  Cl7   0.547130  0.500220  0.846970  -0.074717
    Cl  Cl8   0.952870  0.499730  0.153040  -0.074782
    Cl  Cl9   0.453230  0.153060  0.500460  -0.075248
    Cl  Cl10  0.046780  0.846930  0.499560  -0.075143
    Cl  Cl11  0.546970  0.846950  0.499910  -0.064297
    Cl  Cl12  0.953340  0.153030  0.500650  -0.063897
