# Generated by REPEAT Assigner based on pymatgen
data_DB1-MIL53Cr-ADC_B-AZO_B_No368
_audit_creation_date              2022-05-24
_audit_creation_method            REPEAT_Assigner
_cell_length_a                    35.345600
_cell_length_b                    24.066500
_cell_length_c                    6.812000
_cell_angle_alpha                 90.000000
_cell_angle_beta                  93.168900
_cell_angle_gamma                 47.082200
_cell_volume                      4231.455337
_symmetry_space_group_name_H-M    P1
_symmetry_Int_Tables_number       1
loop_
    _symmetry_equiv_pos_site_id
    _symmetry_equiv_pos_as_xyz
    1  x,y,z
loop_
    _atom_site_type_symbol
    _atom_site_label
    _atom_site_fract_x
    _atom_site_fract_y
    _atom_site_fract_z
    _atom_type_partial_charge
    O   O1   0.450330  0.605480  0.079710  -0.680627
    O   O2   0.549660  0.506110  0.108190  -0.738418
    Cr  Cr1  0.500010  0.499990  0.000000  1.670520
    H   H1   0.499960  0.425940  0.249990  0.348737
    O   O3   0.549660  0.506110  0.420290  -0.698531
    O   O4   0.549650  0.394570  0.608190  -0.667374
    O   O5   0.450340  0.493880  0.891800  -0.676505
    O   O6   0.450340  0.493880  0.579710  -0.607914
    O   O7   0.549650  0.394570  0.920290  -0.597800
    O   O8   0.450330  0.605480  0.391800  -0.723642
    Cr  Cr2  0.500010  0.499990  0.500000  1.675960
    O   O9   0.500010  0.465330  0.250000  -0.800058
    O   O10  0.500010  0.534680  0.750000  -0.935492
    C   C1   0.574220  0.505350  0.271280  0.971825
    C   C2   0.425780  0.653830  0.228710  0.951218
    C   C3   0.574200  0.346220  0.771280  0.795767
    C   C4   0.425790  0.494620  0.728720  0.811780
    H   H2   0.500010  0.574110  0.750000  0.453364
    O   O11  0.049760  0.394310  0.108220  -0.670404
    O   O12  0.950430  0.493680  0.079730  -0.609141
    Cr  Cr3  0.000080  0.499810  0.000020  1.681763
    H   H3   0.000130  0.573850  0.250040  0.453050
    O   O13  0.950430  0.493680  0.391830  -0.677406
    O   O14  0.950450  0.605220  0.579740  -0.681390
    O   O15  0.049760  0.505910  0.920320  -0.699718
    O   O16  0.049760  0.505910  0.608220  -0.738705
    O   O17  0.950450  0.605220  0.891840  -0.725001
    O   O18  0.049760  0.394310  0.420320  -0.600158
    Cr  Cr4  0.000090  0.499800  0.500020  1.673856
    O   O19  0.000090  0.534460  0.250020  -0.936884
    O   O20  0.000080  0.465110  0.750020  -0.801702
    C   C5   0.925870  0.494440  0.228740  0.812329
    C   C6   0.074310  0.345960  0.271310  0.798493
    C   C7   0.925900  0.653570  0.728750  0.950878
    C   C8   0.074300  0.505170  0.771310  0.974222
    H   H4   0.000080  0.425680  0.750020  0.349239
    C   C9   0.882970  0.495770  0.216430  -0.427768
    C   C10  0.862230  0.496410  0.388320  -0.112447
    C   C11  0.821940  0.497660  0.376290  -0.176707
    C   C12  0.801560  0.498300  0.192390  0.501690
    C   C13  0.821990  0.497660  0.021220  -0.525413
    C   C14  0.862270  0.496410  0.032570  0.659347
    N   N1   0.760280  0.499580  0.175300  -0.255445
    N   N2   0.739810  0.500210  0.324730  -0.246587
    C   C15  0.678100  0.502130  0.478810  -0.561277
    C   C16  0.698540  0.501490  0.307640  0.500995
    C   C17  0.678150  0.502130  0.123740  -0.187566
    C   C18  0.637860  0.503380  0.111700  -0.040982
    C   C19  0.617120  0.504020  0.283600  -0.589629
    C   C20  0.637820  0.503380  0.467460  0.798330
    H   H5   0.877400  0.495940  0.531500  0.186811
    H   H6   0.806550  0.498140  0.509750  0.074702
    H   H7   0.806550  0.498140  0.878920  0.164443
    H   H8   0.693540  0.501650  0.621100  0.173579
    H   H9   0.693550  0.501650  0.990280  0.076865
    H   H10  0.622690  0.503850  0.968530  0.161462
    C   C21  0.117190  0.503880  0.783620  -0.594964
    C   C22  0.137910  0.503260  0.611720  -0.035952
    C   C23  0.178190  0.502050  0.623750  -0.190548
    C   C24  0.198560  0.501440  0.807640  0.502904
    C   C25  0.178130  0.502050  0.978820  -0.562763
    C   C26  0.137870  0.503260  0.967470  0.800883
    N   N3   0.239820  0.500200  0.824730  -0.247075
    N   N4   0.260270  0.499590  0.675300  -0.255071
    C   C27  0.321960  0.497740  0.521210  -0.525450
    C   C28  0.301530  0.498350  0.692380  0.501510
    C   C29  0.321910  0.497740  0.876280  -0.177071
    C   C30  0.362180  0.496530  0.888310  -0.110852
    C   C31  0.382900  0.495910  0.716410  -0.429529
    C   C32  0.362220  0.496530  0.532550  0.660630
    H   H11  0.122750  0.503720  0.468540  0.159768
    H   H12  0.193570  0.501590  0.490280  0.077325
    H   H13  0.193570  0.501590  0.121110  0.173664
    H   H14  0.306520  0.498200  0.378920  0.164151
    H   H15  0.306520  0.498200  0.009740  0.074850
    H   H16  0.377340  0.496070  0.031480  0.186276
    C   C33  0.882840  0.738230  0.716390  -0.562492
    C   C34  0.862120  0.779050  0.888290  -0.044136
    C   C35  0.821830  0.858400  0.876260  -0.186161
    C   C36  0.801460  0.898540  0.692360  0.495882
    C   C37  0.821890  0.858300  0.521190  -0.547702
    C   C38  0.862150  0.778980  0.532540  0.773053
    N   N5   0.760190  0.979830  0.675270  -0.246392
    N   N6   0.739730  0.020130  0.824700  -0.246988
    C   C39  0.678040  0.141660  0.978790  -0.505175
    C   C40  0.698470  0.101410  0.807620  0.480172
    C   C41  0.678090  0.141550  0.623720  -0.160623
    C   C42  0.637810  0.220900  0.611690  -0.118276
    C   C43  0.617090  0.261730  0.783590  -0.420669
    C   C44  0.637780  0.220970  0.967440  0.653822
    H   H17  0.877270  0.749190  0.031460  0.151847
    H   H18  0.806440  0.888720  0.009720  0.074254
    H   H19  0.806450  0.888710  0.378890  0.171063
    H   H20  0.693480  0.111240  0.121080  0.160719
    H   H21  0.693480  0.111240  0.490260  0.070397
    H   H22  0.622650  0.250760  0.468520  0.188719
    C   C45  0.117120  0.261820  0.283600  -0.418842
    C   C46  0.137850  0.220990  0.111700  -0.119398
    C   C47  0.178130  0.141650  0.123730  -0.160427
    C   C48  0.198510  0.101500  0.307630  0.479488
    C   C49  0.178080  0.141750  0.478800  -0.503455
    C   C50  0.137810  0.221070  0.467450  0.650832
    N   N7   0.239770  0.020220  0.324720  -0.246854
    N   N8   0.260230  0.979920  0.175290  -0.246179
    C   C51  0.321930  0.858390  0.021200  -0.549180
    C   C52  0.301500  0.898640  0.192370  0.495613
    C   C53  0.321880  0.858500  0.376270  -0.185101
    C   C54  0.362160  0.779150  0.388300  -0.043832
    C   C55  0.382890  0.738320  0.216400  -0.564453
    C   C56  0.362200  0.779080  0.032550  0.774932
    H   H23  0.122690  0.250850  0.968530  0.188800
    H   H24  0.193520  0.111330  0.990270  0.070478
    H   H25  0.193520  0.111340  0.621090  0.159980
    H   H26  0.306490  0.888810  0.878910  0.171704
    H   H27  0.306490  0.888810  0.509730  0.073705
    H   H28  0.377320  0.749290  0.531470  0.151524
    H   H29  0.891820  0.532240  0.826720  0.291125
    H   H30  0.890640  0.458790  0.725760  0.329032
    N   N9   0.883450  0.495760  0.845130  -0.823967
    H   H31  0.574190  0.542090  0.663530  0.359834
    H   H32  0.643540  0.466460  0.784040  0.362029
    N   N10  0.616650  0.504030  0.654890  -0.975071
    H   H33  0.074260  0.541930  0.163550  0.359936
    H   H34  0.143610  0.466330  0.284060  0.362223
    N   N11  0.116710  0.503900  0.154910  -0.975219
    H   H35  0.391730  0.532400  0.326700  0.291211
    H   H36  0.390590  0.458920  0.225750  0.328905
    N   N12  0.383380  0.495890  0.345120  -0.824225
    H   H37  0.925770  0.690410  0.336460  0.354571
    H   H38  0.856420  0.753510  0.215950  0.369704
    N   N13  0.883320  0.737280  0.345100  -0.968300
    H   H39  0.608250  0.315880  0.173300  0.306024
    H   H40  0.609410  0.240110  0.274250  0.325005
    N   N14  0.616610  0.262670  0.154880  -0.837523
    H   H41  0.108280  0.315980  0.673310  0.305489
    H   H42  0.109440  0.240200  0.774260  0.324692
    N   N15  0.116640  0.262760  0.654890  -0.835037
    H   H43  0.425820  0.690510  0.836470  0.354584
    H   H44  0.356470  0.753600  0.715960  0.369754
    N   N16  0.383360  0.737380  0.845110  -0.968645
