data_DB1-Zn2O8-irmof20_A-mofHTB_No13_repeat
_audit_creation_date              2024-02-20
_audit_creation_method            'Materials Studio'
_symmetry_space_group_name_H-M    'P1'
_symmetry_Int_Tables_number       1
_symmetry_cell_setting            triclinic
loop_
_symmetry_equiv_pos_as_xyz
  x,y,z
_cell_length_a                    25.4033
_cell_length_b                    17.9514
_cell_length_c                    10.0000
_cell_angle_alpha                 90.0000
_cell_angle_beta                  90.0000
_cell_angle_gamma                 45.1441
loop_
_atom_site_label
_atom_site_type_symbol
_atom_site_fract_x
_atom_site_fract_y
_atom_site_fract_z
_atom_site_U_iso_or_equiv
_atom_site_adp_type
_atom_site_occupancy
O1     O     0.42466   0.65164   0.63576   0.00000  Uiso   1.00
O2     O     0.42426   0.65144   0.36395   0.00000  Uiso   1.00
C1     C     0.39769   0.70494   0.49987   0.00000  Uiso   1.00
Zn1    Zn    0.50010   0.50009   0.66577   0.00000  Uiso   1.00
O3     O     0.57578   0.50001   0.36383   0.00000  Uiso   1.00
O4     O     0.57603   0.50004   0.63565   0.00000  Uiso   1.00
C2     C     0.60261   0.50013   0.49978   0.00000  Uiso   1.00
O5     O     0.57546   0.34833   0.36424   0.00000  Uiso   1.00
O6     O     0.57566   0.34852   0.63605   0.00000  Uiso   1.00
C3     C     0.60228   0.29503   0.50014   0.00000  Uiso   1.00
Zn2    Zn    0.49992   0.49988   0.33423   0.00000  Uiso   1.00
O7     O     0.42413   0.50017   0.63617   0.00000  Uiso   1.00
O8     O     0.42408   0.49974   0.36435   0.00000  Uiso   1.00
C4     C     0.39723   0.50020   0.50022   0.00000  Uiso   1.00
O9     O     0.92297   0.65350   0.36420   0.00000  Uiso   1.00
O10    O     0.92353   0.65337   0.63600   0.00000  Uiso   1.00
C5     C     0.89669   0.70683   0.50007   0.00000  Uiso   1.00
Zn3    Zn    0.99889   0.50194   0.33424   0.00000  Uiso   1.00
O11    O     0.92354   0.50136   0.63618   0.00000  Uiso   1.00
O12    O     0.92329   0.50133   0.36436   0.00000  Uiso   1.00
C6     C     0.89671   0.50124   0.50023   0.00000  Uiso   1.00
O13    O     0.07507   0.35026   0.63583   0.00000  Uiso   1.00
O14    O     0.07470   0.35039   0.36402   0.00000  Uiso   1.00
C7     C     0.10149   0.29692   0.49995   0.00000  Uiso   1.00
Zn4    Zn    0.99924   0.50181   0.66578   0.00000  Uiso   1.00
O15    O     0.07449   0.50261   0.36384   0.00000  Uiso   1.00
O16    O     0.07493   0.50224   0.63566   0.00000  Uiso   1.00
C8     C     0.10125   0.50287   0.49979   0.00000  Uiso   1.00
C9     C     0.69534   0.50047   0.39385   0.00000  Uiso   1.00
S1     S     0.69283   0.50049   0.65300   0.00000  Uiso   1.00
C10    C     0.80398   0.50090   0.60616   0.00000  Uiso   1.00
S2     S     0.80649   0.50088   0.34701   0.00000  Uiso   1.00
C11    C     0.66124   0.50035   0.49987   0.00000  Uiso   1.00
C12    C     0.83808   0.50102   0.50014   0.00000  Uiso   1.00
C13    C     0.74964   0.50069   0.56835   0.00000  Uiso   1.00
C14    C     0.74968   0.50068   0.43166   0.00000  Uiso   1.00
C15    C     0.30404   0.50087   0.39402   0.00000  Uiso   1.00
S3     S     0.30623   0.50126   0.65317   0.00000  Uiso   1.00
C16    C     0.19443   0.50219   0.60600   0.00000  Uiso   1.00
S4     S     0.19224   0.50181   0.34684   0.00000  Uiso   1.00
C17    C     0.33822   0.50073   0.50013   0.00000  Uiso   1.00
C18    C     0.16025   0.50234   0.49988   0.00000  Uiso   1.00
C19    C     0.24917   0.50164   0.56835   0.00000  Uiso   1.00
C20    C     0.24930   0.50143   0.43166   0.00000  Uiso   1.00
C21    C     0.69496   0.10964   0.39404   0.00000  Uiso   1.00
S5     S     0.69282   0.11449   0.65319   0.00000  Uiso   1.00
C22    C     0.80401   0.89222   0.60616   0.00000  Uiso   1.00
S6     S     0.80615   0.88737   0.34701   0.00000  Uiso   1.00
C23    C     0.66097   0.17777   0.50012   0.00000  Uiso   1.00
C24    C     0.83800   0.82409   0.50008   0.00000  Uiso   1.00
C25    C     0.74956   0.00093   0.56845   0.00000  Uiso   1.00
C26    C     0.74941   0.00094   0.43176   0.00000  Uiso   1.00
C27    C     0.30495   0.89032   0.60598   0.00000  Uiso   1.00
S7     S     0.30690   0.88549   0.34683   0.00000  Uiso   1.00
C28    C     0.19556   0.10775   0.39389   0.00000  Uiso   1.00
S8     S     0.19361   0.11258   0.65304   0.00000  Uiso   1.00
C29    C     0.33891   0.82220   0.49990   0.00000  Uiso   1.00
C30    C     0.16160   0.17587   0.49998   0.00000  Uiso   1.00
C31    C     0.25012   0.99904   0.43159   0.00000  Uiso   1.00
C32    C     0.25038   0.99902   0.56828   0.00000  Uiso   1.00
O17    O     0.68002   0.50040   0.27005   0.00000  Uiso   1.00
Li1    Li    0.71314   0.50050   0.12115   0.00000  Uiso   1.00
O18    O     0.81930   0.50098   0.72996   0.00000  Uiso   1.00
Li2    Li    0.78617   0.50087   0.87886   0.00000  Uiso   1.00
O19    O     0.31962   0.50054   0.27026   0.00000  Uiso   1.00
Li3    Li    0.28648   0.50061   0.12126   0.00000  Uiso   1.00
O20    O     0.17885   0.50253   0.72975   0.00000  Uiso   1.00
Li4    Li    0.21200   0.50246   0.87875   0.00000  Uiso   1.00
O21    O     0.67944   0.14036   0.27027   0.00000  Uiso   1.00
Li5    Li    0.71239   0.07421   0.12131   0.00000  Uiso   1.00
O22    O     0.81952   0.86150   0.72993   0.00000  Uiso   1.00
Li6    Li    0.78658   0.92765   0.87889   0.00000  Uiso   1.00
O23    O     0.32058   0.85959   0.72975   0.00000  Uiso   1.00
Li7    Li    0.28769   0.92574   0.87871   0.00000  Uiso   1.00
O24    O     0.17993   0.13848   0.27012   0.00000  Uiso   1.00
Li8    Li    0.21282   0.07233   0.12116   0.00000  Uiso   1.00
