# Generated by REPEAT Assigner based on pymatgen
data_DB1-Zn2O8N2-BDC_A-irmof7_A_No623
_audit_creation_date              2022-05-24
_audit_creation_method            REPEAT_Assigner
_cell_length_a                    21.644600
_cell_length_b                    10.900600
_cell_length_c                    10.017000
_cell_angle_alpha                 90.035800
_cell_angle_beta                  89.882600
_cell_angle_gamma                 89.848800
_cell_volume                      2363.388573
_symmetry_space_group_name_H-M    P1
_symmetry_Int_Tables_number       1
loop_
    _symmetry_equiv_pos_site_id
    _symmetry_equiv_pos_as_xyz
    1  x,y,z
loop_
    _atom_site_type_symbol
    _atom_site_label
    _atom_site_fract_x
    _atom_site_fract_y
    _atom_site_fract_z
    _atom_type_partial_charge
    O   O1   0.500400  0.323080  0.635570  -0.554951
    O   O2   0.500090  0.323100  0.364220  -0.556660
    C   C1   0.500150  0.260750  0.499920  0.562397
    Zn  Zn1  0.500000  0.500020  0.665480  1.007368
    O   O3   0.589080  0.499920  0.364080  -0.553265
    O   O4   0.589120  0.500090  0.635440  -0.571590
    C   C2   0.620510  0.499900  0.499810  0.460259
    O   O5   0.499720  0.676960  0.364430  -0.576422
    O   O6   0.499800  0.676940  0.635780  -0.589802
    C   C3   0.499800  0.739280  0.500080  0.567772
    Zn  Zn2  0.500000  0.500010  0.334510  0.936934
    O   O7   0.410920  0.499870  0.635920  -0.641155
    O   O8   0.410880  0.500160  0.364560  -0.585559
    C   C4   0.379500  0.499720  0.500190  0.575193
    O   O9   0.996140  0.321250  0.364460  -0.589527
    O   O10  0.996460  0.321600  0.635800  -0.549108
    C   C5   0.996450  0.259090  0.500110  0.578470
    Zn  Zn3  0.996380  0.498150  0.334520  0.984419
    O   O11  0.907290  0.499020  0.635920  -0.606333
    O   O12  0.907250  0.498850  0.364560  -0.585387
    C   C6   0.875870  0.499040  0.500190  0.499956
    O   O13  0.996490  0.675460  0.635550  -0.513652
    O   O14  0.996410  0.675100  0.364200  -0.569647
    C   C7   0.996350  0.737620  0.499890  0.497983
    Zn  Zn4  0.996370  0.498560  0.665490  0.974379
    O   O15  0.085460  0.497430  0.364090  -0.643172
    O   O16  0.085500  0.498060  0.635440  -0.592292
    C   C8   0.116880  0.497240  0.499810  0.569304
    N   N1   0.500000  0.500020  0.860170  -0.241172
    N   N2   0.500010  0.500010  0.139830  0.078647
    C   C9   0.460680  0.577750  0.930800  0.333791
    C   C10  0.539330  0.422280  0.069200  -0.156085
    C   C11  0.460690  0.577750  0.069660  -0.073853
    C   C12  0.539330  0.422280  0.930330  0.210502
    H   H1   0.433430  0.631640  0.117740  0.188357
    H   H2   0.566580  0.368400  0.882260  0.114746
    C   C13  0.499890  0.871520  0.500040  -0.152257
    C   C14  0.500060  0.128510  0.499960  -0.244158
    C   C15  0.499900  0.936110  0.380290  0.258158
    C   C16  0.500050  0.063920  0.619720  0.331956
    C   C17  0.499980  0.063720  0.380250  -0.016493
    C   C18  0.499970  0.936310  0.619760  -0.162791
    H   H3   0.499990  0.107680  0.297230  0.127112
    H   H4   0.499960  0.892360  0.702770  0.178791
    C   C19  0.808450  0.499270  0.500090  0.015474
    C   C20  0.776680  0.578840  0.586460  0.038513
    C   C21  0.776970  0.419900  0.413630  -0.010113
    C   C22  0.809950  0.656360  0.670920  -0.094707
    C   C23  0.780080  0.736850  0.758290  -0.056591
    H   H5   0.852850  0.654120  0.668710  0.158521
    C   C24  0.687930  0.499670  0.499910  -0.082758
    C   C25  0.719700  0.420100  0.413540  0.070061
    C   C26  0.719400  0.579040  0.586370  0.202688
    C   C27  0.685850  0.656770  0.670730  -0.173938
    C   C28  0.715410  0.737070  0.758200  -0.000584
    H   H6   0.642950  0.654820  0.668390  0.179552
    C   C29  0.312900  0.499090  0.500100  -0.157369
    C   C30  0.183480  0.497870  0.499910  -0.143707
    C   C31  0.280170  0.498650  0.619780  0.352701
    C   C32  0.216210  0.498310  0.380220  0.342885
    C   C33  0.215910  0.498050  0.619690  -0.194987
    C   C34  0.280470  0.498910  0.380310  -0.187004
    H   H7   0.193630  0.497750  0.702660  0.201062
    H   H8   0.302750  0.499210  0.297340  0.197460
    N   N3   0.996370  0.497900  0.139830  -0.050636
    N   N4   0.996370  0.497540  0.860170  -0.134387
    C   C35  0.035620  0.575280  0.069190  0.276796
    C   C36  0.957120  0.420160  0.930810  0.336910
    C   C37  0.035620  0.575110  0.930330  0.014491
    C   C38  0.957120  0.420340  0.069680  -0.343151
    H   H9   0.062820  0.628750  0.882250  0.180578
    H   H10  0.929920  0.366700  0.117760  0.402539
    C   C39  0.996130  0.869860  0.499910  -0.091645
    C   C40  0.995710  0.126850  0.499970  -0.230529
    C   C41  0.996060  0.934600  0.619660  0.255063
    C   C42  0.995780  0.062110  0.380220  0.371838
    C   C43  0.995850  0.062210  0.619690  -0.122183
    C   C44  0.995990  0.934500  0.380190  -0.194386
    H   H11  0.995810  0.106270  0.702700  0.187647
    H   H12  0.996040  0.890440  0.297180  0.191141
    O   O17  0.417810  0.662510  0.855690  -0.457159
    H   H13  0.424460  0.649370  0.746720  0.373702
    O   O18  0.582200  0.337520  0.144300  -0.136715
    H   H14  0.575560  0.350660  0.253280  0.303380
    O   O19  0.499810  0.866760  0.249750  -0.541252
    H   H15  0.499750  0.766660  0.270030  0.364884
    O   O20  0.500140  0.133280  0.750250  -0.569889
    H   H16  0.500200  0.233370  0.729970  0.384413
    O   O21  0.314880  0.498840  0.750390  -0.615970
    H   H17  0.365320  0.499340  0.730210  0.439566
    O   O22  0.181500  0.498120  0.249610  -0.605166
    H   H18  0.131060  0.497620  0.269790  0.428141
    O   O23  0.078410  0.659850  0.144290  -0.465206
    H   H19  0.071780  0.646890  0.253270  0.374605
    O   O24  0.914330  0.335600  0.855720  -0.457912
    H   H20  0.920960  0.348560  0.746740  0.354745
    O   O25  0.996210  0.865400  0.750200  -0.537779
    H   H21  0.996370  0.765290  0.729940  0.333446
    O   O26  0.995630  0.131300  0.249680  -0.568236
    H   H22  0.995470  0.231420  0.269940  0.392737
    Br  Br1  0.670790  0.304430  0.287520  -0.103341
    Br  Br2  0.826320  0.303910  0.287750  -0.067937
    Br  Br3  0.829730  0.851890  0.883640  -0.007492
    Br  Br4  0.665330  0.852440  0.883400  -0.033975
