# Generated by REPEAT Assigner based on pymatgen
data_DB1-Zn2O8N2-AZO_A-DPAC_A_No1036
_audit_creation_date              2022-05-24
_audit_creation_method            REPEAT_Assigner
_cell_length_a                    16.492400
_cell_length_b                    17.476600
_cell_length_c                    17.572700
_cell_angle_alpha                 89.877200
_cell_angle_beta                  92.275300
_cell_angle_gamma                 84.449300
_cell_volume                      5037.182795
_symmetry_space_group_name_H-M    P1
_symmetry_Int_Tables_number       1
loop_
    _symmetry_equiv_pos_site_id
    _symmetry_equiv_pos_as_xyz
    1  x,y,z
loop_
    _atom_site_type_symbol
    _atom_site_label
    _atom_site_fract_x
    _atom_site_fract_y
    _atom_site_fract_z
    _atom_type_partial_charge
    O   O1   0.589230  0.385960  0.504080  -0.522195
    O   O2   0.423760  0.392510  0.497160  -0.554052
    C   C1   0.508820  0.350200  0.500620  0.580841
    Zn  Zn1  0.600910  0.496030  0.503980  0.952571
    O   O3   0.417090  0.503350  0.606450  -0.561768
    O   O4   0.582550  0.496920  0.613030  -0.566563
    C   C2   0.499840  0.500120  0.648430  0.439056
    O   O5   0.410770  0.614070  0.496070  -0.520212
    O   O6   0.576240  0.607520  0.502700  -0.555426
    C   C3   0.491180  0.649820  0.499330  0.579775
    Zn  Zn2  0.399090  0.504000  0.496020  0.950381
    O   O7   0.582920  0.496510  0.393560  -0.563083
    O   O8   0.417440  0.503230  0.386980  -0.567156
    C   C4   0.500170  0.499640  0.351580  0.439193
    N   N1   0.280370  0.508690  0.491340  -0.344421
    C   C5   0.239220  0.461320  0.538670  0.298551
    C   C6   0.153880  0.464820  0.535170  0.185700
    C   C7   0.107960  0.515690  0.484350  -0.123529
    C   C8   0.148490  0.562850  0.437230  0.079937
    C   C9   0.233790  0.559540  0.440540  0.363980
    N   N2   0.020470  0.520590  0.479450  0.081200
    N   N3   0.979530  0.479430  0.520570  0.083856
    C   C10  0.851500  0.437170  0.562790  0.080635
    C   C11  0.892040  0.484330  0.515670  -0.126987
    C   C12  0.846110  0.535200  0.464860  0.187054
    C   C13  0.760780  0.538700  0.461360  0.297521
    N   N4   0.719630  0.491330  0.508680  -0.350583
    C   C14  0.766210  0.440480  0.559480  0.374253
    C   C15  0.513930  0.264470  0.500750  -0.381800
    C   C16  0.442650  0.225890  0.497860  0.292127
    C   C17  0.447640  0.145360  0.497990  0.190952
    C   C18  0.523890  0.101780  0.501020  -0.132734
    C   C19  0.594870  0.139780  0.503890  0.100631
    C   C20  0.590170  0.220260  0.503770  0.330707
    N   N5   0.530980  0.019210  0.501230  0.074290
    N   N6   0.469020  0.980810  0.498710  0.076423
    C   C21  0.405130  0.860240  0.496050  0.100006
    C   C22  0.476110  0.898250  0.498930  -0.134177
    C   C23  0.552360  0.854660  0.501950  0.190974
    C   C24  0.557350  0.774140  0.502080  0.293561
    C   C25  0.486070  0.735560  0.499190  -0.382977
    C   C26  0.409830  0.779760  0.496170  0.333163
    C   C27  0.500140  0.499700  0.270940  0.064627
    C   C28  0.573980  0.496840  0.231770  -0.155562
    C   C29  0.574170  0.496890  0.151640  -0.164797
    C   C30  0.500070  0.499820  0.108290  0.016163
    C   C31  0.426000  0.502700  0.146160  0.469293
    C   C32  0.426250  0.502630  0.226300  -0.267716
    C   C33  0.500040  0.499870  0.034030  -0.046226
    C   C34  0.500010  0.499920  0.965990  -0.050019
    C   C35  0.499970  0.499970  0.891720  0.016927
    C   C36  0.574030  0.497120  0.853850  0.472122
    C   C37  0.573770  0.497180  0.773700  -0.270809
    C   C38  0.499880  0.500070  0.729070  0.064246
    C   C39  0.426040  0.502920  0.768250  -0.154369
    C   C40  0.425870  0.502880  0.848380  -0.165414
    H   H1   0.628760  0.494680  0.261600  0.141236
    H   H2   0.628820  0.494770  0.125540  0.154511
    H   H3   0.371510  0.504750  0.252080  0.161623
    H   H4   0.628510  0.495070  0.747920  0.165708
    H   H5   0.371270  0.505060  0.738420  0.140939
    H   H6   0.371220  0.504980  0.874480  0.154993
    O   O9   0.275630  0.611190  0.388940  -0.380888
    H   H7   0.342650  0.600960  0.399160  0.311708
    O   O10  0.099870  0.617780  0.382350  -0.417367
    H   H8   0.033840  0.612350  0.387770  0.373134
    O   O11  0.287000  0.406110  0.593830  -0.413013
    H   H9   0.353180  0.411040  0.588900  0.337399
    O   O12  0.111330  0.413460  0.586480  -0.372277
    H   H10  0.044390  0.424070  0.575880  0.140518
    O   O13  0.900130  0.382240  0.617670  -0.416220
    H   H11  0.966150  0.387670  0.612250  0.372473
    O   O14  0.724370  0.388830  0.611090  -0.391006
    H   H12  0.657350  0.399060  0.600860  0.314876
    O   O15  0.888660  0.586560  0.413540  -0.373408
    H   H13  0.955610  0.575950  0.424150  0.141108
    O   O16  0.713000  0.593910  0.406190  -0.412448
    H   H14  0.646820  0.588980  0.411120  0.339714
    O   O17  0.667890  0.259470  0.506920  -0.485119
    H   H15  0.652730  0.322750  0.506370  0.356941
    O   O18  0.677220  0.093620  0.507160  -0.422417
    H   H16  0.668860  0.031360  0.506770  0.361211
    O   O19  0.359860  0.271240  0.494580  -0.540918
    H   H17  0.367490  0.333650  0.494940  0.421082
    O   O20  0.370350  0.105490  0.494860  -0.373218
    H   H18  0.386080  0.042280  0.495440  0.131097
    O   O21  0.322780  0.906400  0.492790  -0.421984
    H   H19  0.331140  0.968660  0.493180  0.361137
    O   O22  0.332110  0.740560  0.493020  -0.488116
    H   H20  0.347270  0.677280  0.493580  0.356456
    O   O23  0.629650  0.894540  0.505080  -0.373914
    H   H21  0.613920  0.957740  0.504500  0.131917
    O   O24  0.640140  0.728780  0.505370  -0.541881
    H   H22  0.632510  0.666370  0.505010  0.421328
    H   H23  0.338670  0.468580  0.051300  0.386285
    H   H24  0.293020  0.545520  0.119560  0.396004
    N   N7   0.345450  0.505880  0.101750  -0.963890
    H   H25  0.665830  0.455900  0.948970  0.388414
    H   H26  0.702550  0.529720  0.880160  0.396666
    N   N8   0.654580  0.493970  0.898250  -0.968533
