# generated using pymatgen
data_Cu2SiH16C24N8(O2F)6
_symmetry_space_group_name_H-M   'P 1'
_cell_length_a   10.24820000
_cell_length_b   17.16460000
_cell_length_c   17.16920000
_cell_angle_alpha   89.93860000
_cell_angle_beta   86.72690000
_cell_angle_gamma   86.50440000
_symmetry_Int_Tables_number   1
_chemical_formula_structural   Cu2SiH16C24N8(O2F)6
_chemical_formula_sum   'Cu2 Si1 H16 C24 N8 O12 F6'
_cell_volume   3009.62423975
_cell_formula_units_Z   1
loop_
 _symmetry_equiv_pos_site_id
 _symmetry_equiv_pos_as_xyz
  1  'x, y, z'
loop_
 _atom_site_type_symbol
 _atom_site_label
 _atom_site_symmetry_multiplicity
 _atom_site_fract_x
 _atom_site_fract_y
 _atom_site_fract_z
 _atom_site_occupancy
  Cu  Cu1  1  0.36674000  0.50060000  0.50000000  1
  Cu  Cu2  1  0.63321000  0.49998000  0.50000000  1
  Si  Si1  1  0.99985000  0.50162000  0.50000000  1
  H  H1  1  0.68752000  0.49864000  0.74151000  1
  H  H2  1  0.67293000  0.49840000  0.88530000  1
  H  H3  1  0.25352000  0.49937000  0.88539000  1
  H  H4  1  0.74675000  0.49780000  0.11461000  1
  H  H5  1  0.32734000  0.49877000  0.11469000  1
  H  H6  1  0.31275000  0.49853000  0.25848000  1
  H  H7  1  0.68743000  0.74118000  0.50000000  1
  H  H8  1  0.67280000  0.88504000  0.50000000  1
  H  H9  1  0.25339000  0.88609000  0.50000000  1
  H  H10  1  0.74658000  0.11424000  0.50000000  1
  H  H11  1  0.32716000  0.11529000  0.50000000  1
  H  H12  1  0.31254000  0.25915000  0.50000000  1
  H  H13  1  0.25556000  0.49978000  0.66552000  1
  H  H14  1  0.74471000  0.49739000  0.33448000  1
  H  H15  1  0.25548000  0.66616000  0.50000000  1
  H  H16  1  0.74449000  0.33418000  0.50000000  1
  C  C1  1  0.51388000  0.49879000  0.35614000  1
  C  C2  1  0.48629000  0.49949000  0.64385000  1
  C  C3  1  0.48622000  0.64404000  0.50000000  1
  C  C4  1  0.51375000  0.35632000  0.50000000  1
  C  C5  1  0.59230000  0.49880000  0.77231000  1
  C  C6  1  0.58423000  0.49866000  0.85408000  1
  C  C7  1  0.46192000  0.49887000  0.89547000  1
  C  C8  1  0.34815000  0.49921000  0.85402000  1
  C  C9  1  0.35577000  0.49935000  0.77228000  1
  C  C10  1  0.65212000  0.49796000  0.14597000  1
  C  C11  1  0.53835000  0.49830000  0.10452000  1
  C  C12  1  0.41604000  0.49851000  0.14592000  1
  C  C13  1  0.40797000  0.49837000  0.22769000  1
  C  C14  1  0.64450000  0.49782000  0.22772000  1
  C  C15  1  0.59220000  0.77220000  0.50000000  1
  C  C16  1  0.58410000  0.85401000  0.50000000  1
  C  C17  1  0.46179000  0.89570000  0.50000000  1
  C  C18  1  0.34803000  0.85450000  0.50000000  1
  C  C19  1  0.35567000  0.77272000  0.50000000  1
  C  C20  1  0.65194000  0.14583000  0.50000000  1
  C  C21  1  0.53818000  0.10463000  0.50000000  1
  C  C22  1  0.41586000  0.14632000  0.50000000  1
  C  C23  1  0.40777000  0.22813000  0.50000000  1
  C  C24  1  0.64430000  0.22761000  0.50000000  1
  N  N1  1  0.47805000  0.49914000  0.73026000  1
  N  N2  1  0.45048000  0.49874000  0.97924000  1
  N  N3  1  0.54979000  0.49843000  0.02076000  1
  N  N4  1  0.52222000  0.49803000  0.26974000  1
  N  N5  1  0.47796000  0.73040000  0.50000000  1
  N  N6  1  0.45033000  0.97952000  0.50000000  1
  N  N7  1  0.54964000  0.02081000  0.50000000  1
  N  N8  1  0.52201000  0.26993000  0.50000000  1
  O  O1  1  0.38205000  0.60762000  0.50000000  1
  O  O2  1  0.59741000  0.60713000  0.50000000  1
  O  O3  1  0.40283000  0.39329000  0.50000000  1
  O  O4  1  0.61764000  0.39280000  0.50000000  1
  O  O5  1  0.40286000  0.49946000  0.39286000  1
  O  O6  1  0.59724000  0.49948000  0.60713000  1
  O  O7  1  0.61779000  0.49896000  0.39286000  1
  O  O8  1  0.38231000  0.49998000  0.60713000  1
  O  O9  1  0.23120000  0.49971000  0.72934000  1
  O  O10  1  0.76907000  0.49746000  0.27066000  1
  O  O11  1  0.23110000  0.73005000  0.50000000  1
  O  O12  1  0.76887000  0.27028000  0.50000000  1
  F  F1  1  0.17018000  0.50238000  0.50000000  1
  F  F2  1  0.82951000  0.50086000  0.50000000  1
  F  F3  1  0.98802000  0.52693000  0.59337000  1
  F  F4  1  0.01167000  0.47630000  0.40663000  1
  F  F5  1  0.99155000  0.59497000  0.47492000  1
  F  F6  1  0.00814000  0.40826000  0.52508000  1
