# Generated by REPEAT Assigner based on pymatgen
data_DB1-Cu2N8-irmof20_B-irmof7_B_No41
_audit_creation_date              2022-05-24
_audit_creation_method            REPEAT_Assigner
_cell_length_a                    13.291300
_cell_length_b                    15.188000
_cell_length_c                    7.052800
_cell_angle_alpha                 76.574300
_cell_angle_beta                  105.386000
_cell_angle_gamma                 69.388400
_cell_volume                      1198.306704
_symmetry_space_group_name_H-M    P1
_symmetry_Int_Tables_number       1
loop_
    _symmetry_equiv_pos_site_id
    _symmetry_equiv_pos_as_xyz
    1  x,y,z
loop_
    _atom_site_type_symbol
    _atom_site_label
    _atom_site_fract_x
    _atom_site_fract_y
    _atom_site_fract_z
    _atom_type_partial_charge
    Cu  Cu1  0.500000  0.500000  0.000000  0.297350
    Cu  Cu2  0.500000  0.500000  0.500000  0.367302
    N   N1   0.630630  0.499120  0.221950  0.112328
    N   N2   0.726590  0.500290  0.206050  -0.463429
    N   N3   0.501000  0.386690  0.400950  0.011675
    N   N4   0.499630  0.303460  0.505190  -0.528395
    N   N5   0.369380  0.500880  0.590450  0.096758
    N   N6   0.273420  0.499710  0.479750  -0.538174
    N   N7   0.499000  0.613300  0.786650  0.125206
    N   N8   0.500370  0.696540  0.809020  -0.597261
    N   N9   0.369380  0.500880  0.778050  0.098560
    N   N10  0.273410  0.499710  0.793950  -0.455199
    N   N11  0.499000  0.613300  0.599050  0.026152
    N   N12  0.500370  0.696540  0.494820  -0.532210
    N   N13  0.630630  0.499120  0.409550  0.079352
    N   N14  0.726590  0.500290  0.520250  -0.512594
    N   N15  0.501000  0.386690  0.213350  0.134538
    N   N16  0.499630  0.303460  0.190990  -0.605181
    C   C1   0.784230  0.500230  0.392000  0.829123
    C   C2   0.499690  0.253460  0.373120  0.962885
    C   C3   0.215770  0.499770  0.608000  0.830885
    C   C4   0.500310  0.746540  0.626880  0.951968
    C   C5   0.500120  0.906310  0.697290  -0.215480
    H   H1   0.500140  0.887340  0.832610  0.190159
    S   S1   0.500120  0.902120  0.331950  0.039351
    C   C6   0.499890  0.093680  0.302710  -0.235863
    H   H2   0.499860  0.112660  0.167390  0.204114
    S   S2   0.499880  0.097870  0.668050  0.028667
    C   C7   0.500190  0.847590  0.576300  -0.368066
    C   C8   0.499810  0.152400  0.423710  -0.363367
    C   C9   0.500000  0.000000  0.403090  0.142530
    C   C10  0.500000  0.000000  0.596910  0.150667
    C   C11  0.101840  0.499890  0.550970  -0.489302
    C   C12  0.015270  0.565240  0.597760  0.240733
    C   C13  0.081520  0.434650  0.450690  0.269186
    C   C14  0.039380  0.628960  0.697850  -0.283494
    C   C15  0.955660  0.695060  0.747100  -0.045032
    H   H3   0.112750  0.627160  0.732190  0.145512
    H   H4   0.971880  0.737380  0.813680  0.102514
    C   C16  0.898170  0.500110  0.449030  -0.591866
    C   C17  0.984730  0.434760  0.402240  0.398155
    C   C18  0.918480  0.565340  0.549310  0.426438
    C   C19  0.829660  0.629180  0.592880  -0.484552
    C   C20  0.846370  0.695180  0.692390  -0.068096
    H   H5   0.758040  0.627530  0.554650  0.298161
    H   H6   0.787170  0.737570  0.721220  0.119047
    O   O1   0.959470  0.365640  0.294120  -0.467589
    H   H7   0.868600  0.377360  0.264690  0.285443
    O   O2   0.176970  0.365410  0.402990  -0.499049
    H   H8   0.256040  0.376950  0.458610  0.379440
