# generated using pymatgen
data_Li4Zn4H16C36O17
_symmetry_space_group_name_H-M   'P 1'
_cell_length_a   18.32120000
_cell_length_b   23.42930000
_cell_length_c   34.93980000
_cell_angle_alpha   74.90790000
_cell_angle_beta   74.79960000
_cell_angle_gamma   66.99000000
_symmetry_Int_Tables_number   1
_chemical_formula_structural   Li4Zn4H16C36O17
_chemical_formula_sum   'Li16 Zn16 H64 C144 O68'
_cell_volume   13109.62251444
_cell_formula_units_Z   4
loop_
 _symmetry_equiv_pos_site_id
 _symmetry_equiv_pos_as_xyz
  1  'x, y, z'
loop_
 _atom_site_type_symbol
 _atom_site_label
 _atom_site_symmetry_multiplicity
 _atom_site_fract_x
 _atom_site_fract_y
 _atom_site_fract_z
 _atom_site_occupancy
  Li  Li1  1  0.39294000  0.88779000  0.62919000  1
  Li  Li2  1  0.10717000  0.86227000  0.62074000  1
  Li  Li3  1  0.75843000  0.03657000  0.44645000  1
  Li  Li4  1  0.74146000  0.21338000  0.30361000  1
  Li  Li5  1  0.74189000  0.56200000  0.95495000  1
  Li  Li6  1  0.75864000  0.68790000  0.79514000  1
  Li  Li7  1  0.40998000  0.36211000  0.12094000  1
  Li  Li8  1  0.09027000  0.38761000  0.12935000  1
  Li  Li9  1  0.44769000  0.23135000  0.63036000  1
  Li  Li10  1  0.69060000  0.56118000  0.30050000  1
  Li  Li11  1  0.44764000  0.56114000  0.30052000  1
  Li  Li12  1  0.76077000  0.54305000  0.59528000  1
  Li  Li13  1  0.05272000  0.18878000  0.94946000  1
  Li  Li14  1  0.73944000  0.08543000  0.77625000  1
  Li  Li15  1  0.73938000  0.70687000  0.15473000  1
  Li  Li16  1  0.05248000  0.01855000  0.11976000  1
  Zn  Zn1  1  0.38476000  0.54306000  0.51436000  1
  Zn  Zn2  1  0.52870000  0.50018000  0.44240000  1
  Zn  Zn3  1  0.52871000  0.41368000  0.52890000  1
  Zn  Zn4  1  0.55782000  0.54308000  0.51435000  1
  Zn  Zn5  1  0.11539000  0.20695000  0.73562000  1
  Zn  Zn6  1  0.97140000  0.33632000  0.72112000  1
  Zn  Zn7  1  0.97151000  0.24979000  0.80762000  1
  Zn  Zn8  1  0.94232000  0.20691000  0.73568000  1
  Zn  Zn9  1  0.97128000  0.74974000  0.30769000  1
  Zn  Zn10  1  0.94224000  0.70684000  0.23572000  1
  Zn  Zn11  1  0.11528000  0.70684000  0.23576000  1
  Zn  Zn12  1  0.97136000  0.83623000  0.22118000  1
  Zn  Zn13  1  0.52904000  0.91356000  0.02900000  1
  Zn  Zn14  1  0.55804000  0.04300000  0.01443000  1
  Zn  Zn15  1  0.38499000  0.04289000  0.01452000  1
  Zn  Zn16  1  0.52884000  0.00010000  0.94251000  1
  H  H1  1  0.01917000  0.04838000  0.68282000  1
  H  H2  1  0.08028000  0.95653000  0.65219000  1
  H  H3  1  0.24984000  0.04842000  0.68276000  1
  H  H4  1  0.25029000  0.70162000  0.56720000  1
  H  H5  1  0.48095000  0.70163000  0.56718000  1
  H  H6  1  0.41983000  0.79349000  0.59780000  1
  H  H7  1  0.86562000  0.00919000  0.25961000  1
  H  H8  1  0.80437000  0.10111000  0.29016000  1
  H  H9  1  0.86555000  0.89392000  0.37491000  1
  H  H10  1  0.63437000  0.35602000  0.37516000  1
  H  H11  1  0.63439000  0.24073000  0.49046000  1
  H  H12  1  0.69563000  0.14882000  0.45990000  1
  H  H13  1  0.29699000  0.26880000  0.65721000  1
  H  H14  1  0.05982000  0.46260000  0.61429000  1
  H  H15  1  0.07603000  0.48587000  0.65426000  1
  H  H16  1  0.16784000  0.53229000  0.60816000  1
  H  H17  1  0.15235000  0.50835000  0.56826000  1
  H  H18  1  0.77699000  0.62019000  0.30580000  1
  H  H19  1  0.86331000  0.65273000  0.42415000  1
  H  H20  1  0.78386000  0.72433000  0.41579000  1
  H  H21  1  0.69175000  0.67839000  0.46205000  1
  H  H22  1  0.77105000  0.60657000  0.47004000  1
  H  H23  1  0.29696000  0.62020000  0.30583000  1
  H  H24  1  0.07590000  0.72428000  0.41616000  1
  H  H25  1  0.05990000  0.65271000  0.42389000  1
  H  H26  1  0.15170000  0.60674000  0.47015000  1
  H  H27  1  0.16844000  0.67809000  0.46203000  1
  H  H28  1  0.81455000  0.43555000  0.63842000  1
  H  H29  1  0.80825000  0.21780000  0.64177000  1
  H  H30  1  0.72896000  0.24173000  0.68168000  1
  H  H31  1  0.63668000  0.28747000  0.63566000  1
  H  H32  1  0.71612000  0.26421000  0.59568000  1
  H  H33  1  0.63453000  0.85598000  0.87524000  1
  H  H34  1  0.69577000  0.76420000  0.84455000  1
  H  H35  1  0.63476000  0.74064000  0.99052000  1
  H  H36  1  0.86573000  0.50925000  0.75959000  1
  H  H37  1  0.86587000  0.39392000  0.87487000  1
  H  H38  1  0.80465000  0.48571000  0.90556000  1
  H  H39  1  0.20343000  0.12981000  0.94410000  1
  H  H40  1  0.44048000  0.09737000  0.82568000  1
  H  H41  1  0.42429000  0.02575000  0.83404000  1
  H  H42  1  0.33242000  0.07168000  0.78783000  1
  H  H43  1  0.34788000  0.14352000  0.77983000  1
  H  H44  1  0.68575000  0.07445000  0.85158000  1
  H  H45  1  0.69216000  0.17832000  0.96208000  1
  H  H46  1  0.77148000  0.10651000  0.97005000  1
  H  H47  1  0.86370000  0.15270000  0.92414000  1
  H  H48  1  0.78422000  0.22429000  0.91580000  1
  H  H49  1  0.25048000  0.20148000  0.06730000  1
  H  H50  1  0.18910000  0.29334000  0.09791000  1
  H  H51  1  0.48110000  0.20146000  0.06739000  1
  H  H52  1  0.01918000  0.54827000  0.18289000  1
  H  H53  1  0.24980000  0.54828000  0.18294000  1
  H  H54  1  0.31117000  0.45641000  0.15233000  1
  H  H55  1  0.68572000  0.81435000  0.11154000  1
  H  H56  1  0.77165000  0.00837000  0.06842000  1
  H  H57  1  0.69165000  0.03190000  0.10813000  1
  H  H58  1  0.78382000  0.98618000  0.15420000  1
  H  H59  1  0.86367000  0.96198000  0.11457000  1
  H  H60  1  0.20317000  0.98106000  0.09291000  1
  H  H61  1  0.42422000  0.76352000  0.09608000  1
  H  H62  1  0.44018000  0.78772000  0.13573000  1
  H  H63  1  0.34835000  0.74133000  0.18184000  1
  H  H64  1  0.33166000  0.71780000  0.14211000  1
  C  C1  1  0.36170000  0.56911000  0.43089000  1
  C  C2  1  0.59175000  0.36234000  0.45413000  1
  C  C3  1  0.36172000  0.43087000  0.56914000  1
  C  C4  1  0.63829000  0.43089000  0.56911000  1
  C  C5  1  0.40825000  0.63766000  0.54587000  1
  C  C6  1  0.63828000  0.56913000  0.43086000  1
  C  C7  1  0.13836000  0.31917000  0.68085000  1
  C  C8  1  0.90842000  0.38763000  0.79591000  1
  C  C9  1  0.13854000  0.18088000  0.81908000  1
  C  C10  1  0.86195000  0.18082000  0.81917000  1
  C  C11  1  0.09189000  0.11235000  0.70411000  1
  C  C12  1  0.86177000  0.31910000  0.68094000  1
  C  C13  1  0.86171000  0.68080000  0.31919000  1
  C  C14  1  0.09184000  0.61224000  0.20422000  1
  C  C15  1  0.13825000  0.68081000  0.31924000  1
  C  C16  1  0.13837000  0.81902000  0.18099000  1
  C  C17  1  0.90824000  0.88758000  0.29595000  1
  C  C18  1  0.86183000  0.81902000  0.18093000  1
  C  C19  1  0.63866000  0.93082000  0.06916000  1
  C  C20  1  0.40845000  0.13751000  0.04602000  1
  C  C21  1  0.36211000  0.93065000  0.06930000  1
  C  C22  1  0.36179000  0.06895000  0.93107000  1
  C  C23  1  0.59200000  0.86226000  0.95421000  1
  C  C24  1  0.63835000  0.06913000  0.93093000  1
  C  C25  1  0.12816000  0.05792000  0.68596000  1
  C  C26  1  0.08079000  0.02962000  0.67655000  1
  C  C27  1  0.11664000  0.97552000  0.65851000  1
  C  C28  1  0.20134000  0.94812000  0.64935000  1
  C  C29  1  0.24950000  0.97554000  0.65847000  1
  C  C30  1  0.21325000  0.02964000  0.67651000  1
  C  C31  1  0.23475000  0.89798000  0.63264000  1
  C  C32  1  0.26535000  0.85205000  0.61733000  1
  C  C33  1  0.29877000  0.80191000  0.60062000  1
  C  C34  1  0.25062000  0.77450000  0.59148000  1
  C  C35  1  0.28687000  0.72040000  0.57345000  1
  C  C36  1  0.37196000  0.69211000  0.56402000  1
  C  C37  1  0.41933000  0.72040000  0.57344000  1
  C  C38  1  0.38347000  0.77450000  0.59147000  1
  C  C39  1  0.87194000  0.94203000  0.31409000  1
  C  C40  1  0.85309000  0.00343000  0.29041000  1
  C  C41  1  0.81702000  0.05763000  0.30834000  1
  C  C42  1  0.79872000  0.05185000  0.35067000  1
  C  C43  1  0.81698000  0.99124000  0.37475000  1
  C  C44  1  0.85305000  0.93723000  0.35662000  1
  C  C45  1  0.76529000  0.10200000  0.36738000  1
  C  C46  1  0.73466000  0.14794000  0.38268000  1
  C  C47  1  0.70124000  0.19808000  0.39939000  1
  C  C48  1  0.68296000  0.25870000  0.37532000  1
  C  C49  1  0.64689000  0.31270000  0.39345000  1
  C  C50  1  0.62804000  0.30790000  0.43598000  1
  C  C51  1  0.64690000  0.24650000  0.45966000  1
  C  C52  1  0.68297000  0.19230000  0.44173000  1
  C  C53  1  0.19368000  0.34686000  0.65316000  1
  C  C54  1  0.30637000  0.40320000  0.59681000  1
  C  C55  1  0.17395000  0.40407000  0.63420000  1
  C  C56  1  0.32610000  0.34599000  0.61577000  1
  C  C57  1  0.23020000  0.43219000  0.60608000  1
  C  C58  1  0.26985000  0.31787000  0.64389000  1
  C  C59  1  0.10695000  0.46596000  0.62671000  1
  C  C60  1  0.16081000  0.49288000  0.59979000  1
  C  C61  1  0.80632000  0.65315000  0.34685000  1
  C  C62  1  0.69363000  0.59680000  0.40319000  1
  C  C63  1  0.78780000  0.65332000  0.38492000  1
  C  C64  1  0.71215000  0.59662000  0.36511000  1
  C  C65  1  0.73155000  0.62520000  0.41305000  1
  C  C66  1  0.76840000  0.62475000  0.33699000  1
  C  C67  1  0.80040000  0.67305000  0.41961000  1
  C  C68  1  0.74655000  0.64612000  0.44653000  1
  C  C69  1  0.19364000  0.65310000  0.34689000  1
  C  C70  1  0.30635000  0.59677000  0.40322000  1
  C  C71  1  0.17392000  0.65327000  0.38497000  1
  C  C72  1  0.32607000  0.59659000  0.36514000  1
  C  C73  1  0.23017000  0.62516000  0.41309000  1
  C  C74  1  0.26981000  0.62471000  0.33703000  1
  C  C75  1  0.10693000  0.67299000  0.41966000  1
  C  C76  1  0.16079000  0.64608000  0.44658000  1
  C  C77  1  0.80636000  0.34690000  0.65311000  1
  C  C78  1  0.69365000  0.40323000  0.59678000  1
  C  C79  1  0.76844000  0.31791000  0.64385000  1
  C  C80  1  0.73158000  0.43223000  0.60604000  1
  C  C81  1  0.71218000  0.34602000  0.61573000  1
  C  C82  1  0.78783000  0.40412000  0.63415000  1
  C  C83  1  0.75345000  0.25721000  0.65015000  1
  C  C84  1  0.69959000  0.28412000  0.62323000  1
  C  C85  1  0.62830000  0.80783000  0.93605000  1
  C  C86  1  0.64710000  0.81266000  0.89352000  1
  C  C87  1  0.68316000  0.75867000  0.87537000  1
  C  C88  1  0.70150000  0.69804000  0.89943000  1
  C  C89  1  0.68329000  0.69223000  0.94177000  1
  C  C90  1  0.64723000  0.74642000  0.95972000  1
  C  C91  1  0.73492000  0.64792000  0.88271000  1
  C  C92  1  0.76554000  0.60199000  0.86739000  1
  C  C93  1  0.79896000  0.55186000  0.85067000  1
  C  C94  1  0.81719000  0.55766000  0.80833000  1
  C  C95  1  0.85325000  0.50347000  0.79039000  1
  C  C96  1  0.87214000  0.44207000  0.81406000  1
  C  C97  1  0.85333000  0.43724000  0.85659000  1
  C  C98  1  0.81727000  0.49124000  0.87473000  1
  C  C99  1  0.30671000  0.09690000  0.90302000  1
  C  C100  1  0.19393000  0.15322000  0.84673000  1
  C  C101  1  0.32639000  0.09673000  0.86494000  1
  C  C102  1  0.17425000  0.15338000  0.88481000  1
  C  C103  1  0.27010000  0.12484000  0.83684000  1
  C  C104  1  0.23054000  0.12527000  0.91290000  1
  C  C105  1  0.39335000  0.07703000  0.83023000  1
  C  C106  1  0.33946000  0.10395000  0.80333000  1
  C  C107  1  0.69399000  0.09675000  0.90323000  1
  C  C108  1  0.80663000  0.15313000  0.84686000  1
  C  C109  1  0.73193000  0.12515000  0.91307000  1
  C  C110  1  0.76870000  0.12472000  0.83701000  1
  C  C111  1  0.78814000  0.15329000  0.88494000  1
  C  C112  1  0.71248000  0.09658000  0.86515000  1
  C  C113  1  0.74695000  0.14607000  0.94655000  1
  C  C114  1  0.80078000  0.17301000  0.91962000  1
  C  C115  1  0.37214000  0.19195000  0.06417000  1
  C  C116  1  0.28705000  0.22025000  0.07357000  1
  C  C117  1  0.25076000  0.27435000  0.09161000  1
  C  C118  1  0.29889000  0.30176000  0.10077000  1
  C  C119  1  0.38359000  0.27434000  0.09166000  1
  C  C120  1  0.41948000  0.22024000  0.07362000  1
  C  C121  1  0.26545000  0.35190000  0.11748000  1
  C  C122  1  0.23480000  0.39784000  0.13279000  1
  C  C123  1  0.20137000  0.44798000  0.14950000  1
  C  C124  1  0.11667000  0.47539000  0.15862000  1
  C  C125  1  0.08079000  0.52949000  0.17665000  1
  C  C126  1  0.12814000  0.55779000  0.18609000  1
  C  C127  1  0.21323000  0.52950000  0.17667000  1
  C  C128  1  0.24951000  0.47540000  0.15864000  1
  C  C129  1  0.69386000  0.90300000  0.09689000  1
  C  C130  1  0.80651000  0.84668000  0.15325000  1
  C  C131  1  0.73177000  0.93200000  0.10616000  1
  C  C132  1  0.76860000  0.81769000  0.14398000  1
  C  C133  1  0.78799000  0.90389000  0.13429000  1
  C  C134  1  0.71237000  0.84580000  0.11585000  1
  C  C135  1  0.74676000  0.99270000  0.09987000  1
  C  C136  1  0.80059000  0.96579000  0.12680000  1
  C  C137  1  0.30648000  0.90301000  0.09701000  1
  C  C138  1  0.19374000  0.84669000  0.15333000  1
  C  C139  1  0.32619000  0.84581000  0.11597000  1
  C  C140  1  0.17404000  0.90390000  0.13437000  1
  C  C141  1  0.26992000  0.81769000  0.14408000  1
  C  C142  1  0.23031000  0.93201000  0.10626000  1
  C  C143  1  0.39317000  0.78391000  0.12347000  1
  C  C144  1  0.33930000  0.75700000  0.15039000  1
  O  O1  1  0.50000000  0.50000000  0.50000000  1
  O  O2  1  0.33142000  0.57357000  0.46864000  1
  O  O3  1  0.57674000  0.41665000  0.42983000  1
  O  O4  1  0.43724000  0.39463000  0.56317000  1
  O  O5  1  0.43722000  0.54205000  0.41574000  1
  O  O6  1  0.33143000  0.48973000  0.55248000  1
  O  O7  1  0.57675000  0.35306000  0.49342000  1
  O  O8  1  0.60498000  0.39464000  0.56316000  1
  O  O9  1  0.48686000  0.61515000  0.53837000  1
  O  O10  1  0.62638000  0.48975000  0.55246000  1
  O  O11  1  0.35965000  0.61514000  0.53838000  1
  O  O12  1  0.60496000  0.54206000  0.41573000  1
  O  O13  1  0.62637000  0.57359000  0.46862000  1
  O  O14  1  0.00015000  0.24999000  0.75001000  1
  O  O15  1  0.16868000  0.26031000  0.69749000  1
  O  O16  1  0.92339000  0.39692000  0.75661000  1
  O  O17  1  0.06302000  0.20793000  0.83424000  1
  O  O18  1  0.06283000  0.35540000  0.68683000  1
  O  O19  1  0.16878000  0.17644000  0.78132000  1
  O  O20  1  0.92347000  0.33333333  0.82019000  1
  O  O21  1  0.89528000  0.20789000  0.83430000  1
  O  O22  1  0.01328000  0.13485000  0.71164000  1
  O  O23  1  0.87382000  0.17637000  0.78142000  1
  O  O24  1  0.14049000  0.13488000  0.71160000  1
  O  O25  1  0.89509000  0.35536000  0.68689000  1
  O  O26  1  0.87372000  0.26024000  0.69759000  1
  O  O27  1  0.00004000  0.74991000  0.25009000  1
  O  O28  1  0.89500000  0.70787000  0.33434000  1
  O  O29  1  0.01322000  0.63476000  0.21171000  1
  O  O30  1  0.16857000  0.67634000  0.28150000  1
  O  O31  1  0.87366000  0.67634000  0.28143000  1
  O  O32  1  0.06272000  0.70787000  0.33437000  1
  O  O33  1  0.14042000  0.63476000  0.21174000  1
  O  O34  1  0.16864000  0.76017000  0.19765000  1
  O  O35  1  0.92328000  0.89685000  0.25666000  1
  O  O36  1  0.06285000  0.85527000  0.18693000  1
  O  O37  1  0.92323000  0.83328000  0.32025000  1
  O  O38  1  0.87373000  0.76016000  0.19759000  1
  O  O39  1  0.89513000  0.85527000  0.18690000  1
  O  O40  1  0.50023000  0.99989000  0.00011000  1
  O  O41  1  0.60537000  0.89454000  0.06322000  1
  O  O42  1  0.48706000  0.11505000  0.03848000  1
  O  O43  1  0.33176000  0.98950000  0.05266000  1
  O  O44  1  0.62668000  0.98969000  0.05251000  1
  O  O45  1  0.43764000  0.89443000  0.06330000  1
  O  O46  1  0.35986000  0.11496000  0.03855000  1
  O  O47  1  0.33156000  0.07338000  0.96883000  1
  O  O48  1  0.57692000  0.91658000  0.92993000  1
  O  O49  1  0.43730000  0.04193000  0.91590000  1
  O  O50  1  0.57707000  0.85296000  0.99351000  1
  O  O51  1  0.62649000  0.07357000  0.96868000  1
  O  O52  1  0.60503000  0.04204000  0.91581000  1
  O  O53  1  0.32759000  0.95151000  0.65044000  1
  O  O54  1  0.17253000  0.79854000  0.59950000  1
  O  O55  1  0.80093000  0.98426000  0.41379000  1
  O  O56  1  0.69897000  0.26568000  0.33628000  1
  O  O57  1  0.69938000  0.63716000  0.96478000  1
  O  O58  1  0.80113000  0.61273000  0.78532000  1
  O  O59  1  0.42962000  0.29838000  0.09969000  1
  O  O60  1  0.07064000  0.45134000  0.15060000  1
  O  O61  1  0.40063000  0.30846000  0.61065000  1
  O  O62  1  0.68026000  0.57017000  0.34891000  1
  O  O63  1  0.40059000  0.57013000  0.34894000  1
  O  O64  1  0.72132000  0.49082000  0.59011000  1
  O  O65  1  0.09973000  0.17981000  0.90104000  1
  O  O66  1  0.77891000  0.11932000  0.79976000  1
  O  O67  1  0.77881000  0.75910000  0.15991000  1
  O  O68  1  0.09951000  0.94144000  0.13948000  1
