# Generated by REPEAT Assigner based on pymatgen
data_DB1-Cu2O8N2-DPAC_A-NiC4_No6
_audit_creation_date              2022-05-24
_audit_creation_method            REPEAT_Assigner
_cell_length_a                    31.700000
_cell_length_b                    23.514900
_cell_length_c                    23.516000
_cell_angle_alpha                 62.928400
_cell_angle_beta                  132.374000
_cell_angle_gamma                 132.375000
_cell_volume                      9566.798141
_symmetry_space_group_name_H-M    P1
_symmetry_Int_Tables_number       1
loop_
    _symmetry_equiv_pos_site_id
    _symmetry_equiv_pos_as_xyz
    1  x,y,z
loop_
    _atom_site_type_symbol
    _atom_site_label
    _atom_site_fract_x
    _atom_site_fract_y
    _atom_site_fract_z
    _atom_type_partial_charge
    Cu  Cu1   0.459860  0.500010  0.500000  0.841198
    Cu  Cu2   0.540140  0.500000  0.499990  0.846513
    O   O1    0.412500  0.499970  0.399920  -0.469604
    O   O2    0.512620  0.499820  0.600290  -0.476004
    O   O3    0.412510  0.399700  0.500200  -0.469384
    O   O4    0.512610  0.600090  0.500010  -0.475153
    O   O5    0.587500  0.600300  0.499820  -0.469952
    O   O6    0.487380  0.399920  0.499960  -0.477485
    O   O7    0.587480  0.499930  0.600160  -0.469958
    O   O8    0.487390  0.500210  0.399700  -0.476039
    C   C1    0.427850  0.500080  0.355630  0.531869
    C   C2    0.572150  0.499930  0.644360  0.532587
    C   C3    0.427850  0.355630  0.500070  0.532578
    C   C4    0.572150  0.644380  0.499920  0.531018
    Cu  Cu3   0.040150  0.499980  0.500030  0.851870
    Cu  Cu4   0.959850  0.499980  0.500010  0.840961
    O   O9    0.987370  0.399890  0.499960  -0.477730
    O   O10   0.087510  0.600270  0.499880  -0.471042
    O   O11   0.987420  0.500210  0.399730  -0.479788
    O   O12   0.087460  0.499950  0.600100  -0.470805
    O   O13   0.012600  0.499770  0.600320  -0.476436
    O   O14   0.912530  0.499970  0.399940  -0.473651
    O   O15   0.012620  0.600150  0.499980  -0.474402
    O   O16   0.912500  0.399680  0.500190  -0.468490
    C   C5    0.927830  0.355600  0.500050  0.531966
    C   C6    0.072160  0.644350  0.499990  0.531877
    C   C7    0.927890  0.500100  0.355660  0.536629
    C   C8    0.072110  0.499850  0.644390  0.532003
    N   N1    0.900180  0.499970  0.500000  -0.305397
    C   C9    0.876960  0.549420  0.450590  0.341861
    C   C10   0.832540  0.549570  0.450430  -0.382282
    C   C11   0.810010  0.499980  0.499980  0.316997
    C   C12   0.832500  0.450380  0.549540  -0.381387
    C   C13   0.876920  0.450530  0.549400  0.339701
    C   C14   0.768840  0.499980  0.499980  -0.127889
    C   C15   0.731120  0.499990  0.499970  -0.127779
    C   C16   0.689950  0.499990  0.499970  0.317367
    C   C17   0.667440  0.549560  0.450400  -0.381804
    C   C18   0.623020  0.549420  0.450550  0.340832
    N   N2    0.599790  0.499990  0.499980  -0.307730
    C   C19   0.623020  0.450560  0.549400  0.343105
    C   C20   0.667440  0.450410  0.549540  -0.382814
    H   H1    0.816970  0.586160  0.413860  0.168858
    H   H2    0.816890  0.413790  0.586100  0.168565
    H   H3    0.683030  0.586140  0.413820  0.168613
    H   H4    0.683030  0.413830  0.586120  0.168906
    N   N3    0.099820  0.499980  0.500040  -0.308364
    C   C21   0.123030  0.549400  0.450600  0.340708
    C   C22   0.167460  0.549550  0.450450  -0.381494
    C   C23   0.189990  0.500000  0.500040  0.317346
    C   C24   0.167500  0.450440  0.549630  -0.382566
    C   C25   0.123080  0.450570  0.549490  0.342700
    C   C26   0.231160  0.500010  0.500030  -0.127785
    C   C27   0.268880  0.500020  0.500020  -0.127853
    C   C28   0.310050  0.500020  0.500020  0.317211
    C   C29   0.332550  0.549590  0.450450  -0.382881
    C   C30   0.376970  0.549440  0.450590  0.342935
    N   N4    0.400210  0.500020  0.500010  -0.306156
    C   C31   0.376980  0.450590  0.549450  0.340473
    C   C32   0.332560  0.450440  0.549600  -0.382000
    H   H5    0.183030  0.586120  0.413850  0.168547
    H   H6    0.183110  0.413880  0.586220  0.168766
    H   H7    0.316970  0.586170  0.413870  0.168948
    H   H8    0.316980  0.413870  0.586180  0.168778
    C   C33   0.112950  0.725920  0.499990  -0.322152
    C   C34   0.172370  0.768300  0.499890  0.236337
    C   C35   0.213020  0.849360  0.499900  -0.390265
    C   C36   0.195230  0.890450  0.500000  0.340853
    C   C37   0.136350  0.849390  0.500100  -0.394217
    C   C38   0.095930  0.768320  0.500100  0.236256
    C   C39   0.232800  0.965570  0.500010  -0.137919
    C   C40   0.267220  0.034410  0.500020  -0.139092
    C   C41   0.304780  0.109530  0.500020  0.342148
    C   C42   0.363640  0.150600  0.499900  -0.394940
    C   C43   0.404070  0.231660  0.499910  0.237478
    C   C44   0.387060  0.274060  0.500050  -0.323059
    C   C45   0.327650  0.231670  0.500170  0.236825
    C   C46   0.287000  0.150610  0.500160  -0.391071
    H   H9    0.255530  0.877800  0.499820  0.173720
    H   H10   0.122290  0.877840  0.500180  0.175587
    H   H11   0.377700  0.122150  0.499800  0.175594
    H   H12   0.244500  0.122170  0.500240  0.173973
    C   C47   0.887110  0.274080  0.500080  -0.322352
    C   C48   0.827700  0.231710  0.500190  0.236478
    C   C49   0.787030  0.150650  0.500160  -0.390749
    C   C50   0.804810  0.109560  0.500030  0.341267
    C   C51   0.863680  0.150620  0.499920  -0.394470
    C   C52   0.904120  0.231680  0.499950  0.236965
    C   C53   0.767230  0.034430  0.500010  -0.138149
    C   C54   0.732800  0.965600  0.499990  -0.139080
    C   C55   0.695230  0.890480  0.499970  0.342260
    C   C56   0.636350  0.849410  0.500050  -0.394648
    C   C57   0.595920  0.768350  0.500030  0.236598
    C   C58   0.612940  0.725950  0.499930  -0.322189
    C   C59   0.672370  0.768330  0.499840  0.236805
    C   C60   0.713020  0.849390  0.499860  -0.391311
    H   H13   0.744530  0.122220  0.500240  0.173927
    H   H14   0.877730  0.122160  0.499820  0.175523
    H   H15   0.622280  0.877860  0.500130  0.175545
    H   H16   0.755530  0.877830  0.499800  0.174008
    C   C61   0.112910  0.499890  0.725960  -0.321517
    C   C62   0.172440  0.500010  0.768340  0.236576
    C   C63   0.213100  0.500040  0.849390  -0.391192
    C   C64   0.195210  0.499950  0.890470  0.342822
    C   C65   0.136230  0.499830  0.849410  -0.395183
    C   C66   0.095790  0.499800  0.768360  0.237182
    C   C67   0.232780  0.499970  0.965590  -0.139143
    C   C68   0.267210  0.499990  0.034420  -0.138980
    C   C69   0.304780  0.500020  0.109540  0.342944
    C   C70   0.363780  0.500160  0.150610  -0.395561
    C   C71   0.404200  0.500180  0.231670  0.236918
    C   C72   0.387060  0.500060  0.274060  -0.321934
    C   C73   0.327520  0.499930  0.231670  0.236792
    C   C74   0.286870  0.499900  0.150620  -0.391259
    H   H17   0.255690  0.500120  0.877830  0.174037
    H   H18   0.122090  0.499770  0.877860  0.175802
    H   H19   0.377920  0.500250  0.122170  0.175983
    H   H20   0.244280  0.499800  0.122180  0.174022
    C   C75   0.887350  0.500570  0.274030  -0.326197
    C   C76   0.827830  0.500450  0.231660  0.239487
    C   C77   0.787140  0.500370  0.150600  -0.392862
    C   C78   0.805000  0.500410  0.109510  0.343681
    C   C79   0.863980  0.500530  0.150570  -0.396365
    C   C80   0.904440  0.500610  0.231630  0.239043
    C   C81   0.767390  0.500340  0.034400  -0.138853
    C   C82   0.732940  0.500270  0.965570  -0.138930
    C   C83   0.695340  0.500190  0.890450  0.342382
    C   C84   0.636370  0.500100  0.849390  -0.394480
    C   C85   0.595900  0.500010  0.768330  0.235983
    C   C86   0.612980  0.500020  0.725930  -0.321633
    C   C87   0.672500  0.500120  0.768310  0.236205
    C   C88   0.713190  0.500200  0.849360  -0.391268
    H   H21   0.744550  0.500290  0.122180  0.174294
    H   H22   0.878090  0.500560  0.122120  0.176058
    H   H23   0.622260  0.500090  0.877830  0.175550
    H   H24   0.755770  0.500270  0.877800  0.174058
    C   C89   0.900370  0.605010  0.395040  -0.426593
    H   H25   0.924610  0.657150  0.406760  0.129035
    H   H26   0.930190  0.598780  0.401110  0.155103
    H   H27   0.860770  0.593480  0.342910  0.129472
    C   C90   0.900280  0.394940  0.604960  -0.423464
    H   H28   0.860680  0.342800  0.593240  0.129627
    H   H29   0.930270  0.401170  0.598900  0.154144
    H   H30   0.924330  0.406470  0.657080  0.127460
    C   C91   0.599650  0.604990  0.394980  -0.425245
    H   H31   0.575400  0.593290  0.342840  0.128564
    H   H32   0.569820  0.598930  0.401210  0.154538
    H   H33   0.639260  0.657120  0.406530  0.129554
    C   C92   0.599640  0.394990  0.604970  -0.427494
    H   H34   0.639240  0.406690  0.657110  0.130584
    H   H35   0.569660  0.401050  0.598740  0.154677
    H   H36   0.575580  0.342860  0.593420  0.128790
    C   C93   0.099630  0.604940  0.395010  -0.426036
    H   H37   0.075380  0.593220  0.342870  0.128650
    H   H38   0.069800  0.598870  0.401240  0.155765
    H   H39   0.139230  0.657070  0.406540  0.129623
    C   C94   0.099730  0.395020  0.605080  -0.425338
    H   H40   0.139330  0.406740  0.657210  0.130139
    H   H41   0.069730  0.401070  0.598850  0.153976
    H   H42   0.075680  0.342890  0.593550  0.128016
    C   C95   0.400350  0.605010  0.395020  -0.426307
    H   H43   0.424590  0.657160  0.406720  0.128830
    H   H44   0.430170  0.598780  0.401080  0.154300
    H   H45   0.360740  0.593460  0.342890  0.129725
    C   C96   0.400360  0.395020  0.605020  -0.424550
    H   H46   0.360770  0.342880  0.593320  0.129723
    H   H47   0.430350  0.401250  0.598950  0.154265
    H   H48   0.424430  0.406580  0.657140  0.127999
    C   C97   0.194010  0.725630  0.499770  -0.139844
    H   H49   0.239230  0.739560  0.544910  0.038078
    H   H50   0.161910  0.671060  0.499670  0.076541
    H   H51   0.194260  0.739890  0.454670  0.032142
    C   C98   0.031630  0.725680  0.500210  -0.144028
    H   H52   0.000410  0.739760  0.455080  0.034350
    H   H53   0.009150  0.671100  0.500310  0.080192
    H   H54   0.045560  0.739790  0.545310  0.039243
    C   C99   0.468360  0.274310  0.499780  -0.145566
    H   H55   0.454390  0.260380  0.454540  0.039521
    H   H56   0.490960  0.328890  0.499920  0.081400
    H   H57   0.499480  0.260050  0.544780  0.034715
    C   C100  0.306020  0.274330  0.500320  -0.139990
    H   H58   0.305970  0.260250  0.545540  0.032262
    H   H59   0.338000  0.328910  0.500190  0.076922
    H   H60   0.260710  0.260230  0.455300  0.037837
    C   C101  0.806080  0.274390  0.500340  -0.140087
    H   H61   0.806030  0.260290  0.545560  0.032273
    H   H62   0.838070  0.328960  0.500220  0.076755
    H   H63   0.760770  0.260290  0.455320  0.037852
    C   C102  0.968410  0.274320  0.499830  -0.144954
    H   H64   0.954450  0.260390  0.454600  0.039418
    H   H65   0.991020  0.328900  0.499980  0.081016
    H   H66   0.999530  0.260040  0.544830  0.034727
    C   C103  0.531610  0.725700  0.500130  -0.144785
    H   H67   0.500400  0.739790  0.455000  0.034720
    H   H68   0.509120  0.671120  0.500220  0.080516
    H   H69   0.545530  0.739810  0.545230  0.039413
    C   C104  0.694010  0.725660  0.499730  -0.139491
    H   H70   0.739230  0.739590  0.544870  0.037808
    H   H71   0.661900  0.671090  0.499610  0.076600
    H   H72   0.694270  0.739930  0.454630  0.032134
    C   C105  0.194190  0.500110  0.725670  -0.142561
    H   H73   0.194360  0.454970  0.739760  0.033024
    H   H74   0.162180  0.500190  0.671100  0.076401
    H   H75   0.239460  0.545220  0.739760  0.038927
    C   C106  0.031370  0.499670  0.725710  -0.148646
    H   H76   0.045200  0.544810  0.739630  0.039979
    H   H77   0.008780  0.499550  0.671130  0.083457
    H   H78   0.000280  0.454570  0.739980  0.035742
    C   C107  0.468640  0.500330  0.274320  -0.145974
    H   H79   0.499820  0.545560  0.260230  0.034972
    H   H80   0.491100  0.500220  0.328900  0.081919
    H   H81   0.454840  0.455320  0.260220  0.039442
    C   C108  0.305760  0.499800  0.274340  -0.143246
    H   H82   0.260560  0.454560  0.260410  0.039107
    H   H83   0.337870  0.499940  0.328910  0.076921
    H   H84   0.305370  0.544810  0.260070  0.033256
    C   C109  0.806110  0.500410  0.274340  -0.144222
    H   H85   0.760930  0.455180  0.260450  0.038670
    H   H86   0.838250  0.500580  0.328910  0.079184
    H   H87   0.805740  0.545420  0.260050  0.033483
    C   C110  0.968860  0.500730  0.274260  -0.147465
    H   H88   0.000020  0.545930  0.260140  0.035281
    H   H89   0.991360  0.500660  0.328840  0.083373
    H   H90   0.955040  0.455690  0.260190  0.039592
    C   C111  0.531500  0.499910  0.725680  -0.144487
    H   H91   0.545350  0.545080  0.739580  0.039076
    H   H92   0.508880  0.499740  0.671110  0.081772
    H   H93   0.500420  0.454840  0.739990  0.034629
    C   C112  0.694200  0.500140  0.725640  -0.140457
    H   H94   0.694380  0.454990  0.739760  0.032485
    H   H95   0.662180  0.500190  0.671070  0.075543
    H   H96   0.739480  0.545230  0.739700  0.038475
