data_DB1-Cu2O8N2-irmof14_A-irmof20_A_No31_repeat
_audit_creation_date              2024-02-20
_audit_creation_method            'Materials Studio'
_symmetry_space_group_name_H-M    'P1'
_symmetry_Int_Tables_number       1
_symmetry_cell_setting            triclinic
loop_
_symmetry_equiv_pos_as_xyz
  x,y,z
_cell_length_a                    12.5011
_cell_length_b                    27.3982
_cell_length_c                    13.5342
_cell_angle_alpha                 90.0003
_cell_angle_beta                  89.9971
_cell_angle_gamma                 89.9030
loop_
_atom_site_label
_atom_site_type_symbol
_atom_site_fract_x
_atom_site_fract_y
_atom_site_fract_z
_atom_site_U_iso_or_equiv
_atom_site_adp_type
_atom_site_occupancy
Cu1    Cu    0.50001   0.50000   0.40597   0.00000  Uiso   1.00
Cu2    Cu    0.50001   0.50000   0.59403   0.00000  Uiso   1.00
O1     O     0.63909   0.50003   0.41230   0.00000  Uiso   1.00
O2     O     0.36063   0.50011   0.41232   0.00000  Uiso   1.00
O3     O     0.49970   0.56360   0.41231   0.00000  Uiso   1.00
O4     O     0.50002   0.43654   0.41231   0.00000  Uiso   1.00
O5     O     0.50027   0.43640   0.58769   0.00000  Uiso   1.00
O6     O     0.50002   0.56345   0.58769   0.00000  Uiso   1.00
O7     O     0.36080   0.50003   0.58769   0.00000  Uiso   1.00
O8     O     0.63938   0.49987   0.58768   0.00000  Uiso   1.00
C1     C     0.70063   0.49996   0.49999   0.00000  Uiso   1.00
C2     C     0.29938   0.50004   0.50001   0.00000  Uiso   1.00
C3     C     0.49986   0.59154   0.50000   0.00000  Uiso   1.00
C4     C     0.50015   0.40846   0.50000   0.00000  Uiso   1.00
Cu3    Cu    0.50037   0.95627   0.59405   0.00000  Uiso   1.00
Cu4    Cu    0.49969   0.95627   0.40600   0.00000  Uiso   1.00
O9     O     0.63944   0.95602   0.58727   0.00000  Uiso   1.00
O10    O     0.36098   0.95638   0.58815   0.00000  Uiso   1.00
O11    O     0.50004   0.89267   0.58771   0.00000  Uiso   1.00
O12    O     0.50038   0.01973   0.58771   0.00000  Uiso   1.00
O13    O     0.49998   0.01987   0.41234   0.00000  Uiso   1.00
O14    O     0.49972   0.89282   0.41233   0.00000  Uiso   1.00
O15    O     0.36051   0.95645   0.41278   0.00000  Uiso   1.00
O16    O     0.63908   0.95618   0.41190   0.00000  Uiso   1.00
C5     C     0.70065   0.95600   0.49939   0.00000  Uiso   1.00
C6     C     0.29941   0.95655   0.50065   0.00000  Uiso   1.00
C7     C     0.49988   0.86473   0.50002   0.00000  Uiso   1.00
C8     C     0.50018   0.04781   0.50002   0.00000  Uiso   1.00
C9     C     0.43256   0.53076   0.78789   0.00000  Uiso   1.00
C10    C     0.43586   0.52925   0.89128   0.00000  Uiso   1.00
C11    C     0.37006   0.55927   0.94844   0.00000  Uiso   1.00
H1     H     0.38603   0.55198   0.75563   0.00000  Uiso   1.00
H2     H     0.32354   0.58049   0.91592   0.00000  Uiso   1.00
C12    C     0.56745   0.46923   0.78788   0.00000  Uiso   1.00
C13    C     0.56415   0.47074   0.89127   0.00000  Uiso   1.00
C14    C     0.62995   0.44073   0.94842   0.00000  Uiso   1.00
H3     H     0.61398   0.44801   0.75562   0.00000  Uiso   1.00
H4     H     0.67647   0.41951   0.91591   0.00000  Uiso   1.00
C15    C     0.56745   0.46923   0.21211   0.00000  Uiso   1.00
C16    C     0.56415   0.47074   0.10872   0.00000  Uiso   1.00
C17    C     0.62995   0.44073   0.05156   0.00000  Uiso   1.00
H5     H     0.61398   0.44801   0.24437   0.00000  Uiso   1.00
H6     H     0.67647   0.41951   0.08407   0.00000  Uiso   1.00
C18    C     0.43256   0.53076   0.21212   0.00000  Uiso   1.00
C19    C     0.43586   0.52926   0.10873   0.00000  Uiso   1.00
C20    C     0.37006   0.55927   0.05157   0.00000  Uiso   1.00
H7     H     0.38603   0.55198   0.24438   0.00000  Uiso   1.00
H8     H     0.32354   0.58049   0.08409   0.00000  Uiso   1.00
N1     N     0.50001   0.50000   0.73378   0.00000  Uiso   1.00
C21    C     0.50000   0.50000   0.95123   0.00000  Uiso   1.00
N2     N     0.50000   0.50000   0.26622   0.00000  Uiso   1.00
C22    C     0.50001   0.50000   0.04877   0.00000  Uiso   1.00
C23    C     0.50001   0.67764   0.57838   0.00000  Uiso   1.00
S1     S     0.49966   0.67539   0.38690   0.00000  Uiso   1.00
C24    C     0.49973   0.77863   0.42164   0.00000  Uiso   1.00
S2     S     0.50008   0.78088   0.61312   0.00000  Uiso   1.00
C25    C     0.49987   0.64600   0.50001   0.00000  Uiso   1.00
C26    C     0.49988   0.81027   0.50002   0.00000  Uiso   1.00
C27    C     0.49978   0.72814   0.44951   0.00000  Uiso   1.00
C28    C     0.49996   0.72813   0.55051   0.00000  Uiso   1.00
C29    C     0.50028   0.33292   0.58802   0.00000  Uiso   1.00
C30    C     0.50028   0.28184   0.58371   0.00000  Uiso   1.00
C31    C     0.50040   0.25361   0.66958   0.00000  Uiso   1.00
H9     H     0.50036   0.34885   0.64873   0.00000  Uiso   1.00
H10    H     0.50049   0.26967   0.73029   0.00000  Uiso   1.00
C32    C     0.50003   0.33291   0.41199   0.00000  Uiso   1.00
C33    C     0.50004   0.28184   0.41630   0.00000  Uiso   1.00
C34    C     0.49993   0.25361   0.33044   0.00000  Uiso   1.00
H11    H     0.49995   0.34885   0.35127   0.00000  Uiso   1.00
H12    H     0.49984   0.26967   0.26973   0.00000  Uiso   1.00
C35    C     0.50005   0.12335   0.41200   0.00000  Uiso   1.00
C36    C     0.50006   0.17443   0.41631   0.00000  Uiso   1.00
C37    C     0.49993   0.20266   0.33044   0.00000  Uiso   1.00
H13    H     0.49997   0.10741   0.35129   0.00000  Uiso   1.00
H14    H     0.49985   0.18659   0.26973   0.00000  Uiso   1.00
C38    C     0.50030   0.12336   0.58803   0.00000  Uiso   1.00
C39    C     0.50029   0.17443   0.58372   0.00000  Uiso   1.00
C40    C     0.50041   0.20266   0.66958   0.00000  Uiso   1.00
H15    H     0.50039   0.10742   0.64875   0.00000  Uiso   1.00
H16    H     0.50049   0.18660   0.73030   0.00000  Uiso   1.00
C41    C     0.50015   0.35964   0.50000   0.00000  Uiso   1.00
C42    C     0.50017   0.25223   0.50001   0.00000  Uiso   1.00
C43    C     0.50018   0.09663   0.50002   0.00000  Uiso   1.00
C44    C     0.50017   0.20404   0.50001   0.00000  Uiso   1.00
C45    C     0.88936   0.50005   0.42163   0.00000  Uiso   1.00
S3     S     0.88439   0.49988   0.61310   0.00000  Uiso   1.00
C46    C     0.11065   0.49994   0.57838   0.00000  Uiso   1.00
S4     S     0.11562   0.50012   0.38690   0.00000  Uiso   1.00
C47    C     0.81999   0.49997   0.50000   0.00000  Uiso   1.00
C48    C     0.18002   0.50002   0.50001   0.00000  Uiso   1.00
C49    C     0.00000   0.49995   0.55050   0.00000  Uiso   1.00
C50    C     0.00001   0.50004   0.44950   0.00000  Uiso   1.00
C51    C     0.43153   0.92561   0.21235   0.00000  Uiso   1.00
C52    C     0.43446   0.92711   0.10895   0.00000  Uiso   1.00
C53    C     0.36845   0.89721   0.05200   0.00000  Uiso   1.00
H17    H     0.38512   0.90446   0.24476   0.00000  Uiso   1.00
H18    H     0.32204   0.87606   0.08467   0.00000  Uiso   1.00
C54    C     0.56643   0.98693   0.21193   0.00000  Uiso   1.00
C55    C     0.56275   0.98543   0.10855   0.00000  Uiso   1.00
C56    C     0.62834   0.01534   0.05118   0.00000  Uiso   1.00
H19    H     0.61308   0.00808   0.24404   0.00000  Uiso   1.00
H20    H     0.67499   0.03649   0.08355   0.00000  Uiso   1.00
C57    C     0.56488   0.98693   0.78770   0.00000  Uiso   1.00
C58    C     0.56196   0.98543   0.89110   0.00000  Uiso   1.00
C59    C     0.62797   0.01534   0.94805   0.00000  Uiso   1.00
H21    H     0.61130   0.00808   0.75529   0.00000  Uiso   1.00
H22    H     0.67438   0.03649   0.91539   0.00000  Uiso   1.00
C60    C     0.42998   0.92561   0.78812   0.00000  Uiso   1.00
C61    C     0.43366   0.92712   0.89150   0.00000  Uiso   1.00
C62    C     0.36807   0.89721   0.94887   0.00000  Uiso   1.00
H23    H     0.38333   0.90447   0.75601   0.00000  Uiso   1.00
H24    H     0.32142   0.87606   0.91650   0.00000  Uiso   1.00
N3     N     0.49918   0.95627   0.26625   0.00000  Uiso   1.00
C63    C     0.49838   0.95627   0.04880   0.00000  Uiso   1.00
N4     N     0.49723   0.95627   0.73380   0.00000  Uiso   1.00
C64    C     0.49803   0.95627   0.95125   0.00000  Uiso   1.00
C65    C     0.88966   0.95560   0.57715   0.00000  Uiso   1.00
S5     S     0.88400   0.95579   0.38569   0.00000  Uiso   1.00
C66    C     0.11039   0.95537   0.41969   0.00000  Uiso   1.00
S6     S     0.11605   0.95519   0.61115   0.00000  Uiso   1.00
C67    C     0.82001   0.95579   0.49900   0.00000  Uiso   1.00
C68    C     0.18004   0.95518   0.49784   0.00000  Uiso   1.00
C69    C     0.99984   0.95553   0.44792   0.00000  Uiso   1.00
C70    C     0.00021   0.95544   0.54892   0.00000  Uiso   1.00
O17    O     0.50018   0.66338   0.66983   0.00000  Uiso   1.00
Li1    Li    0.50038   0.69411   0.77989   0.00000  Uiso   1.00
O18    O     0.49957   0.79289   0.33019   0.00000  Uiso   1.00
Li2    Li    0.49936   0.76216   0.22013   0.00000  Uiso   1.00
O19    O     0.85810   0.50013   0.33017   0.00000  Uiso   1.00
Li3    Li    0.92546   0.50024   0.22012   0.00000  Uiso   1.00
O20    O     0.14191   0.49986   0.66983   0.00000  Uiso   1.00
Li4    Li    0.07455   0.49975   0.77989   0.00000  Uiso   1.00
O21    O     0.85874   0.95557   0.66870   0.00000  Uiso   1.00
Li5    Li    0.92650   0.95536   0.77854   0.00000  Uiso   1.00
O22    O     0.14131   0.95540   0.32813   0.00000  Uiso   1.00
Li6    Li    0.07355   0.95562   0.21830   0.00000  Uiso   1.00
