# generated using pymatgen
data_CuH4C12N9ClO2
_symmetry_space_group_name_H-M   'P 1'
_cell_length_a   19.47270000
_cell_length_b   7.05280000
_cell_length_c   13.44290000
_cell_angle_alpha   74.79200000
_cell_angle_beta   107.97700000
_cell_angle_gamma   111.23200000
_symmetry_Int_Tables_number   1
_chemical_formula_structural   CuH4C12N9ClO2
_chemical_formula_sum   'Cu2 H8 C24 N18 Cl2 O4'
_cell_volume   1613.10609913
_cell_formula_units_Z   2
loop_
 _symmetry_equiv_pos_site_id
 _symmetry_equiv_pos_as_xyz
  1  'x, y, z'
loop_
 _atom_site_type_symbol
 _atom_site_label
 _atom_site_symmetry_multiplicity
 _atom_site_fract_x
 _atom_site_fract_y
 _atom_site_fract_z
 _atom_site_occupancy
  Cu  Cu1  1  0.50000000  0.00000000  0.50000000  1
  Cu  Cu2  1  0.50000000  0.50000000  0.50000000  1
  H  H1  1  0.49993000  0.16669000  0.09059000  1
  H  H2  1  0.50007000  0.83332000  0.90941000  1
  H  H3  1  0.22983000  0.31544000  0.22961000  1
  H  H4  1  0.10808000  0.25420000  0.10799000  1
  H  H5  1  0.22984000  0.91468000  0.22951000  1
  H  H6  1  0.77018000  0.08536000  0.77041000  1
  H  H7  1  0.77017000  0.68452000  0.77042000  1
  H  H8  1  0.89193000  0.74575000  0.89203000  1
  C  C1  1  0.68539000  0.34250000  0.68575000  1
  C  C2  1  0.49982000  0.39031000  0.21904000  1
  C  C3  1  0.31461000  0.65750000  0.31425000  1
  C  C4  1  0.50018000  0.60970000  0.78096000  1
  C  C5  1  0.50009000  0.55406000  0.89205000  1
  C  C6  1  0.49991000  0.44594000  0.10795000  1
  C  C7  1  0.50004000  0.35678000  0.94640000  1
  C  C8  1  0.49996000  0.64322000  0.05360000  1
  C  C9  1  0.49996000  0.30310000  0.05360000  1
  C  C10  1  0.50004000  0.69691000  0.94640000  1
  C  C11  1  0.24245000  0.62138000  0.24216000  1
  C  C12  1  0.20495000  0.43054000  0.20473000  1
  C  C13  1  0.13324000  0.39413000  0.13310000  1
  C  C14  1  0.09691000  0.54851000  0.09677000  1
  C  C15  1  0.13324000  0.73927000  0.13304000  1
  C  C16  1  0.20495000  0.77466000  0.20467000  1
  C  C17  1  0.03045000  0.51522000  0.03039000  1
  C  C18  1  0.96956000  0.48473000  0.96957000  1
  C  C19  1  0.90311000  0.45147000  0.90319000  1
  C  C20  1  0.86677000  0.26074000  0.86689000  1
  C  C21  1  0.79506000  0.22535000  0.79527000  1
  C  C22  1  0.75756000  0.37862000  0.75782000  1
  C  C23  1  0.79506000  0.56943000  0.79527000  1
  C  C24  1  0.86677000  0.60584000  0.86690000  1
  N  N1  1  0.58520000  0.19927000  0.58424000  1
  N  N2  1  0.64779000  0.16658000  0.64820000  1
  N  N3  1  0.50066000  0.40865000  0.37162000  1
  N  N4  1  0.49978000  0.51891000  0.27594000  1
  N  N5  1  0.41480000  0.61313000  0.41576000  1
  N  N6  1  0.35221000  0.51923000  0.35180000  1
  N  N7  1  0.49934000  0.77895000  0.62838000  1
  N  N8  1  0.50022000  0.79529000  0.72406000  1
  N  N9  1  0.41480000  0.80073000  0.41576000  1
  N  N10  1  0.35221000  0.83343000  0.35180000  1
  N  N11  1  0.49934000  0.59135000  0.62838000  1
  N  N12  1  0.50022000  0.48109000  0.72406000  1
  N  N13  1  0.58520000  0.38687000  0.58424000  1
  N  N14  1  0.64779000  0.48078000  0.64820000  1
  N  N15  1  0.50066000  0.22105000  0.37162000  1
  N  N16  1  0.49978000  0.20471000  0.27594000  1
  N  N17  1  0.09614000  0.90850000  0.09593000  1
  N  N18  1  0.90389000  0.09152000  0.90396000  1
  Cl  Cl1  1  0.50010000  0.17462000  0.87859000  1
  Cl  Cl2  1  0.49990000  0.82538000  0.12141000  1
  O  O1  1  0.01439000  0.85772000  0.08934000  1
  O  O2  1  0.14165000  0.12450000  0.06630000  1
  O  O3  1  0.94197000  0.04541000  0.01706000  1
  O  O4  1  0.90205000  0.97244000  0.82704000  1
