# generated using pymatgen
data_LiZn2H9C24N6O17
_symmetry_space_group_name_H-M   'P 1'
_cell_length_a   11.00490000
_cell_length_b   36.55940000
_cell_length_c   10.00000000
_cell_angle_alpha   90.00000000
_cell_angle_beta   90.00000000
_cell_angle_gamma   107.33700000
_symmetry_Int_Tables_number   1
_chemical_formula_structural   LiZn2H9C24N6O17
_chemical_formula_sum   'Li2 Zn4 H18 C48 N12 O34'
_cell_volume   3840.53996020
_cell_formula_units_Z   2
loop_
 _symmetry_equiv_pos_site_id
 _symmetry_equiv_pos_as_xyz
  1  'x, y, z'
loop_
 _atom_site_type_symbol
 _atom_site_label
 _atom_site_symmetry_multiplicity
 _atom_site_fract_x
 _atom_site_fract_y
 _atom_site_fract_z
 _atom_site_occupancy
  Li  Li1  1  0.94322000  0.50029000  0.88189000  1
  Li  Li2  1  0.43886000  0.99946000  0.02039000  1
  Zn  Zn1  1  0.50004000  0.50011000  0.66577000  1
  Zn  Zn2  1  0.50000000  0.49989000  0.33423000  1
  Zn  Zn3  1  0.99633000  0.99991000  0.23657000  1
  Zn  Zn4  1  0.99675000  0.00013000  0.56810000  1
  H  H1  1  0.87461000  0.87693000  0.61823000  1
  H  H2  1  0.80447000  0.80631000  0.61715000  1
  H  H3  1  0.69261000  0.69366000  0.71491000  1
  H  H4  1  0.69265000  0.69371000  0.28519000  1
  H  H5  1  0.11864000  0.12305000  0.61785000  1
  H  H6  1  0.19022000  0.19368000  0.61698000  1
  H  H7  1  0.30419000  0.30630000  0.71507000  1
  H  H8  1  0.30494000  0.30634000  0.28535000  1
  H  H9  1  0.10798000  0.50019000  0.70421000  1
  H  H10  1  0.08313000  0.47464000  0.20023000  1
  H  H11  1  0.13330000  0.52490000  0.20052000  1
  H  H12  1  0.91621000  0.52483000  0.19978000  1
  H  H13  1  0.86606000  0.47456000  0.20111000  1
  H  H14  1  0.60375000  0.99947000  0.19805000  1
  H  H15  1  0.62969000  0.02501000  0.70204000  1
  H  H16  1  0.58003000  0.97475000  0.70174000  1
  H  H17  1  0.36322000  0.97496000  0.70251000  1
  H  H18  1  0.41289000  0.02522000  0.70118000  1
  C  C1  1  0.26312000  0.50010000  0.49992000  1
  C  C2  1  0.57452000  0.57474000  0.49974000  1
  C  C3  1  0.73689000  0.49987000  0.50008000  1
  C  C4  1  0.42511000  0.42526000  0.50026000  1
  C  C5  1  0.75959000  0.00007000  0.40244000  1
  C  C6  1  0.92260000  0.92528000  0.40259000  1
  C  C7  1  0.23352000  0.00000000  0.40222000  1
  C  C8  1  0.07005000  0.07476000  0.40207000  1
  C  C9  1  0.88013000  0.88251000  0.40252000  1
  C  C10  1  0.85960000  0.86183000  0.52364000  1
  C  C11  1  0.81972000  0.82166000  0.52325000  1
  C  C12  1  0.79955000  0.80136000  0.40193000  1
  C  C13  1  0.81979000  0.82175000  0.28137000  1
  C  C14  1  0.85966000  0.86190000  0.28129000  1
  C  C15  1  0.67733000  0.67827000  0.62097000  1
  C  C16  1  0.69757000  0.69866000  0.50041000  1
  C  C17  1  0.67741000  0.67836000  0.37908000  1
  C  C18  1  0.63752000  0.63819000  0.37870000  1
  C  C19  1  0.61699000  0.61751000  0.49981000  1
  C  C20  1  0.63746000  0.63812000  0.62104000  1
  C  C21  1  0.11340000  0.11752000  0.40213000  1
  C  C22  1  0.13413000  0.13818000  0.52330000  1
  C  C23  1  0.17483000  0.17834000  0.52304000  1
  C  C24  1  0.19563000  0.19867000  0.40178000  1
  C  C25  1  0.17520000  0.17831000  0.28115000  1
  C  C26  1  0.13451000  0.13817000  0.28096000  1
  C  C27  1  0.31996000  0.32171000  0.62118000  1
  C  C28  1  0.29953000  0.30135000  0.50056000  1
  C  C29  1  0.32033000  0.32168000  0.37930000  1
  C  C30  1  0.36103000  0.36184000  0.37903000  1
  C  C31  1  0.38176000  0.38250000  0.50021000  1
  C  C32  1  0.36065000  0.36185000  0.62138000  1
  C  C33  1  0.13274000  0.50004000  0.49996000  1
  C  C34  1  0.86727000  0.49993000  0.50004000  1
  C  C35  1  0.06614000  0.49992000  0.39436000  1
  C  C36  1  0.93387000  0.50005000  0.60564000  1
  C  C37  1  0.93364000  0.49987000  0.39441000  1
  C  C38  1  0.06637000  0.50010000  0.60560000  1
  C  C39  1  0.06315000  0.49980000  0.24416000  1
  C  C40  1  0.93630000  0.49974000  0.24420000  1
  C  C41  1  0.62879000  0.99960000  0.40230000  1
  C  C42  1  0.36371000  0.99987000  0.40225000  1
  C  C43  1  0.56248000  0.99975000  0.50791000  1
  C  C44  1  0.43003000  0.99971000  0.29664000  1
  C  C45  1  0.43017000  0.99989000  0.50788000  1
  C  C46  1  0.56233000  0.99957000  0.29667000  1
  C  C47  1  0.55977000  0.99988000  0.65811000  1
  C  C48  1  0.43309000  0.00001000  0.65809000  1
  N  N1  1  0.75869000  0.76022000  0.39829000  1
  N  N2  1  0.73843000  0.73980000  0.50405000  1
  N  N3  1  0.23734000  0.23982000  0.39826000  1
  N  N4  1  0.25782000  0.26020000  0.50408000  1
  N  N5  1  0.88065000  0.88305000  0.14935000  1
  N  N6  1  0.79844000  0.80025000  0.15012000  1
  N  N7  1  0.61647000  0.61697000  0.75298000  1
  N  N8  1  0.61658000  0.61711000  0.24664000  1
  N  N9  1  0.11333000  0.11705000  0.14896000  1
  N  N10  1  0.19723000  0.19984000  0.14997000  1
  N  N11  1  0.38183000  0.38297000  0.75338000  1
  N  N12  1  0.38265000  0.38296000  0.24703000  1
  O  O1  1  0.32502000  0.50034000  0.63580000  1
  O  O2  1  0.32482000  0.49997000  0.36399000  1
  O  O3  1  0.55507000  0.55516000  0.36380000  1
  O  O4  1  0.55529000  0.55537000  0.63562000  1
  O  O5  1  0.67509000  0.49973000  0.36420000  1
  O  O6  1  0.67515000  0.49996000  0.63601000  1
  O  O7  1  0.44473000  0.44484000  0.63620000  1
  O  O8  1  0.44496000  0.44464000  0.36438000  1
  O  O9  1  0.82096000  0.99979000  0.26656000  1
  O  O10  1  0.82153000  0.00016000  0.53836000  1
  O  O11  1  0.94205000  0.94486000  0.53853000  1
  O  O12  1  0.94184000  0.94466000  0.26672000  1
  O  O13  1  0.17205000  0.00018000  0.53812000  1
  O  O14  1  0.17162000  0.99995000  0.26631000  1
  O  O15  1  0.05077000  0.05518000  0.26614000  1
  O  O16  1  0.05145000  0.05538000  0.53795000  1
  O  O17  1  0.99359000  0.91677000  0.13068000  1
  O  O18  1  0.78821000  0.86996000  0.03922000  1
  O  O19  1  0.68545000  0.76648000  0.13254000  1
  O  O20  1  0.89058000  0.81304000  0.03956000  1
  O  O21  1  0.66238000  0.58320000  0.77165000  1
  O  O22  1  0.55006000  0.63010000  0.86312000  1
  O  O23  1  0.50364000  0.58339000  0.22778000  1
  O  O24  1  0.70906000  0.63024000  0.13657000  1
  O  O25  1  0.99990000  0.08349000  0.13003000  1
  O  O26  1  0.20608000  0.13000000  0.03902000  1
  O  O27  1  0.31078000  0.23346000  0.13264000  1
  O  O28  1  0.10519000  0.18724000  0.03922000  1
  O  O29  1  0.33673000  0.41690000  0.77199000  1
  O  O30  1  0.44760000  0.36965000  0.86363000  1
  O  O31  1  0.49614000  0.41652000  0.22843000  1
  O  O32  1  0.29026000  0.37001000  0.13678000  1
  O  O33  1  0.88441000  0.50013000  0.72343000  1
  O  O34  1  0.38042000  0.99966000  0.17886000  1
