# Generated by REPEAT Assigner based on pymatgen
data_DB10-dia_sym_4_mc_si__L_5
_audit_creation_date              2022-05-24
_audit_creation_method            REPEAT_Assigner
_cell_length_a                    37.440500
_cell_length_b                    33.567200
_cell_length_c                    33.511800
_cell_angle_alpha                 90.000000
_cell_angle_beta                  90.000000
_cell_angle_gamma                 90.000000
_cell_volume                      42116.717097
_symmetry_space_group_name_H-M    P1
_symmetry_Int_Tables_number       1
loop_
    _symmetry_equiv_pos_site_id
    _symmetry_equiv_pos_as_xyz
    1  x,y,z
loop_
    _atom_site_type_symbol
    _atom_site_label
    _atom_site_fract_x
    _atom_site_fract_y
    _atom_site_fract_z
    _atom_type_partial_charge
    C   C1    0.029400  0.071660  0.029120  -0.080768
    C   C2    0.530600  0.574630  0.026000  -0.091871
    C   C3    0.553560  0.597740  0.049360  -0.300864
    C   C4    0.577920  0.579480  0.075430  0.608470
    C   C5    0.579070  0.537750  0.077650  -0.316286
    C   C6    0.052910  0.094800  0.051730  -0.319651
    C   C7    0.556090  0.514670  0.054320  -0.036185
    C   C8    0.602260  0.603970  0.100190  -0.501161
    C   C9    0.588290  0.632330  0.126850  0.313194
    C   C10   0.611600  0.655630  0.150730  0.340318
    C   C11   0.648800  0.650510  0.147830  -0.492514
    C   C12   0.662780  0.622200  0.121090  0.297612
    C   C13   0.639460  0.598880  0.097240  0.351518
    C   C14   0.673170  0.674750  0.172830  0.610216
    C   C15   0.671920  0.716520  0.171230  -0.309362
    C   C16   0.694940  0.739310  0.194790  -0.055321
    C   C17   0.077980  0.076590  0.076980  0.610333
    C   C18   0.720720  0.679010  0.222040  -0.079973
    C   C19   0.697690  0.656190  0.198510  -0.315772
    C   C20   0.079310  0.034840  0.079080  -0.331750
    C   C21   0.970220  0.471320  0.569560  -0.070223
    C   C22   0.947220  0.447810  0.592450  -0.348324
    C   C23   0.055800  0.011730  0.056460  -0.026043
    C   C24   0.922810  0.422040  0.573920  0.629511
    C   C25   0.921630  0.420250  0.532110  -0.331825
    C   C26   0.944620  0.443740  0.509200  0.025164
    C   C27   0.898390  0.397250  0.598300  -0.553994
    C   C28   0.861190  0.400470  0.593350  0.423502
    C   C29   0.837810  0.377050  0.617030  0.307177
    C   C30   0.851720  0.350490  0.645550  -0.570027
    C   C31   0.888920  0.347150  0.650370  0.427462
    C   C32   0.912300  0.370590  0.626700  0.281124
    C   C33   0.827290  0.326310  0.670550  0.624490
    C   C34   0.102780  0.101170  0.101090  -0.502227
    C   C35   0.829010  0.328630  0.712330  -0.336505
    C   C36   0.805960  0.305870  0.735890  0.015410
    C   C37   0.779180  0.278020  0.676330  -0.112662
    C   C38   0.802240  0.300760  0.652740  -0.327108
    C   C39   0.089270  0.129660  0.127920  0.290448
    C   C40   0.112990  0.153250  0.151000  0.416869
    C   C41   0.972220  0.972170  0.073430  -0.103706
    C   C42   0.948810  0.949470  0.096630  -0.338542
    C   C43   0.924010  0.923920  0.078440  0.622915
    C   C44   0.922890  0.921500  0.036650  -0.331808
    C   C45   0.946270  0.944190  0.013440  0.017736
    C   C46   0.899140  0.899930  0.103050  -0.566657
    C   C47   0.862020  0.903490  0.097630  0.419437
    C   C48   0.838210  0.880370  0.121060  0.311512
    C   C49   0.851610  0.853780  0.149850  -0.570365
    C   C50   0.888730  0.850270  0.155330  0.420977
    C   C51   0.150130  0.148250  0.147170  -0.562700
    C   C52   0.912540  0.873400  0.131900  0.302826
    C   C53   0.826740  0.829460  0.174140  0.613336
    C   C54   0.827680  0.831460  0.215970  -0.332739
    C   C55   0.804340  0.808330  0.238820  0.025001
    C   C56   0.778800  0.780810  0.178440  -0.110723
    C   C57   0.802140  0.803920  0.155560  -0.322139
    C   C58   0.163650  0.119740  0.120360  0.336701
    C   C59   0.139930  0.096160  0.097270  0.336583
    C   C60   0.469560  0.971790  0.574480  -0.111165
    C   C61   0.446200  0.948390  0.597040  -0.314428
    C   C62   0.421720  0.922940  0.578150  0.609459
    C   C63   0.420850  0.921390  0.536320  -0.339084
    C   C64   0.444190  0.944760  0.513740  0.002728
    C   C65   0.397030  0.898080  0.602120  -0.523164
    C   C66   0.373750  0.915990  0.629770  0.350209
    C   C67   0.350230  0.892160  0.652850  0.324411
    C   C68   0.174890  0.172830  0.171330  0.632407
    C   C69   0.350060  0.850510  0.648180  -0.536023
    C   C70   0.373280  0.832610  0.620480  0.368822
    C   C71   0.396810  0.856440  0.597400  0.307894
    C   C72   0.325600  0.825630  0.672420  0.609023
    C   C73   0.326910  0.827180  0.714250  -0.337359
    C   C74   0.303880  0.803700  0.737100  0.001027
    C   C75   0.277930  0.776640  0.676720  -0.113878
    C   C76   0.300990  0.800100  0.653830  -0.305632
    C   C77   0.173540  0.214570  0.169220  -0.335757
    C   C78   0.196700  0.237710  0.192260  0.008682
    C   C79   0.473310  0.527550  0.925750  -0.098541
    C   C80   0.449650  0.550320  0.902940  -0.318915
    C   C81   0.425150  0.575940  0.921540  0.635215
    C   C82   0.424590  0.578360  0.963330  -0.319875
    C   C83   0.448240  0.555620  0.986150  -0.004339
    C   C84   0.400010  0.599970  0.897310  -0.559856
    C   C85   0.362940  0.596360  0.903190  0.417231
    C   C86   0.338880  0.619390  0.879980  0.285484
    C   C87   0.351970  0.645970  0.851000  -0.498643
    C   C88   0.389040  0.649570  0.845130  0.331527
    C   C89   0.413100  0.626520  0.868320  0.337639
    C   C90   0.326840  0.670090  0.826820  0.609026
    C   C91   0.327630  0.668050  0.784980  -0.315831
    C   C92   0.304120  0.691040  0.762220  -0.034614
    C   C93   0.278640  0.718460  0.822690  -0.111092
    C   C94   0.222880  0.177810  0.219930  -0.085801
    C   C95   0.302170  0.695500  0.845480  -0.303601
    C   C96   0.199730  0.154630  0.196870  -0.320456
    C   C97   0.469590  0.028420  0.429760  -0.115522
    C   C98   0.446810  0.051800  0.406450  -0.301905
    C   C99   0.422110  0.077550  0.424570  0.620950
    C   C100  0.420450  0.079440  0.466380  -0.326947
    C   C101  0.443240  0.056060  0.489650  -0.035242
    C   C102  0.397920  0.102250  0.399830  -0.511199
    C   C103  0.360680  0.099090  0.404430  0.346628
    C   C104  0.337510  0.122710  0.380690  0.306931
    C   C105  0.351660  0.149400  0.352450  -0.537468
    C   C106  0.388900  0.152570  0.347860  0.396076
    C   C107  0.412080  0.128940  0.371590  0.303753
    C   C108  0.327450  0.174020  0.327650  0.633942
    C   C109  0.329170  0.172100  0.285850  -0.324421
    C   C110  0.306240  0.195230  0.262510  0.001370
    C   C111  0.279620  0.222700  0.322340  -0.057784
    C   C112  0.302560  0.199590  0.345710  -0.339216
    C   C113  0.969630  0.526970  0.426770  -0.046390
    C   C114  0.946450  0.550560  0.404170  -0.355270
    C   C115  0.922140  0.576220  0.423020  0.636154
    C   C116  0.921210  0.577780  0.464850  -0.328571
    C   C117  0.944370  0.554220  0.487460  0.010018
    C   C118  0.897630  0.601240  0.399000  -0.570653
    C   C119  0.860460  0.598200  0.404300  0.415546
    C   C120  0.837000  0.622080  0.381190  0.314736
    C   C121  0.850800  0.648920  0.352860  -0.563486
    C   C122  0.887980  0.652000  0.347610  0.411874
    C   C123  0.911430  0.628100  0.370710  0.302931
    C   C124  0.826290  0.673750  0.328630  0.641563
    C   C125  0.827510  0.672150  0.286790  -0.340643
    C   C126  0.804390  0.695560  0.263980  0.017760
    C   C127  0.778540  0.722640  0.324400  -0.105518
    C   C128  0.801670  0.699250  0.347250  -0.326667
    C   C129  0.552900  0.986970  0.447370  0.002878
    C   C130  0.576340  0.964320  0.424200  -0.332150
    C   C131  0.575390  0.922550  0.425930  0.609137
    C   C132  0.550740  0.903830  0.451340  -0.294018
    C   C133  0.527290  0.926520  0.474500  -0.131267
    C   C134  0.600200  0.898520  0.401290  -0.512013
    C   C135  0.623440  0.871050  0.419490  0.350044
    C   C136  0.647200  0.848060  0.395870  0.306281
    C   C137  0.647650  0.852630  0.354140  -0.508025
    C   C138  0.624400  0.880100  0.335950  0.339053
    C   C139  0.600640  0.903080  0.359560  0.321051
    C   C140  0.672440  0.828600  0.329480  0.620623
    C   C141  0.697090  0.847320  0.304080  -0.324253
    C   C142  0.720410  0.824620  0.280750  -0.060828
    C   C143  0.694680  0.764170  0.307740  0.017884
    C   C144  0.671390  0.786820  0.331090  -0.339892
    C   C145  0.555990  0.489960  0.943580  0.008910
    C   C146  0.579580  0.467100  0.920790  -0.346607
    C   C147  0.578580  0.425360  0.922810  0.633459
    C   C148  0.553750  0.406870  0.948130  -0.313382
    C   C149  0.530120  0.429710  0.970900  -0.080561
    C   C150  0.603480  0.401050  0.898540  -0.548085
    C   C151  0.626520  0.373640  0.917120  0.358963
    C   C152  0.650140  0.350120  0.893840  0.326283
    C   C153  0.650630  0.354110  0.852050  -0.537287
    C   C154  0.627640  0.381590  0.833470  0.353146
    C   C155  0.604030  0.405120  0.856760  0.334859
    C   C156  0.675110  0.329330  0.827710  0.640424
    C   C157  0.699800  0.347290  0.801810  -0.322799
    C   C158  0.722720  0.323890  0.778680  -0.078096
    C   C159  0.696570  0.264250  0.806920  0.012901
    C   C160  0.673650  0.287610  0.830060  -0.350029
    C   C161  0.054210  0.984750  0.944720  0.004732
    C   C162  0.077250  0.961600  0.921530  -0.333217
    C   C163  0.076160  0.919870  0.923930  0.618088
    C   C164  0.051770  0.901690  0.950030  -0.317673
    C   C165  0.028740  0.924880  0.973230  -0.063240
    C   C166  0.100620  0.895320  0.899330  -0.530399
    C   C167  0.123890  0.867950  0.917640  0.351289
    C   C168  0.147410  0.844590  0.894080  0.327902
    C   C169  0.147600  0.848710  0.852300  -0.527944
    C   C170  0.124300  0.876020  0.833990  0.355337
    C   C171  0.100750  0.899370  0.857550  0.318892
    C   C172  0.172290  0.824460  0.827720  0.613766
    C   C173  0.196820  0.842990  0.802040  -0.297374
    C   C174  0.220070  0.820140  0.778790  -0.120063
    C   C175  0.194530  0.759870  0.806410  -0.016317
    C   C176  0.171300  0.782700  0.829690  -0.320820
    C   C177  0.027130  0.571990  0.526990  -0.070149
    C   C178  0.970740  0.026730  0.928150  -0.088598
    C   C179  0.947680  0.049980  0.905060  -0.334304
    C   C180  0.923410  0.076090  0.923410  0.635101
    C   C181  0.922480  0.078460  0.965220  -0.335809
    C   C182  0.050610  0.594670  0.550120  -0.337980
    C   C183  0.945520  0.055180  0.988260  0.023905
    C   C184  0.898940  0.100740  0.898930  -0.556868
    C   C185  0.861780  0.098110  0.904530  0.408705
    C   C186  0.838350  0.121780  0.881150  0.317790
    C   C187  0.852180  0.147980  0.852260  -0.564331
    C   C188  0.889340  0.150600  0.846650  0.406839
    C   C189  0.912770  0.126930  0.870020  0.310742
    C   C190  0.827700  0.172700  0.827870  0.625396
    C   C191  0.828580  0.170450  0.786050  -0.329270
    C   C192  0.805450  0.193740  0.763110  0.012473
    C   C193  0.075470  0.575950  0.575260  0.636779
    C   C194  0.780280  0.221980  0.823350  -0.085529
    C   C195  0.803430  0.198730  0.846330  -0.325299
    C   C196  0.076650  0.534180  0.576680  -0.335158
    C   C197  0.472750  0.472850  0.070870  -0.118101
    C   C198  0.449480  0.449940  0.094030  -0.322884
    C   C199  0.053190  0.511530  0.553530  0.018710
    C   C200  0.424670  0.424420  0.075760  0.623654
    C   C201  0.423400  0.422330  0.033940  -0.344460
    C   C202  0.446660  0.445260  0.010820  0.027575
    C   C203  0.400000  0.400110  0.100320  -0.573009
    C   C204  0.362850  0.403470  0.095080  0.432345
    C   C205  0.339240  0.380060  0.118490  0.275924
    C   C206  0.352880  0.353400  0.147060  -0.535579
    C   C207  0.390030  0.350090  0.152360  0.402997
    C   C208  0.413640  0.373490  0.128940  0.318423
    C   C209  0.328230  0.328830  0.171380  0.614318
    C   C210  0.100230  0.600020  0.599930  -0.562088
    C   C211  0.329260  0.330770  0.213210  -0.329839
    C   C212  0.306040  0.307520  0.236080  0.038079
    C   C213  0.280480  0.279950  0.175720  -0.065757
    C   C214  0.303690  0.303190  0.152820  -0.342198
    C   C215  0.086670  0.628170  0.627100  0.320601
    C   C216  0.110350  0.651240  0.650740  0.349823
    C   C217  0.052890  0.486890  0.442080  0.022485
    C   C218  0.076450  0.464370  0.418940  -0.326984
    C   C219  0.075520  0.422590  0.420470  0.607598
    C   C220  0.050750  0.403750  0.445630  -0.335754
    C   C221  0.027190  0.426310  0.468770  -0.074905
    C   C222  0.100540  0.398640  0.396020  -0.529040
    C   C223  0.137630  0.404060  0.399910  0.394030
    C   C224  0.161590  0.381020  0.376580  0.299609
    C   C225  0.148360  0.352630  0.349460  -0.542746
    C   C226  0.111260  0.347260  0.345530  0.405692
    C   C227  0.147500  0.646090  0.647130  -0.524731
    C   C228  0.087300  0.370310  0.368850  0.286279
    C   C229  0.173370  0.328420  0.325260  0.622958
    C   C230  0.198300  0.346960  0.300070  -0.342195
    C   C231  0.221840  0.324090  0.277200  -0.057862
    C   C232  0.195830  0.263840  0.304270  0.030261
    C   C233  0.172290  0.286660  0.327140  -0.335910
    C   C234  0.161060  0.617930  0.619980  0.314396
    C   C235  0.137370  0.594860  0.596330  0.419925
    C   C236  0.172220  0.670240  0.671770  0.603507
    C   C237  0.170980  0.712010  0.670240  -0.331182
    C   C238  0.194220  0.734750  0.693570  -0.022534
    C   C239  0.220250  0.674400  0.720420  -0.116696
    C   C240  0.197000  0.651610  0.697090  -0.300849
    C   C241  0.526620  0.072500  0.532280  -0.124962
    C   C242  0.550060  0.095440  0.555200  -0.293537
    C   C243  0.575150  0.077000  0.580270  0.604724
    C   C244  0.576480  0.035240  0.581990  -0.323079
    C   C245  0.553050  0.012330  0.559060  -0.049917
    C   C246  0.600120  0.101350  0.604410  -0.507355
    C   C247  0.586820  0.129750  0.631470  0.323084
    C   C248  0.610730  0.153130  0.654510  0.345692
    C   C249  0.647840  0.148020  0.650420  -0.497450
    C   C250  0.661140  0.119600  0.623390  0.305555
    C   C251  0.637230  0.096230  0.600320  0.339357
    C   C252  0.672810  0.172450  0.674440  0.615426
    C   C253  0.671680  0.214200  0.672280  -0.321452
    C   C254  0.695250  0.237200  0.694950  -0.030622
    C   C255  0.721320  0.177150  0.722420  -0.091253
    C   C256  0.697780  0.154110  0.699730  -0.306522
    C   C257  0.531440  0.532940  0.028680  -0.195468
    C   C258  0.719720  0.720710  0.220000  -0.185530
    C   C259  0.969390  0.469130  0.527730  -0.224105
    C   C260  0.780690  0.280750  0.718040  -0.184680
    C   C261  0.971380  0.969390  0.031640  -0.177423
    C   C262  0.779570  0.783150  0.220200  -0.192099
    C   C263  0.469010  0.969810  0.532630  -0.193565
    C   C264  0.279030  0.778600  0.718490  -0.191678
    C   C265  0.473080  0.530360  0.967570  -0.204490
    C   C266  0.221670  0.219480  0.217510  -0.210706
    C   C267  0.279310  0.716120  0.780930  -0.174088
    C   C268  0.468180  0.030730  0.471500  -0.183146
    C   C269  0.281090  0.220340  0.280600  -0.232254
    C   C270  0.969060  0.528970  0.468610  -0.229595
    C   C271  0.779540  0.720630  0.282630  -0.207711
    C   C272  0.527970  0.968240  0.472320  -0.196721
    C   C273  0.719540  0.782920  0.282720  -0.242481
    C   C274  0.530760  0.471470  0.968430  -0.237307
    C   C275  0.721430  0.282240  0.781370  -0.234468
    C   C276  0.029570  0.966550  0.970390  -0.238699
    C   C277  0.219260  0.778450  0.781110  -0.201115
    C   C278  0.027970  0.530270  0.528930  -0.221117
    C   C279  0.970040  0.029500  0.969890  -0.209958
    C   C280  0.780930  0.219310  0.781610  -0.213707
    C   C281  0.471750  0.470320  0.029120  -0.181536
    C   C282  0.281310  0.282270  0.217480  -0.233234
    C   C283  0.027850  0.468040  0.466800  -0.218519
    C   C284  0.220940  0.282400  0.279450  -0.236849
    C   C285  0.219200  0.716100  0.718510  -0.153700
    C   C286  0.527760  0.030800  0.534360  -0.150098
    C   C287  0.720410  0.218830  0.719850  -0.190482
    C   C288  0.030430  0.029980  0.031700  -0.184529
    H   H1    0.512560  0.589500  0.005700  0.074714
    H   H2    0.552620  0.629890  0.046810  0.124981
    H   H3    0.653260  0.731440  0.151560  0.122155
    H   H4    0.693530  0.771510  0.193210  0.074496
    H   H5    0.988200  0.491330  0.584880  0.076246
    H   H6    0.948160  0.450040  0.624680  0.144022
    H   H7    0.848060  0.348240  0.726670  0.136324
    H   H8    0.807760  0.307980  0.768080  0.033422
    H   H9    0.990550  0.992020  0.088450  0.083308
    H   H10   0.949750  0.952160  0.128820  0.146765
    H   H11   0.846390  0.851050  0.230900  0.134175
    H   H12   0.805590  0.810130  0.271060  0.030184
    H   H13   0.487740  0.991390  0.590040  0.089775
    H   H14   0.447290  0.950010  0.629290  0.140807
    H   H15   0.345980  0.846340  0.729170  0.141199
    H   H16   0.305420  0.805150  0.769340  0.036279
    H   H17   0.491320  0.507580  0.910390  0.103028
    H   H18   0.450140  0.547610  0.870740  0.118709
    H   H19   0.346370  0.648560  0.769990  0.114247
    H   H20   0.305280  0.689240  0.729980  0.069885
    H   H21   0.487950  0.008420  0.415000  0.103447
    H   H22   0.448160  0.049510  0.374240  0.115157
    H   H23   0.348120  0.152500  0.271320  0.123925
    H   H24   0.308010  0.193410  0.230300  0.048253
    H   H25   0.010720  0.086500  0.009540  0.070620
    H   H26   0.051790  0.126950  0.049280  0.130281
    H   H27   0.987570  0.507090  0.411230  0.062695
    H   H28   0.947210  0.548500  0.371930  0.144023
    H   H29   0.846230  0.652600  0.271840  0.125916
    H   H30   0.805800  0.694000  0.231730  0.046162
    H   H31   0.154630  0.229190  0.149630  0.128682
    H   H32   0.195130  0.269880  0.190380  0.046665
    H   H33   0.554190  0.019170  0.445800  0.043766
    H   H34   0.595430  0.979350  0.405150  0.126237
    H   H35   0.698340  0.879510  0.302440  0.134617
    H   H36   0.738840  0.839810  0.261130  0.068433
    H   H37   0.557450  0.522150  0.941650  0.046876
    H   H38   0.598830  0.481950  0.901790  0.134932
    H   H39   0.701370  0.379430  0.799590  0.135618
    H   H40   0.741160  0.338510  0.758640  0.076971
    H   H41   0.055620  0.016910  0.942620  0.046763
    H   H42   0.096160  0.976230  0.901950  0.126327
    H   H43   0.198020  0.875170  0.800100  0.115716
    H   H44   0.238370  0.835200  0.758930  0.115957
    H   H45   0.988770  0.006460  0.913250  0.102977
    H   H46   0.948470  0.047320  0.872860  0.124007
    H   H47   0.847030  0.150490  0.771220  0.124767
    H   H48   0.806580  0.191660  0.730880  0.046173
    H   H49   0.491170  0.492690  0.085750  0.082941
    H   H50   0.450530  0.452400  0.126240  0.140087
    H   H51   0.347920  0.350440  0.228110  0.121461
    H   H52   0.307300  0.309330  0.268320  0.036482
    H   H53   0.054120  0.519100  0.440600  0.038585
    H   H54   0.095310  0.479490  0.399680  0.121880
    H   H55   0.199250  0.379130  0.297820  0.138265
    H   H56   0.240410  0.339130  0.257620  0.065649
    H   H57   0.008670  0.587250  0.507470  0.071466
    H   H58   0.049630  0.626860  0.548150  0.135884
    H   H59   0.152130  0.726960  0.650830  0.132248
    H   H60   0.192780  0.766950  0.692080  0.055434
    H   H61   0.507990  0.087500  0.512780  0.081726
    H   H62   0.548940  0.127610  0.553050  0.129623
    H   H63   0.652680  0.228920  0.652880  0.118180
    H   H64   0.693920  0.269370  0.692960  0.068856
    H   H65   0.698760  0.121960  0.702180  0.126713
    H   H66   0.739900  0.162250  0.742070  0.075992
    H   H67   0.557450  0.482510  0.056380  0.070059
    H   H68   0.597630  0.523080  0.097620  0.117025
    H   H69   0.698740  0.624010  0.200580  0.128735
    H   H70   0.739000  0.663930  0.241920  0.071552
    H   H71   0.943100  0.441910  0.476960  0.042532
    H   H72   0.903000  0.400520  0.517240  0.123897
    H   H73   0.800810  0.298160  0.620560  0.143524
    H   H74   0.760490  0.258200  0.661830  0.085473
    H   H75   0.944760  0.941900  0.981230  0.032749
    H   H76   0.904010  0.901890  0.022030  0.136076
    H   H77   0.801320  0.801550  0.123340  0.144588
    H   H78   0.760540  0.760940  0.163340  0.087410
    H   H79   0.442850  0.943170  0.481480  0.037440
    H   H80   0.401880  0.902290  0.521160  0.142416
    H   H81   0.299550  0.798490  0.621590  0.138814
    H   H82   0.259510  0.756960  0.661630  0.083218
    H   H83   0.447140  0.557910  0.018390  0.050196
    H   H84   0.405930  0.598000  0.978260  0.121585
    H   H85   0.301460  0.697900  0.877710  0.115817
    H   H86   0.260330  0.738230  0.837830  0.105569
    H   H87   0.057270  0.979560  0.058420  0.067210
    H   H88   0.441490  0.057840  0.521860  0.069849
    H   H89   0.401640  0.099170  0.480940  0.122238
    H   H90   0.098400  0.020200  0.098430  0.124116
    H   H91   0.301140  0.201890  0.377910  0.136632
    H   H92   0.261040  0.242510  0.337030  0.067476
    H   H93   0.943060  0.555910  0.519720  0.048532
    H   H94   0.902680  0.597430  0.479970  0.125269
    H   H95   0.800640  0.701320  0.379480  0.123726
    H   H96   0.760190  0.742400  0.339510  0.106098
    H   H97   0.508900  0.911310  0.494140  0.114353
    H   H98   0.549590  0.871640  0.453100  0.113874
    H   H99   0.652300  0.771800  0.350150  0.124738
    H   H100  0.693320  0.731970  0.309190  0.042432
    H   H101  0.200880  0.122480  0.199300  0.132782
    H   H102  0.511700  0.414420  0.990430  0.073318
    H   H103  0.241320  0.163010  0.239820  0.079165
    H   H104  0.552570  0.374680  0.950110  0.131766
    H   H105  0.654520  0.273150  0.849500  0.132292
    H   H106  0.694870  0.232100  0.808930  0.043895
    H   H107  0.010570  0.910070  0.993440  0.069831
    H   H108  0.050500  0.869540  0.952330  0.134374
    H   H109  0.152310  0.767810  0.848970  0.127488
    H   H110  0.193210  0.727680  0.808120  0.050837
    H   H111  0.944320  0.057330  0.020490  0.040799
    H   H112  0.904030  0.098480  0.979970  0.120700
    H   H113  0.802670  0.201300  0.878540  0.122817
    H   H114  0.762200  0.242130  0.838340  0.098214
    H   H115  0.445180  0.443330  0.978600  0.025340
    H   H116  0.404520  0.402770  0.019250  0.136238
    H   H117  0.302800  0.300880  0.120600  0.141936
    H   H118  0.262220  0.260050  0.160660  0.071770
    H   H119  0.008840  0.410970  0.488360  0.071678
    H   H120  0.049960  0.371560  0.447670  0.136780
    H   H121  0.153320  0.271770  0.346470  0.124206
    H   H122  0.194500  0.231650  0.306020  0.041841
    H   H123  0.054570  0.479330  0.554970  0.041902
    H   H124  0.095600  0.519140  0.595910  0.124471
    H   H125  0.198060  0.619430  0.699090  0.133317
    H   H126  0.238690  0.659290  0.740080  0.077754
    H   H127  0.554600  0.980150  0.560640  0.058863
    H   H128  0.595570  0.020420  0.601200  0.134676
    Mg  Mg1   0.702860  0.073400  0.577510  0.984530
    Mg  Mg2   0.545120  0.175970  0.677350  0.973655
    Mg  Mg3   0.705630  0.576160  0.076380  0.987280
    Mg  Mg4   0.545420  0.678410  0.171500  0.975991
    Mg  Mg5   0.955050  0.325860  0.672850  0.925986
    Mg  Mg6   0.795070  0.421760  0.570840  0.904445
    Mg  Mg7   0.954440  0.828600  0.178940  0.913680
    Mg  Mg8   0.796310  0.925170  0.074010  0.910431
    Mg  Mg9   0.410610  0.781000  0.575680  0.938681
    Mg  Mg10  0.336400  0.967580  0.674560  0.952166
    Mg  Mg11  0.454510  0.671350  0.820770  0.959704
    Mg  Mg12  0.297490  0.574540  0.927540  0.907423
    Mg  Mg13  0.455220  0.173700  0.325940  0.910441
    Mg  Mg14  0.294370  0.077890  0.426310  0.975179
    Mg  Mg15  0.954020  0.673080  0.324610  0.918148
    Mg  Mg16  0.794420  0.577130  0.427330  0.901517
    Mg  Mg17  0.587200  0.924470  0.283840  0.943758
    Mg  Mg18  0.660610  0.826630  0.471590  0.942942
    Mg  Mg19  0.590830  0.425660  0.780750  0.939005
    Mg  Mg20  0.663290  0.329540  0.969850  0.942607
    Mg  Mg21  0.205740  0.073440  0.075020  0.979582
    Mg  Mg22  0.047190  0.175920  0.173330  0.921902
    Mg  Mg23  0.086870  0.919950  0.781700  0.946454
    Mg  Mg24  0.161300  0.823990  0.969920  0.946117
    Mg  Mg25  0.955390  0.170650  0.822760  0.913645
    Mg  Mg26  0.795730  0.078070  0.928430  0.903023
    Mg  Mg27  0.455940  0.328680  0.175530  0.910830
    Mg  Mg28  0.296930  0.424880  0.071920  0.913979
    Mg  Mg29  0.045690  0.324030  0.322940  0.916748
    Mg  Mg30  0.203210  0.427300  0.422480  0.909286
    Mg  Mg31  0.203210  0.572120  0.574210  0.910223
    Mg  Mg32  0.044520  0.673980  0.672880  0.987938
    O   O1    0.551230  0.636820  0.130380  -0.676034
    O   O2    0.597640  0.683200  0.177970  -0.689095
    O   O3    0.847320  0.427600  0.565630  -0.699441
    O   O4    0.800750  0.380960  0.612790  -0.645627
    O   O5    0.848650  0.930590  0.069560  -0.698304
    O   O6    0.801230  0.884520  0.116210  -0.646569
    O   O7    0.373370  0.957530  0.633800  -0.681661
    O   O8    0.326550  0.910060  0.679790  -0.676636
    O   O9    0.349880  0.569270  0.931440  -0.699494
    O   O10   0.301960  0.615140  0.885230  -0.642881
    O   O11   0.346570  0.071870  0.431900  -0.681680
    O   O12   0.300420  0.118900  0.384640  -0.666413
    O   O13   0.052280  0.134030  0.132390  -0.644580
    O   O14   0.846680  0.570840  0.431860  -0.696461
    O   O15   0.799960  0.618390  0.385830  -0.645558
    O   O16   0.099520  0.180990  0.178360  -0.703233
    O   O17   0.623560  0.867140  0.461100  -0.676532
    O   O18   0.670870  0.821320  0.414060  -0.665734
    O   O19   0.626550  0.370240  0.958780  -0.682163
    O   O20   0.673580  0.323410  0.912410  -0.669720
    O   O21   0.124310  0.864520  0.959300  -0.682646
    O   O22   0.171130  0.817970  0.912360  -0.671436
    O   O23   0.847970  0.071390  0.932690  -0.695178
    O   O24   0.801320  0.118520  0.886140  -0.642472
    O   O25   0.349230  0.430640  0.067240  -0.703951
    O   O26   0.302230  0.384010  0.113850  -0.629611
    O   O27   0.150830  0.431660  0.427570  -0.686545
    O   O28   0.198540  0.385780  0.381100  -0.634766
    O   O29   0.049670  0.632680  0.631350  -0.671588
    O   O30   0.096830  0.678640  0.678420  -0.686013
    O   O31   0.549870  0.134240  0.636190  -0.685346
    O   O32   0.597490  0.180810  0.682080  -0.688610
    O   O33   0.698100  0.115100  0.618700  -0.675028
    O   O34   0.650490  0.068590  0.572730  -0.685294
    O   O35   0.699840  0.617750  0.117500  -0.672978
    O   O36   0.653400  0.571290  0.070020  -0.692037
    O   O37   0.902800  0.320010  0.678070  -0.702150
    O   O38   0.949350  0.366710  0.630970  -0.636642
    O   O39   0.902100  0.823170  0.183390  -0.695286
    O   O40   0.949510  0.869240  0.136730  -0.643372
    O   O41   0.373640  0.791070  0.616440  -0.685921
    O   O42   0.420500  0.838530  0.570490  -0.665854
    O   O43   0.402120  0.676680  0.816910  -0.673759
    O   O44   0.450020  0.630740  0.863060  -0.675575
    O   O45   0.403020  0.179780  0.320380  -0.698121
    O   O46   0.449170  0.132700  0.367610  -0.649906
    O   O47   0.901760  0.679370  0.320080  -0.695289
    O   O48   0.948470  0.631770  0.366070  -0.638647
    O   O49   0.624270  0.884000  0.294330  -0.679539
    O   O50   0.576950  0.929790  0.341370  -0.668330
    O   O51   0.200650  0.115350  0.115940  -0.677930
    O   O52   0.627560  0.384950  0.791810  -0.683461
    O   O53   0.580570  0.431820  0.838190  -0.669865
    O   O54   0.153410  0.068410  0.069920  -0.683252
    O   O55   0.123900  0.879470  0.792340  -0.679714
    O   O56   0.077020  0.925940  0.839240  -0.667711
    O   O57   0.903150  0.177330  0.818500  -0.691641
    O   O58   0.949800  0.130190  0.865040  -0.647269
    O   O59   0.403640  0.322930  0.180210  -0.694250
    O   O60   0.450650  0.369520  0.133570  -0.650799
    O   O61   0.098060  0.319660  0.317860  -0.692559
    O   O62   0.050360  0.365540  0.364330  -0.632719
    O   O63   0.198060  0.613410  0.615750  -0.655566
    O   O64   0.150890  0.567460  0.568650  -0.704662
    Si  Si1   0.999870  0.998370  0.001470  0.751690
    Si  Si2   0.997520  0.499080  0.498010  0.799172
    Si  Si3   0.497680  0.999430  0.503300  0.748919
    Si  Si4   0.501790  0.501190  0.997410  0.789952
    Si  Si5   0.750880  0.250300  0.750230  0.762557
    Si  Si6   0.251300  0.251130  0.248740  0.794540
    Si  Si7   0.249190  0.747260  0.749780  0.725125
    Si  Si8   0.749590  0.751890  0.251400  0.764800
