# Generated by REPEAT Assigner based on pymatgen
data_DB12-OXOZUY_clean
_audit_creation_date              2022-05-24
_audit_creation_method            REPEAT_Assigner
_cell_length_a                    21.889100
_cell_length_b                    9.107000
_cell_length_c                    32.038000
_cell_angle_alpha                 90.000000
_cell_angle_beta                  124.121000
_cell_angle_gamma                 90.000000
_cell_volume                      5287.164308
_symmetry_space_group_name_H-M    P1
_symmetry_Int_Tables_number       1
loop_
    _symmetry_equiv_pos_site_id
    _symmetry_equiv_pos_as_xyz
    1  x,y,z
loop_
    _atom_site_type_symbol
    _atom_site_label
    _atom_site_fract_x
    _atom_site_fract_y
    _atom_site_fract_z
    _atom_type_partial_charge
    C   C1    0.307400  0.725400  0.342600  0.265444
    C   C2    0.185900  0.265800  0.449800  -0.318821
    C   C3    0.771100  0.975000  0.592500  -0.032473
    C   C4    0.886000  0.602600  0.808900  -0.215751
    C   C5    0.703200  0.522700  0.687100  -0.018913
    C   C6    0.756200  0.827800  0.594200  -0.088356
    C   C7    0.131600  0.989400  0.534200  0.847381
    C   C8    0.856200  0.632900  0.543700  -0.019366
    C   C9    0.322800  0.158500  0.591600  -0.195747
    C   C10   0.251400  0.129700  0.579500  -0.052636
    C   C11   0.863300  0.486500  0.605500  -0.046880
    C   C12   0.662500  0.410600  0.654900  -0.233794
    C   C13   0.317200  0.953300  0.387700  0.254114
    C   C14   0.235700  0.924400  0.527200  -0.147034
    C   C15   0.807100  0.370200  0.727000  -0.093082
    C   C16   0.486400  0.135000  0.633600  -0.151246
    C   C17   0.822100  0.585800  0.614000  -0.304534
    C   C18   0.767100  0.253400  0.694600  -0.186658
    C   C19   0.834700  0.880200  0.787100  -0.070668
    C   C20   0.559400  0.158200  0.646200  -0.248865
    C   C21   0.446500  0.076000  0.548500  -0.098551
    C   C22   0.307400  0.274600  0.842600  0.265445
    C   C23   0.571300  0.092300  0.916400  0.038148
    C   C24   0.102900  0.144400  0.165300  -0.062787
    C   C25   0.295700  0.790600  0.896200  -0.088076
    C   C26   0.201700  0.715900  0.914900  0.223276
    C   C27   0.075000  0.716000  0.655300  -0.145887
    C   C28   0.067600  0.977100  0.626700  0.758106
    C   C29   0.791900  0.013600  0.953400  -0.081920
    C   C30   0.647100  0.069600  0.927100  0.062980
    C   C31   0.118600  0.508800  0.927900  -0.035973
    C   C32   0.185900  0.734200  0.949800  -0.318831
    C   C33   0.317200  0.046700  0.887700  0.254111
    C   C34   0.102900  0.855600  0.665300  -0.062788
    C   C35   0.481500  0.898400  0.439400  -0.341379
    C   C36   0.481500  0.101600  0.939400  -0.341391
    C   C37   0.223100  0.507900  0.774900  -0.099826
    C   C38   0.266200  0.085000  0.898900  -0.250308
    C   C39   0.069700  0.399900  0.931800  0.690883
    C   C40   0.332700  0.899600  0.887400  -0.126845
    C   C41   0.202200  0.767800  0.749000  -0.242208
    C   C42   0.692200  0.951400  0.960500  -0.120413
    C   C43   0.424500  0.140600  0.889600  0.379891
    C   C44   0.178400  0.626800  0.738500  0.223703
    C   C45   0.228900  0.975000  0.907500  -0.032541
    C   C46   0.223100  0.492100  0.274900  -0.099824
    C   C47   0.114000  0.602600  0.691100  -0.215776
    C   C48   0.296800  0.522700  0.812900  -0.018903
    C   C49   0.243800  0.827800  0.905800  -0.088314
    C   C50   0.868400  0.989400  0.965800  0.847331
    C   C51   0.143800  0.632900  0.956300  -0.019425
    C   C52   0.677200  0.158500  0.908400  -0.195755
    C   C53   0.748600  0.129700  0.920500  -0.052630
    C   C54   0.136700  0.486500  0.894500  -0.047037
    C   C55   0.337500  0.410600  0.845100  -0.233804
    C   C56   0.764300  0.924400  0.972800  -0.147044
    C   C57   0.266200  0.915000  0.398900  -0.250320
    C   C58   0.192900  0.370200  0.773000  -0.093097
    C   C59   0.513600  0.135000  0.866400  -0.151239
    C   C60   0.177900  0.585800  0.886000  -0.304459
    C   C61   0.232900  0.253400  0.805400  -0.186678
    C   C62   0.165300  0.880200  0.712900  -0.070697
    C   C63   0.440600  0.158200  0.853800  -0.248883
    C   C64   0.553500  0.076000  0.951500  -0.098532
    C   C65   0.069700  0.600100  0.431800  0.690869
    C   C66   0.332700  0.100400  0.387400  -0.126846
    C   C67   0.202200  0.232200  0.249000  -0.242213
    C   C68   0.692200  0.048600  0.460500  -0.120417
    C   C69   0.571300  0.907700  0.416400  0.038150
    C   C70   0.424500  0.859400  0.389600  0.379883
    C   C71   0.178400  0.373200  0.238500  0.223701
    C   C72   0.228900  0.025000  0.407500  -0.032520
    C   C73   0.114000  0.397400  0.191100  -0.215779
    C   C74   0.296800  0.477300  0.312900  -0.018902
    C   C75   0.243800  0.172200  0.405800  -0.088316
    C   C76   0.868400  0.010600  0.465800  0.847323
    C   C77   0.143800  0.367100  0.456300  -0.019440
    C   C78   0.677200  0.841500  0.408400  -0.195750
    C   C79   0.748600  0.870300  0.420500  -0.052631
    C   C80   0.295700  0.209400  0.396200  -0.088080
    C   C81   0.136700  0.513500  0.394500  -0.047043
    C   C82   0.337500  0.589400  0.345100  -0.233808
    C   C83   0.764300  0.075600  0.472800  -0.147046
    C   C84   0.192900  0.629800  0.273000  -0.093092
    C   C85   0.513600  0.865000  0.366400  -0.151243
    C   C86   0.177900  0.414200  0.386000  -0.304457
    C   C87   0.232900  0.746600  0.305400  -0.186680
    C   C88   0.165300  0.119800  0.212900  -0.070687
    C   C89   0.440600  0.841800  0.353800  -0.248875
    C   C90   0.553500  0.924000  0.451500  -0.098542
    C   C91   0.201700  0.284100  0.414900  0.223269
    C   C92   0.692600  0.725400  0.157400  0.265415
    C   C93   0.428700  0.907700  0.083600  0.038150
    C   C94   0.704300  0.209400  0.103800  -0.088029
    C   C95   0.798300  0.284100  0.085100  0.223296
    C   C96   0.925000  0.284000  0.344700  -0.145883
    C   C97   0.932400  0.022900  0.373300  0.758060
    C   C98   0.208100  0.986400  0.046600  -0.081932
    C   C99   0.352900  0.930400  0.072900  0.062984
    C   C100  0.881400  0.491200  0.072100  -0.036052
    C   C101  0.814100  0.265800  0.050200  -0.318867
    C   C102  0.075000  0.284000  0.155300  -0.145878
    C   C103  0.682800  0.953300  0.112300  0.254110
    C   C104  0.897100  0.144400  0.334700  -0.062777
    C   C105  0.518500  0.898400  0.060600  -0.341382
    C   C106  0.776900  0.492100  0.225100  -0.099837
    C   C107  0.733800  0.915000  0.101100  -0.250329
    C   C108  0.930300  0.600100  0.068200  0.690896
    C   C109  0.667300  0.100400  0.112600  -0.126869
    C   C110  0.797800  0.232200  0.251000  -0.242224
    C   C111  0.307800  0.048600  0.039500  -0.120428
    C   C112  0.575500  0.859400  0.110400  0.379887
    C   C113  0.067600  0.022900  0.126700  0.758086
    C   C114  0.821600  0.373200  0.261500  0.223704
    C   C115  0.771100  0.025000  0.092500  -0.032513
    C   C116  0.886000  0.397400  0.308900  -0.215769
    C   C117  0.703200  0.477300  0.187100  -0.018905
    C   C118  0.756200  0.172200  0.094200  -0.088340
    C   C119  0.131600  0.010600  0.034200  0.847382
    C   C120  0.856200  0.367100  0.043700  -0.019381
    C   C121  0.322800  0.841500  0.091600  -0.195737
    C   C122  0.251400  0.870300  0.079500  -0.052651
    C   C123  0.863300  0.513500  0.105500  -0.046889
    C   C124  0.791900  0.986400  0.453400  -0.081920
    C   C125  0.662500  0.589400  0.154900  -0.233797
    C   C126  0.235700  0.075600  0.027200  -0.147031
    C   C127  0.807100  0.629800  0.227000  -0.093077
    C   C128  0.486400  0.865000  0.133600  -0.151247
    C   C129  0.822100  0.414200  0.114000  -0.304529
    C   C130  0.767100  0.746600  0.194600  -0.186660
    C   C131  0.834700  0.119800  0.287100  -0.070675
    C   C132  0.559400  0.841800  0.146200  -0.248869
    C   C133  0.446500  0.924000  0.048500  -0.098546
    C   C134  0.692600  0.274600  0.657400  0.265410
    C   C135  0.647100  0.930400  0.427100  0.062982
    C   C136  0.428700  0.092300  0.583600  0.038150
    C   C137  0.704300  0.790600  0.603800  -0.088011
    C   C138  0.798300  0.715900  0.585100  0.223298
    C   C139  0.925000  0.716000  0.844700  -0.145889
    C   C140  0.932400  0.977100  0.873300  0.758058
    C   C141  0.208100  0.013600  0.546600  -0.081942
    C   C142  0.352900  0.069600  0.572900  0.062987
    C   C143  0.881400  0.508800  0.572100  -0.036060
    C   C144  0.814100  0.734200  0.550200  -0.318875
    C   C145  0.682800  0.046700  0.612300  0.254129
    C   C146  0.118600  0.491200  0.427900  -0.035955
    C   C147  0.897100  0.855600  0.834700  -0.062778
    C   C148  0.518500  0.101600  0.560600  -0.341376
    C   C149  0.776900  0.507900  0.725100  -0.099825
    C   C150  0.733800  0.085000  0.601100  -0.250381
    C   C151  0.930300  0.399900  0.568200  0.690887
    C   C152  0.667300  0.899600  0.612600  -0.126885
    C   C153  0.797800  0.767800  0.751000  -0.242226
    C   C154  0.307800  0.951400  0.539500  -0.120419
    C   C155  0.575500  0.140600  0.610400  0.379880
    C   C156  0.821600  0.626800  0.761500  0.223692
    H   H1    0.306700  0.309900  0.395600  0.090373
    H   H2    0.095200  0.494700  0.182300  0.115288
    H   H3    0.320200  0.385600  0.316900  0.087514
    H   H4    0.132800  0.349000  0.480600  0.099245
    H   H5    0.649800  0.760700  0.387300  0.137961
    H   H6    0.768100  0.810600  0.406300  0.090791
    H   H7    0.120500  0.601800  0.375500  0.082970
    H   H8    0.388400  0.573300  0.370100  0.118268
    H   H9    0.792800  0.154700  0.494400  0.145291
    H   H10   0.141900  0.644700  0.248100  0.126238
    H   H11   0.523900  0.852100  0.341500  0.146303
    H   H12   0.029500  0.304900  0.124400  0.163579
    H   H13   0.189200  0.433900  0.362000  0.186580
    H   H14   0.209800  0.838100  0.302200  0.142249
    H   H15   0.184200  0.022800  0.221700  0.104480
    H   H16   0.402600  0.814000  0.320400  0.143323
    H   H17   0.591000  0.953400  0.484900  0.117027
    H   H18   0.693300  0.309900  0.104400  0.090356
    H   H19   0.970500  0.304900  0.375600  0.163578
    H   H20   0.795900  0.181000  0.029300  0.213307
    H   H21   0.528400  0.907400  0.035400  0.177126
    H   H22   0.743500  0.814400  0.099300  0.137592
    H   H23   0.204100  0.181000  0.470700  0.213294
    H   H24   0.631200  0.128200  0.118800  0.099236
    H   H25   0.755400  0.208500  0.218700  0.125055
    H   H26   0.327100  0.109800  0.025500  0.097124
    H   H27   0.806500  0.998100  0.085500  0.112242
    H   H28   0.904800  0.494700  0.317700  0.115284
    H   H29   0.679800  0.385600  0.183100  0.087516
    H   H30   0.867200  0.349000  0.019400  0.099233
    H   H31   0.350200  0.760700  0.112700  0.137958
    H   H32   0.231900  0.810600  0.093700  0.090799
    H   H33   0.879500  0.601800  0.124500  0.082897
    H   H34   0.471600  0.907400  0.464600  0.177124
    H   H35   0.611600  0.573300  0.129900  0.118266
    H   H36   0.207200  0.154700  0.005600  0.145291
    H   H37   0.858100  0.644700  0.251900  0.126226
    H   H38   0.476100  0.852100  0.158500  0.146303
    H   H39   0.810800  0.433900  0.138000  0.186602
    H   H40   0.790200  0.838100  0.197800  0.142248
    H   H41   0.815800  0.022800  0.278300  0.104470
    H   H42   0.597400  0.814000  0.179600  0.143321
    H   H43   0.409000  0.953400  0.015100  0.117031
    H   H44   0.693300  0.690100  0.604400  0.090352
    H   H45   0.256500  0.814400  0.400700  0.137585
    H   H46   0.970500  0.695100  0.875600  0.163576
    H   H47   0.795900  0.819000  0.529300  0.213310
    H   H48   0.528400  0.092600  0.535400  0.177127
    H   H49   0.743500  0.185600  0.599300  0.137609
    H   H50   0.631200  0.871800  0.618800  0.099241
    H   H51   0.755400  0.791500  0.718700  0.125055
    H   H52   0.327100  0.890200  0.525500  0.097121
    H   H53   0.806500  0.001900  0.585500  0.112231
    H   H54   0.904800  0.505300  0.817700  0.115276
    H   H55   0.679800  0.614400  0.683100  0.087517
    H   H56   0.368800  0.128200  0.381200  0.099232
    H   H57   0.867200  0.651000  0.519400  0.099224
    H   H58   0.350200  0.239300  0.612700  0.137960
    H   H59   0.231900  0.189400  0.593700  0.090797
    H   H60   0.879500  0.398200  0.624500  0.082896
    H   H61   0.611600  0.426700  0.629900  0.118266
    H   H62   0.207200  0.845300  0.505600  0.145289
    H   H63   0.858100  0.355300  0.751900  0.126227
    H   H64   0.476100  0.147900  0.658500  0.146302
    H   H65   0.810800  0.566100  0.638000  0.186602
    H   H66   0.790200  0.161900  0.697800  0.142250
    H   H67   0.244600  0.208500  0.281300  0.125051
    H   H68   0.815800  0.977200  0.778300  0.104467
    H   H69   0.597400  0.186000  0.679600  0.143320
    H   H70   0.409000  0.046600  0.515100  0.117032
    H   H71   0.306700  0.690100  0.895600  0.090370
    H   H72   0.029500  0.695100  0.624400  0.163586
    H   H73   0.204100  0.819000  0.970700  0.213296
    H   H74   0.471600  0.092600  0.964600  0.177129
    H   H75   0.256500  0.185600  0.900700  0.137580
    H   H76   0.368800  0.871800  0.881200  0.099231
    H   H77   0.244600  0.791500  0.781300  0.125050
    H   H78   0.672900  0.109800  0.474500  0.097122
    H   H79   0.672900  0.890200  0.974500  0.097119
    H   H80   0.193500  0.001900  0.914500  0.112246
    H   H81   0.095200  0.505300  0.682300  0.115287
    H   H82   0.320200  0.614400  0.816900  0.087514
    H   H83   0.132800  0.651000  0.980600  0.099243
    H   H84   0.649800  0.239300  0.887300  0.137964
    H   H85   0.768100  0.189400  0.906300  0.090791
    H   H86   0.120500  0.398200  0.875500  0.082971
    H   H87   0.388400  0.426700  0.870100  0.118265
    H   H88   0.792800  0.845300  0.994400  0.145288
    H   H89   0.193500  0.998100  0.414500  0.112237
    H   H90   0.141900  0.355300  0.748100  0.126242
    H   H91   0.523900  0.147900  0.841500  0.146302
    H   H92   0.189200  0.566100  0.862000  0.186580
    H   H93   0.209800  0.161900  0.802200  0.142248
    H   H94   0.184200  0.977200  0.721700  0.104486
    H   H95   0.402600  0.186000  0.820400  0.143326
    H   H96   0.591000  0.046600  0.984900  0.117025
    N   N1    0.350200  0.840500  0.375300  -0.340197
    N   N2    0.649800  0.840500  0.124700  -0.340184
    N   N3    0.649800  0.159500  0.624700  -0.340181
    N   N4    0.350200  0.159500  0.875300  -0.340200
    O   O1    0.895700  0.918300  0.451300  -0.767462
    O   O2    0.904300  0.894600  0.360500  -0.684308
    O   O3    0.096200  0.122000  0.006900  -0.694094
    O   O4    0.952700  0.718200  0.092900  -0.608202
    O   O5    0.104300  0.081700  0.548700  -0.767499
    O   O6    0.987000  0.949700  0.917400  -0.657229
    O   O7    0.949400  0.434200  0.537500  -0.743019
    O   O8    0.904300  0.105400  0.860500  -0.684310
    O   O9    0.096200  0.878000  0.506900  -0.694071
    O   O10   0.952700  0.281800  0.592900  -0.608200
    O   O11   0.895700  0.081700  0.951300  -0.767472
    O   O12   0.013000  0.050300  0.082600  -0.657244
    O   O13   0.013000  0.949700  0.582600  -0.657254
    O   O14   0.050600  0.434200  0.962500  -0.743029
    O   O15   0.095700  0.105400  0.639500  -0.684325
    O   O16   0.903800  0.878000  0.993100  -0.694055
    O   O17   0.047300  0.281800  0.907100  -0.608203
    O   O18   0.050600  0.565800  0.462500  -0.743022
    O   O19   0.095700  0.894600  0.139500  -0.684316
    O   O20   0.903800  0.122000  0.493100  -0.694045
    O   O21   0.047300  0.718200  0.407100  -0.608198
    O   O22   0.104300  0.918300  0.048700  -0.767491
    O   O23   0.987000  0.050300  0.417400  -0.657233
    O   O24   0.949400  0.565800  0.037500  -0.743029
    Tb  Tb1   0.982330  0.798160  0.444780  1.810798
    Tb  Tb2   0.017670  0.798160  0.055220  1.810806
    Tb  Tb3   0.017670  0.201840  0.555220  1.810803
    Tb  Tb4   0.982330  0.201840  0.944780  1.810821
