# Generated by REPEAT Assigner based on pymatgen
data_DB12-OZUKOL_freeONLY
_audit_creation_date              2022-05-24
_audit_creation_method            REPEAT_Assigner
_cell_length_a                    26.288500
_cell_length_b                    26.288500
_cell_length_c                    7.060800
_cell_angle_alpha                 90.000000
_cell_angle_beta                  90.000000
_cell_angle_gamma                 120.000000
_cell_volume                      4225.870211
_symmetry_space_group_name_H-M    P1
_symmetry_Int_Tables_number       1
loop_
    _symmetry_equiv_pos_site_id
    _symmetry_equiv_pos_as_xyz
    1  x,y,z
loop_
    _atom_site_type_symbol
    _atom_site_label
    _atom_site_fract_x
    _atom_site_fract_y
    _atom_site_fract_z
    _atom_type_partial_charge
    Mn  Mn1   0.950900  0.634600  0.022000  1.248058
    C   C1    0.015600  0.592800  0.759000  0.720087
    C   C2    0.006900  0.545700  0.890000  -0.238759
    C   C3    0.987900  0.542100  0.087000  0.269507
    C   C4    0.983300  0.495000  0.190000  -0.137086
    H   H1    0.972570  0.497500  0.337240  0.170146
    O   O1    0.028600  0.592400  0.586000  -0.689287
    O   O2    0.004500  0.634600  0.801000  -0.648263
    O   O3    0.977300  0.583400  0.139000  -0.692089
    Mn  Mn2   0.617570  0.967930  0.355330  1.248052
    C   C5    0.682270  0.926130  0.092330  0.719982
    C   C6    0.673570  0.879030  0.223330  -0.238540
    C   C7    0.654570  0.875430  0.420330  0.269611
    C   C8    0.649970  0.828330  0.523330  -0.136949
    H   H2    0.639240  0.830830  0.670570  0.170064
    O   O4    0.695270  0.925730  0.919330  -0.689221
    O   O5    0.671170  0.967930  0.134330  -0.648389
    O   O6    0.643970  0.916730  0.472330  -0.692349
    Mn  Mn3   0.284230  0.301270  0.688670  1.248149
    C   C9    0.348930  0.259470  0.425670  0.719949
    C   C10   0.340230  0.212370  0.556670  -0.238983
    C   C11   0.321230  0.208770  0.753670  0.269737
    C   C12   0.316630  0.161670  0.856670  -0.137460
    H   H3    0.305900  0.164170  0.003910  0.170352
    O   O7    0.361930  0.259070  0.252670  -0.689234
    O   O8    0.337830  0.301270  0.467670  -0.648089
    O   O9    0.310630  0.250070  0.805670  -0.692281
    Mn  Mn4   0.365400  0.316300  0.022000  1.244896
    C   C13   0.407200  0.422800  0.759000  0.722867
    C   C14   0.454300  0.461200  0.890000  -0.243100
    C   C15   0.457900  0.445800  0.087000  0.282009
    C   C16   0.505000  0.488300  0.190000  -0.143481
    H   H4    0.502500  0.475070  0.337240  0.171111
    O   O10   0.407600  0.436200  0.586000  -0.689254
    O   O11   0.365400  0.369900  0.801000  -0.648944
    O   O12   0.416600  0.393900  0.139000  -0.696390
    Mn  Mn5   0.032070  0.649630  0.355330  1.244916
    C   C17   0.073870  0.756130  0.092330  0.722961
    C   C18   0.120970  0.794530  0.223330  -0.243243
    C   C19   0.124570  0.779130  0.420330  0.281903
    C   C20   0.171670  0.821630  0.523330  -0.143265
    H   H5    0.169170  0.808400  0.670570  0.171011
    O   O13   0.074270  0.769530  0.919330  -0.689208
    O   O14   0.032070  0.703230  0.134330  -0.648878
    O   O15   0.083270  0.727230  0.472330  -0.696372
    Mn  Mn6   0.698730  0.982970  0.688670  1.245017
    C   C21   0.740530  0.089470  0.425670  0.722924
    C   C22   0.787630  0.127870  0.556670  -0.243185
    C   C23   0.791230  0.112470  0.753670  0.281873
    C   C24   0.838330  0.154970  0.856670  -0.143308
    H   H6    0.835830  0.141740  0.003910  0.171062
    O   O16   0.740930  0.102870  0.252670  -0.689203
    O   O17   0.698730  0.036570  0.467670  -0.648852
    O   O18   0.749930  0.060570  0.805670  -0.696492
    Mn  Mn7   0.683700  0.049100  0.022000  1.244143
    C   C25   0.577200  0.984400  0.759000  0.716375
    C   C26   0.538800  0.993100  0.890000  -0.237430
    C   C27   0.554200  0.012100  0.087000  0.273229
    C   C28   0.511700  0.016700  0.190000  -0.138894
    H   H7    0.524930  0.027430  0.337240  0.171969
    O   O19   0.563800  0.971400  0.586000  -0.691769
    O   O20   0.630100  0.995500  0.801000  -0.643924
    O   O21   0.606100  0.022700  0.139000  -0.695636
    Mn  Mn8   0.350370  0.382430  0.355330  1.243998
    C   C29   0.243870  0.317730  0.092330  0.716216
    C   C30   0.205470  0.326430  0.223330  -0.237239
    C   C31   0.220870  0.345430  0.420330  0.272915
    C   C32   0.178370  0.350030  0.523330  -0.138550
    H   H8    0.191600  0.360760  0.670570  0.171794
    O   O22   0.230470  0.304730  0.919330  -0.691624
    O   O23   0.296770  0.328830  0.134330  -0.643768
    O   O24   0.272770  0.356030  0.472330  -0.695618
    Mn  Mn9   0.017030  0.715770  0.688670  1.244138
    C   C33   0.910530  0.651070  0.425670  0.716642
    C   C34   0.872130  0.659770  0.556670  -0.237756
    C   C35   0.887530  0.678770  0.753670  0.273430
    C   C36   0.845030  0.683370  0.856670  -0.138889
    H   H9    0.858260  0.694100  0.003910  0.171882
    O   O25   0.897130  0.638070  0.252670  -0.691756
    O   O26   0.963430  0.662170  0.467670  -0.644121
    O   O27   0.939430  0.689370  0.805670  -0.695770
    Mn  Mn10  0.049100  0.365400  0.978000  1.248085
    C   C37   0.984400  0.407200  0.241000  0.720161
    C   C38   0.993100  0.454300  0.110000  -0.238780
    C   C39   0.012100  0.457900  0.913000  0.269460
    C   C40   0.016700  0.505000  0.810000  -0.137053
    H   H10   0.027430  0.502500  0.662760  0.170137
    O   O28   0.971400  0.407600  0.414000  -0.689299
    O   O29   0.995500  0.365400  0.199000  -0.648322
    O   O30   0.022700  0.416600  0.861000  -0.692083
    Mn  Mn11  0.715770  0.698730  0.311330  1.248156
    C   C41   0.651070  0.740530  0.574330  0.719943
    C   C42   0.659770  0.787630  0.443330  -0.238887
    C   C43   0.678770  0.791230  0.246330  0.269618
    C   C44   0.683370  0.838330  0.143330  -0.137395
    H   H11   0.694100  0.835830  0.996090  0.170365
    O   O31   0.638070  0.740930  0.747330  -0.689301
    O   O32   0.662170  0.698730  0.532330  -0.648089
    O   O33   0.689370  0.749930  0.194330  -0.692256
    Mn  Mn12  0.382430  0.032070  0.644670  1.248069
    C   C45   0.317730  0.073870  0.907670  0.720006
    C   C46   0.326430  0.120970  0.776670  -0.238508
    C   C47   0.345430  0.124570  0.579670  0.269562
    C   C48   0.350030  0.171670  0.476670  -0.136873
    H   H12   0.360760  0.169170  0.329430  0.170014
    O   O34   0.304730  0.074270  0.080670  -0.689196
    O   O35   0.328830  0.032070  0.865670  -0.648427
    O   O36   0.356030  0.083270  0.527670  -0.692338
    Mn  Mn13  0.634600  0.683700  0.978000  1.244919
    C   C49   0.592800  0.577200  0.241000  0.722931
    C   C50   0.545700  0.538800  0.110000  -0.243177
    C   C51   0.542100  0.554200  0.913000  0.282039
    C   C52   0.495000  0.511700  0.810000  -0.143527
    H   H13   0.497500  0.524930  0.662760  0.171128
    O   O37   0.592400  0.563800  0.414000  -0.689280
    O   O38   0.634600  0.630100  0.199000  -0.648980
    O   O39   0.583400  0.606100  0.861000  -0.696402
    Mn  Mn14  0.301270  0.017030  0.311330  1.244989
    C   C53   0.259470  0.910530  0.574330  0.722957
    C   C54   0.212370  0.872130  0.443330  -0.243250
    C   C55   0.208770  0.887530  0.246330  0.281949
    C   C56   0.161670  0.845030  0.143330  -0.143376
    H   H14   0.164170  0.858260  0.996090  0.171084
    O   O40   0.259070  0.897130  0.747330  -0.689231
    O   O41   0.301270  0.963430  0.532330  -0.648842
    O   O42   0.250070  0.939430  0.194330  -0.696534
    Mn  Mn15  0.967930  0.350370  0.644670  1.244901
    C   C57   0.926130  0.243870  0.907670  0.723022
    C   C58   0.879030  0.205470  0.776670  -0.243315
    C   C59   0.875430  0.220870  0.579670  0.281969
    C   C60   0.828330  0.178370  0.476670  -0.143330
    H   H15   0.830830  0.191600  0.329430  0.171030
    O   O43   0.925730  0.230470  0.080670  -0.689237
    O   O44   0.967930  0.296770  0.865670  -0.648899
    O   O45   0.916730  0.272770  0.527670  -0.696401
    Mn  Mn16  0.316300  0.950900  0.978000  1.244159
    C   C61   0.422800  0.015600  0.241000  0.716328
    C   C62   0.461200  0.006900  0.110000  -0.237404
    C   C63   0.445800  0.987900  0.913000  0.273243
    C   C64   0.488300  0.983300  0.810000  -0.138903
    H   H16   0.475070  0.972570  0.662760  0.171965
    O   O46   0.436200  0.028600  0.414000  -0.691763
    O   O47   0.369900  0.004500  0.199000  -0.643890
    O   O48   0.393900  0.977300  0.861000  -0.695630
    Mn  Mn17  0.982970  0.284230  0.311330  1.244157
    C   C65   0.089470  0.348930  0.574330  0.716600
    C   C66   0.127870  0.340230  0.443330  -0.237746
    C   C67   0.112470  0.321230  0.246330  0.273433
    C   C68   0.154970  0.316630  0.143330  -0.138916
    H   H17   0.141740  0.305900  0.996090  0.171883
    O   O49   0.102870  0.361930  0.747330  -0.691759
    O   O50   0.036570  0.337830  0.532330  -0.644085
    O   O51   0.060570  0.310630  0.194330  -0.695769
    Mn  Mn18  0.649630  0.617570  0.644670  1.244003
    C   C69   0.756130  0.682270  0.907670  0.716184
    C   C70   0.794530  0.673570  0.776670  -0.237251
    C   C71   0.779130  0.654570  0.579670  0.272920
    C   C72   0.821630  0.649970  0.476670  -0.138568
    H   H18   0.808400  0.639240  0.329430  0.171794
    O   O52   0.769530  0.695270  0.080670  -0.691616
    O   O53   0.703230  0.671170  0.865670  -0.643735
    O   O54   0.727230  0.643970  0.527670  -0.695614
