# Generated by REPEAT Assigner based on pymatgen
data_DB12-NUDMUW_freeONLY
_audit_creation_date              2022-05-24
_audit_creation_method            REPEAT_Assigner
_cell_length_a                    18.166700
_cell_length_b                    12.517500
_cell_length_c                    11.021000
_cell_angle_alpha                 90.000000
_cell_angle_beta                  102.672000
_cell_angle_gamma                 90.000000
_cell_volume                      2445.147567
_symmetry_space_group_name_H-M    P1
_symmetry_Int_Tables_number       1
loop_
    _symmetry_equiv_pos_site_id
    _symmetry_equiv_pos_as_xyz
    1  x,y,z
loop_
    _atom_site_type_symbol
    _atom_site_label
    _atom_site_fract_x
    _atom_site_fract_y
    _atom_site_fract_z
    _atom_type_partial_charge
    Mg  Mg1   0.084270  0.036320  0.040190  1.378323
    N   N1    0.184110  0.931870  0.110370  -0.450462
    O   O1    0.075270  0.983680  0.218890  -0.640109
    O   O2    0.132100  0.909950  0.399360  -0.587711
    O   O3    0.354820  0.666030  0.370180  -0.676072
    O   O4    0.416920  0.711390  0.224040  -0.687470
    O   O5    0.979190  0.088400  0.054210  -1.152246
    H   H1    0.962100  0.149000  0.028000  0.408205
    C   C1    0.188750  0.892010  0.226100  0.286877
    C   C2    0.245130  0.824500  0.283800  -0.289883
    H   H2    0.246100  0.802000  0.355000  0.175977
    C   C3    0.300730  0.795470  0.221800  0.099852
    C   C4    0.297610  0.838200  0.104600  -0.239706
    H   H3    0.333500  0.821000  0.061000  0.144318
    C   C5    0.238570  0.904800  0.052400  0.246644
    H   H4    0.232200  0.932000  0.971000  0.027058
    C   C6    0.126930  0.930490  0.287600  0.530598
    C   C7    0.363310  0.717650  0.277500  0.691026
    Mg  Mg2   0.584270  0.536320  0.040190  1.378333
    N   N2    0.684110  0.431870  0.110370  -0.450542
    O   O6    0.575270  0.483680  0.218890  -0.640075
    O   O7    0.632100  0.409950  0.399360  -0.587679
    O   O8    0.854820  0.166030  0.370180  -0.676040
    O   O9    0.916920  0.211390  0.224040  -0.687469
    O   O10   0.479190  0.588400  0.054210  -1.152269
    H   H5    0.462100  0.649000  0.028000  0.408217
    C   C8    0.688750  0.392010  0.226100  0.287027
    C   C9    0.745130  0.324500  0.283800  -0.290191
    H   H6    0.746100  0.302000  0.355000  0.176062
    C   C10   0.800730  0.295470  0.221800  0.100104
    C   C11   0.797610  0.338200  0.104600  -0.239855
    H   H7    0.833500  0.321000  0.061000  0.144349
    C   C12   0.738570  0.404800  0.052400  0.246738
    H   H8    0.732200  0.432000  0.971000  0.027052
    C   C13   0.626930  0.430490  0.287600  0.530535
    C   C14   0.863310  0.217650  0.277500  0.690940
    Mg  Mg3   0.915730  0.036320  0.459810  1.378343
    N   N3    0.815890  0.931870  0.389630  -0.450478
    O   O11   0.924730  0.983680  0.281110  -0.640098
    O   O12   0.867900  0.909950  0.100640  -0.587730
    O   O13   0.645180  0.666030  0.129820  -0.676084
    O   O14   0.583080  0.711390  0.275960  -0.687475
    O   O15   0.020810  0.088400  0.445790  -1.152258
    H   H9    0.037900  0.149000  0.472000  0.408216
    C   C15   0.811250  0.892010  0.273900  0.286854
    C   C16   0.754870  0.824500  0.216200  -0.289846
    H   H10   0.753900  0.802000  0.145000  0.175963
    C   C17   0.699270  0.795470  0.278200  0.099834
    C   C18   0.702390  0.838200  0.395400  -0.239717
    H   H11   0.666500  0.821000  0.439000  0.144323
    C   C19   0.761430  0.904800  0.447600  0.246676
    H   H12   0.767800  0.932000  0.529000  0.027046
    C   C20   0.873070  0.930490  0.212400  0.530620
    C   C21   0.636690  0.717650  0.222500  0.691040
    Mg  Mg4   0.415730  0.536320  0.459810  1.378355
    N   N4    0.315890  0.431870  0.389630  -0.450488
    O   O16   0.424730  0.483680  0.281110  -0.640089
    O   O17   0.367900  0.409950  0.100640  -0.587710
    O   O18   0.145180  0.166030  0.129820  -0.676075
    O   O19   0.083080  0.211390  0.275960  -0.687483
    O   O20   0.520810  0.588400  0.445790  -1.152282
    H   H13   0.537900  0.649000  0.472000  0.408223
    C   C22   0.311250  0.392010  0.273900  0.286891
    C   C23   0.254870  0.324500  0.216200  -0.289888
    H   H14   0.253900  0.302000  0.145000  0.175976
    C   C24   0.199270  0.295470  0.278200  0.099853
    C   C25   0.202390  0.338200  0.395400  -0.239709
    H   H15   0.166500  0.321000  0.439000  0.144319
    C   C26   0.261430  0.404800  0.447600  0.246659
    H   H16   0.267800  0.432000  0.529000  0.027054
    C   C27   0.373070  0.430490  0.212400  0.530584
    C   C28   0.136690  0.217650  0.222500  0.691037
    Mg  Mg5   0.915730  0.963680  0.959810  1.378339
    N   N5    0.815890  0.068130  0.889630  -0.450465
    O   O21   0.924730  0.016320  0.781110  -0.640107
    O   O22   0.867900  0.090050  0.600640  -0.587734
    O   O23   0.645180  0.333970  0.629820  -0.676081
    O   O24   0.583080  0.288610  0.775960  -0.687475
    O   O25   0.020810  0.911600  0.945790  -1.152252
    H   H17   0.037900  0.851000  0.972000  0.408213
    C   C29   0.811250  0.107990  0.773900  0.286849
    C   C30   0.754870  0.175500  0.716200  -0.289848
    H   H18   0.753900  0.198000  0.645000  0.175964
    C   C31   0.699270  0.204530  0.778200  0.099836
    C   C32   0.702390  0.161800  0.895400  -0.239713
    H   H19   0.666500  0.179000  0.939000  0.144322
    C   C33   0.761430  0.095200  0.947600  0.246666
    H   H20   0.767800  0.068000  0.029000  0.027049
    C   C34   0.873070  0.069510  0.712400  0.530627
    C   C35   0.636690  0.282350  0.722500  0.691036
    Mg  Mg6   0.415730  0.463680  0.959810  1.378352
    N   N6    0.315890  0.568130  0.889630  -0.450476
    O   O26   0.424730  0.516320  0.781110  -0.640098
    O   O27   0.367900  0.590050  0.600640  -0.587713
    O   O28   0.145180  0.833970  0.629820  -0.676070
    O   O29   0.083080  0.788610  0.775960  -0.687483
    O   O30   0.520810  0.411600  0.945790  -1.152276
    H   H21   0.537900  0.351000  0.972000  0.408220
    C   C36   0.311250  0.607990  0.773900  0.286888
    C   C37   0.254870  0.675500  0.716200  -0.289890
    H   H22   0.253900  0.698000  0.645000  0.175977
    C   C38   0.199270  0.704530  0.778200  0.099856
    C   C39   0.202390  0.661800  0.895400  -0.239707
    H   H23   0.166500  0.679000  0.939000  0.144319
    C   C40   0.261430  0.595200  0.947600  0.246650
    H   H24   0.267800  0.568000  0.029000  0.027057
    C   C41   0.373070  0.569510  0.712400  0.530590
    C   C42   0.136690  0.782350  0.722500  0.691031
    Mg  Mg7   0.084270  0.963680  0.540190  1.378329
    N   N7    0.184110  0.068130  0.610370  -0.450472
    O   O31   0.075270  0.016320  0.718890  -0.640100
    O   O32   0.132100  0.090050  0.899360  -0.587706
    O   O33   0.354820  0.333970  0.870180  -0.676076
    O   O34   0.416920  0.288610  0.724040  -0.687470
    O   O35   0.979190  0.911600  0.554210  -1.152247
    H   H25   0.962100  0.851000  0.528000  0.408206
    C   C43   0.188750  0.107990  0.726100  0.286880
    C   C44   0.245130  0.175500  0.783800  -0.289881
    H   H26   0.246100  0.198000  0.855000  0.175976
    C   C45   0.300730  0.204530  0.721800  0.099850
    C   C46   0.297610  0.161800  0.604600  -0.239710
    H   H27   0.333500  0.179000  0.561000  0.144319
    C   C47   0.238570  0.095200  0.552400  0.246654
    H   H28   0.232200  0.068000  0.471000  0.027055
    C   C48   0.126930  0.069510  0.787600  0.530592
    C   C49   0.363310  0.282350  0.777500  0.691031
    Mg  Mg8   0.584270  0.463680  0.540190  1.378340
    N   N8    0.684110  0.568130  0.610370  -0.450553
    O   O36   0.575270  0.516320  0.718890  -0.640066
    O   O37   0.632100  0.590050  0.899360  -0.587674
    O   O38   0.854820  0.833970  0.870180  -0.676043
    O   O39   0.916920  0.788610  0.724040  -0.687469
    O   O40   0.479190  0.411600  0.554210  -1.152270
    H   H29   0.462100  0.351000  0.528000  0.408219
    C   C50   0.688750  0.607990  0.726100  0.287030
    C   C51   0.745130  0.675500  0.783800  -0.290190
    H   H30   0.746100  0.698000  0.855000  0.176062
    C   C52   0.800730  0.704530  0.721800  0.100103
    C   C53   0.797610  0.661800  0.604600  -0.239861
    H   H31   0.833500  0.679000  0.561000  0.144350
    C   C54   0.738570  0.595200  0.552400  0.246750
    H   H32   0.732200  0.568000  0.471000  0.027049
    C   C55   0.626930  0.569510  0.787600  0.530529
    C   C56   0.863310  0.782350  0.777500  0.690944
    Mg  Mg9   -0.000000  0.099150  0.250000  1.469544
    Mg  Mg10  0.500000  0.599150  0.250000  1.469533
    Mg  Mg11  -0.000000  0.900850  0.750000  1.469544
    Mg  Mg12  0.500000  0.400850  0.750000  1.469533
