# Generated by REPEAT Assigner based on pymatgen
data_DB12-IKUTOZ_clean
_audit_creation_date              2022-05-24
_audit_creation_method            REPEAT_Assigner
_cell_length_a                    10.767300
_cell_length_b                    11.020900
_cell_length_c                    13.091800
_cell_angle_alpha                 105.064000
_cell_angle_beta                  94.854000
_cell_angle_gamma                 93.847000
_cell_volume                      1488.356272
_symmetry_space_group_name_H-M    P1
_symmetry_Int_Tables_number       1
loop_
    _symmetry_equiv_pos_site_id
    _symmetry_equiv_pos_as_xyz
    1  x,y,z
loop_
    _atom_site_type_symbol
    _atom_site_label
    _atom_site_fract_x
    _atom_site_fract_y
    _atom_site_fract_z
    _atom_type_partial_charge
    Dy  Dy1  0.030200  0.551280  0.175410  1.869659
    C   C1   0.995400  0.738800  0.009200  1.002574
    C   C2   0.011800  0.767100  0.335200  0.729404
    C   C3   0.232800  0.519200  0.985700  0.945939
    C   C4   0.998300  0.875000  0.007100  -0.410552
    C   C5   0.004200  0.887600  0.420200  -0.179451
    C   C6   0.371500  0.510000  0.991100  -0.263329
    C   C7   0.108000  0.934900  0.985200  0.263997
    C   C8   0.050900  0.000700  0.405200  0.144432
    C   C9   0.425400  0.434600  0.907300  0.464598
    C   C10  0.221100  0.877000  0.975000  -0.440367
    H   H1   0.224100  0.796300  0.984100  0.260348
    C   C11  0.099200  0.007600  0.305400  -0.198126
    H   H2   0.099200  0.934700  0.250300  0.169971
    C   C12  0.447600  0.574000  0.081200  -0.311246
    H   H3   0.411600  0.625300  0.137000  0.200972
    C   C13  0.324300  0.935600  0.952500  -0.001817
    H   H4   0.396600  0.893900  0.944200  0.078718
    C   C14  0.144700  0.122000  0.293100  -0.140827
    H   H5   0.175900  0.125400  0.229700  0.134249
    C   C15  0.325100  0.058800  0.941400  -0.105577
    H   H6   0.397800  0.099100  0.927300  0.125087
    C   C16  0.144900  0.234500  0.375000  -0.125955
    H   H7   0.178400  0.310800  0.366300  0.096479
    C   C17  0.219800  0.118300  0.951500  -0.273195
    H   H8   0.220300  0.198800  0.941300  0.159040
    C   C18  0.095200  0.230700  0.467500  -0.088964
    H   H9   0.091800  0.305700  0.519600  0.057594
    C   C19  0.892700  0.938000  0.022700  0.189080
    C   C20  0.951400  0.885500  0.514100  0.042635
    N   N1   0.351000  0.360000  0.813800  -0.946989
    H   H10  0.385400  0.310000  0.764700  0.406036
    H   H11  0.271400  0.365400  0.806600  0.474947
    O   O1   0.009200  0.717300  0.096500  -0.631863
    O   O2   0.911400  0.707200  0.287900  -0.640574
    O   O3   0.188700  0.558100  0.072100  -0.782064
    O   O4   0.977500  0.658700  0.922000  -0.813586
    O   O5   0.116200  0.728800  0.317200  -0.689264
    O   O6   0.172400  0.492500  0.898400  -0.771054
    Dy  Dy2  0.969800  0.448720  0.824590  1.864923
    C   C21  0.004600  0.261200  0.990800  1.003724
    C   C22  0.988200  0.232900  0.664800  0.730559
    C   C23  0.767200  0.480800  0.014300  0.949802
    C   C24  0.001700  0.125000  0.992900  -0.411483
    C   C25  0.995800  0.112400  0.579800  -0.181467
    C   C26  0.628500  0.490000  0.008900  -0.265674
    C   C27  0.892000  0.065100  0.014800  0.264602
    C   C28  0.949100  0.999300  0.594800  0.145755
    C   C29  0.574600  0.565400  0.092700  0.466050
    C   C30  0.778900  0.123000  0.025000  -0.440612
    H   H12  0.775900  0.203700  0.015900  0.260367
    C   C31  0.900800  0.992400  0.694600  -0.198899
    H   H13  0.900800  0.065300  0.749700  0.170214
    C   C32  0.552400  0.426000  0.918800  -0.310129
    H   H14  0.588400  0.374700  0.863000  0.200949
    C   C33  0.675700  0.064400  0.047500  -0.001519
    H   H15  0.603400  0.106100  0.055800  0.078668
    C   C34  0.855300  0.878000  0.706900  -0.140380
    H   H16  0.824100  0.874600  0.770300  0.134187
    C   C35  0.674900  0.941200  0.058600  -0.106107
    H   H17  0.602200  0.900900  0.072700  0.125216
    C   C36  0.855100  0.765500  0.625000  -0.126229
    H   H18  0.821600  0.689200  0.633700  0.096351
    C   C37  0.780200  0.881700  0.048500  -0.272381
    H   H19  0.779700  0.801200  0.058700  0.158664
    C   C38  0.904800  0.769300  0.532500  -0.088279
    H   H20  0.908200  0.694300  0.480400  0.057582
    C   C39  0.107300  0.062000  0.977300  0.189921
    C   C40  0.048600  0.114500  0.485900  0.044087
    N   N2   0.649000  0.640000  0.186200  -0.948066
    H   H21  0.614600  0.690000  0.235300  0.406293
    H   H22  0.728600  0.634600  0.193400  0.475799
    O   O7   0.990800  0.282700  0.903500  -0.632677
    O   O8   0.088600  0.292800  0.712100  -0.640342
    O   O9   0.811300  0.441900  0.927900  -0.783675
    O   O10  0.022500  0.341300  0.078000  -0.814221
    O   O11  0.883800  0.271200  0.682800  -0.689389
    O   O12  0.827600  0.507500  0.101600  -0.773144
