# Generated by REPEAT Assigner based on pymatgen
data_DB12-ZETLER_clean
_audit_creation_date              2022-05-24
_audit_creation_method            REPEAT_Assigner
_cell_length_a                    15.186900
_cell_length_b                    24.158700
_cell_length_c                    15.851100
_cell_angle_alpha                 90.000000
_cell_angle_beta                  111.141000
_cell_angle_gamma                 90.000000
_cell_volume                      5424.279614
_symmetry_space_group_name_H-M    P1
_symmetry_Int_Tables_number       1
loop_
    _symmetry_equiv_pos_site_id
    _symmetry_equiv_pos_as_xyz
    1  x,y,z
loop_
    _atom_site_type_symbol
    _atom_site_label
    _atom_site_fract_x
    _atom_site_fract_y
    _atom_site_fract_z
    _atom_type_partial_charge
    C   C1    0.624000  0.449500  0.551200  0.073470
    C   C2    0.946300  0.453500  0.967100  -0.318705
    C   C3    0.191100  0.526400  0.392700  -0.208356
    C   C4    0.249200  0.521400  0.481800  0.105252
    C   C5    0.172700  0.543400  0.231200  -0.191516
    C   C6    0.099000  0.510800  0.191100  -0.096871
    C   C7    0.048400  0.506200  0.093500  0.132033
    C   C8    0.993600  0.459500  0.059100  0.036837
    C   C9    0.053700  0.546500  0.032900  -0.318654
    C   C10   0.400500  0.409500  0.643000  0.481084
    C   C11   0.402000  0.348100  0.642600  0.107992
    C   C12   0.328300  0.319300  0.653000  -0.088797
    C   C13   0.599500  0.590500  0.357000  0.481063
    C   C14   0.328200  0.261900  0.652100  -0.234072
    C   C15   0.400700  0.234000  0.638400  0.331742
    C   C16   0.475100  0.262500  0.627300  -0.221055
    C   C17   0.475300  0.319400  0.630200  -0.159283
    C   C18   0.115700  0.064800  0.707500  0.756550
    C   C19   0.193600  0.092700  0.688800  -0.116598
    C   C20   0.273800  0.108400  0.757700  0.092084
    C   C21   0.345700  0.135900  0.740600  -0.445759
    C   C22   0.335000  0.146900  0.652600  0.544191
    C   C23   0.258000  0.130400  0.582900  -0.299853
    C   C24   0.598000  0.651900  0.357400  0.107957
    C   C25   0.186700  0.103500  0.600500  -0.065118
    C   C26   0.876000  0.050500  0.448800  0.073391
    C   C27   0.822800  0.057200  0.359100  -0.086227
    C   C28   0.727200  0.043300  0.328300  0.144308
    C   C29   0.691100  0.026400  0.392700  -0.208256
    C   C30   0.749200  0.021400  0.481800  0.105226
    C   C31   0.672700  0.043400  0.231200  -0.191493
    C   C32   0.599000  0.010800  0.191100  -0.096904
    C   C33   0.548400  0.006200  0.093500  0.132028
    C   C34   0.493600  0.959500  0.059100  0.036876
    C   C35   0.671700  0.680700  0.347000  -0.088758
    C   C36   0.553700  0.046500  0.032900  -0.318663
    C   C37   0.900500  0.909500  0.643000  0.481054
    C   C38   0.902000  0.848100  0.642600  0.108019
    C   C39   0.828300  0.819300  0.653000  -0.088815
    C   C40   0.828200  0.761900  0.652100  -0.234022
    C   C41   0.900700  0.734000  0.638400  0.331685
    C   C42   0.975100  0.762500  0.627300  -0.221084
    C   C43   0.975300  0.819400  0.630200  -0.159273
    C   C44   0.615700  0.564800  0.707500  0.756558
    C   C45   0.693600  0.592700  0.688800  -0.116585
    C   C46   0.671800  0.738100  0.347900  -0.234038
    C   C47   0.773800  0.608400  0.757700  0.092062
    C   C48   0.845700  0.635900  0.740600  -0.445736
    C   C49   0.835000  0.646900  0.652600  0.544145
    C   C50   0.758000  0.630400  0.582900  -0.299770
    C   C51   0.686700  0.603500  0.600500  -0.065161
    C   C52   0.624000  0.550500  0.051200  0.073406
    C   C53   0.677200  0.557200  0.140900  -0.086243
    C   C54   0.772800  0.543300  0.171700  0.144337
    C   C55   0.808900  0.526400  0.107300  -0.208335
    C   C56   0.750800  0.521400  0.018200  0.105240
    C   C57   0.599300  0.766000  0.361600  0.331522
    C   C58   0.827300  0.543400  0.268800  -0.191495
    C   C59   0.901000  0.510800  0.308900  -0.096870
    C   C60   0.951600  0.506200  0.406500  0.132027
    C   C61   0.006400  0.459500  0.440900  0.036844
    C   C62   0.946300  0.546500  0.467100  -0.318637
    C   C63   0.599500  0.409500  0.857000  0.481076
    C   C64   0.598000  0.348100  0.857400  0.107995
    C   C65   0.671700  0.319300  0.847000  -0.088810
    C   C66   0.671800  0.261900  0.847900  -0.234057
    C   C67   0.599300  0.234000  0.861600  0.331739
    C   C68   0.524900  0.737500  0.372700  -0.220896
    C   C69   0.524900  0.262500  0.872700  -0.221054
    C   C70   0.524700  0.319400  0.869800  -0.159282
    C   C71   0.884300  0.064800  0.792500  0.756547
    C   C72   0.806400  0.092700  0.811200  -0.116585
    C   C73   0.726200  0.108400  0.742300  0.092065
    C   C74   0.654300  0.135900  0.759400  -0.445731
    C   C75   0.665000  0.146900  0.847400  0.544174
    C   C76   0.742000  0.130400  0.917100  -0.299842
    C   C77   0.813300  0.103500  0.899500  -0.065126
    C   C78   0.124000  0.050500  0.051200  0.073387
    C   C79   0.524700  0.680600  0.369800  -0.159309
    C   C80   0.177200  0.057200  0.140900  -0.086236
    C   C81   0.272800  0.043300  0.171700  0.144333
    C   C82   0.308900  0.026400  0.107300  -0.208302
    C   C83   0.250800  0.021400  0.018200  0.105221
    C   C84   0.327300  0.043400  0.268800  -0.191483
    C   C85   0.401000  0.010800  0.308900  -0.096886
    C   C86   0.451600  0.006200  0.406500  0.132046
    C   C87   0.506400  0.959500  0.440900  0.036862
    C   C88   0.446300  0.046500  0.467100  -0.318676
    C   C89   0.099500  0.909500  0.857000  0.481042
    C   C90   0.884300  0.935200  0.292500  0.756489
    C   C91   0.098000  0.848100  0.857400  0.108012
    C   C92   0.171700  0.819300  0.847000  -0.088803
    C   C93   0.171800  0.761900  0.847900  -0.234075
    C   C94   0.099300  0.734000  0.861600  0.331765
    C   C95   0.024900  0.762500  0.872700  -0.221048
    C   C96   0.024700  0.819400  0.869800  -0.159286
    C   C97   0.384300  0.564800  0.792500  0.756555
    C   C98   0.306400  0.592700  0.811200  -0.116596
    C   C99   0.226200  0.608400  0.742300  0.092058
    C   C100  0.154300  0.635900  0.759400  -0.445744
    C   C101  0.806400  0.907300  0.311200  -0.116514
    C   C102  0.165000  0.646900  0.847400  0.544197
    C   C103  0.242000  0.630400  0.917100  -0.299865
    C   C104  0.313300  0.603500  0.899500  -0.065104
    C   C105  0.677200  0.442800  0.640900  -0.086275
    C   C106  0.726200  0.891600  0.242300  0.092035
    C   C107  0.654300  0.864100  0.259400  -0.445899
    C   C108  0.665000  0.853100  0.347400  0.544199
    C   C109  0.742000  0.869600  0.417100  -0.299911
    C   C110  0.813300  0.896500  0.399500  -0.065166
    C   C111  0.124000  0.949500  0.551200  0.073467
    C   C112  0.177200  0.942800  0.640900  -0.086264
    C   C113  0.272800  0.956700  0.671700  0.144270
    C   C114  0.308900  0.973600  0.607300  -0.208366
    C   C115  0.250800  0.978600  0.518200  0.105279
    C   C116  0.772800  0.456700  0.671700  0.144287
    C   C117  0.327300  0.956600  0.768800  -0.191225
    C   C118  0.401000  0.989200  0.808900  -0.097168
    C   C119  0.451600  0.993800  0.906500  0.132173
    C   C120  0.506400  0.040500  0.940900  0.036792
    C   C121  0.446300  0.953500  0.967100  -0.318732
    C   C122  0.099500  0.090500  0.357000  0.480993
    C   C123  0.098000  0.151900  0.357400  0.108083
    C   C124  0.171700  0.180700  0.347000  -0.088891
    C   C125  0.171800  0.238100  0.347900  -0.234015
    C   C126  0.099300  0.266000  0.361600  0.331702
    C   C127  0.808900  0.473600  0.607300  -0.208373
    C   C128  0.024900  0.237500  0.372700  -0.221028
    C   C129  0.024700  0.180600  0.369800  -0.159307
    C   C130  0.384300  0.435200  0.292500  0.756496
    C   C131  0.306400  0.407300  0.311200  -0.116530
    C   C132  0.226200  0.391600  0.242300  0.092025
    C   C133  0.154300  0.364100  0.259400  -0.445707
    C   C134  0.165000  0.353100  0.347400  0.544158
    C   C135  0.242000  0.369600  0.417100  -0.299828
    C   C136  0.313300  0.396500  0.399500  -0.065163
    C   C137  0.376000  0.449500  0.948800  0.073483
    C   C138  0.750800  0.478600  0.518200  0.105275
    C   C139  0.322800  0.442800  0.859100  -0.086289
    C   C140  0.227200  0.456700  0.828300  0.144304
    C   C141  0.191100  0.473600  0.892700  -0.208387
    C   C142  0.249200  0.478600  0.981800  0.105287
    C   C143  0.172700  0.456600  0.731200  -0.191271
    C   C144  0.099000  0.489200  0.691100  -0.097137
    C   C145  0.048400  0.493800  0.593500  0.132160
    C   C146  0.993600  0.540500  0.559100  0.036777
    C   C147  0.053700  0.453500  0.532900  -0.318708
    C   C148  0.400500  0.590500  0.143000  0.481016
    C   C149  0.827300  0.456600  0.768800  -0.191244
    C   C150  0.402000  0.651900  0.142600  0.108120
    C   C151  0.328300  0.680700  0.153000  -0.088923
    C   C152  0.328200  0.738100  0.152100  -0.234010
    C   C153  0.400700  0.766000  0.138400  0.331676
    C   C154  0.475100  0.737500  0.127300  -0.220951
    C   C155  0.475300  0.680600  0.130200  -0.159365
    C   C156  0.115700  0.935200  0.207500  0.756499
    C   C157  0.193600  0.907300  0.188800  -0.116548
    C   C158  0.273800  0.891600  0.257700  0.092054
    C   C159  0.345700  0.864100  0.240600  -0.445726
    C   C160  0.901000  0.489200  0.808900  -0.097153
    C   C161  0.335000  0.853100  0.152600  0.544213
    C   C162  0.258000  0.869600  0.082900  -0.299862
    C   C163  0.186700  0.896500  0.100500  -0.065157
    C   C164  0.876000  0.949500  0.948800  0.073487
    C   C165  0.822800  0.942800  0.859100  -0.086282
    C   C166  0.727200  0.956700  0.828300  0.144293
    C   C167  0.691100  0.973600  0.892700  -0.208374
    C   C168  0.749200  0.978600  0.981800  0.105279
    C   C169  0.672700  0.956600  0.731200  -0.191265
    C   C170  0.599000  0.989200  0.691100  -0.097137
    C   C171  0.951600  0.493800  0.906500  0.132160
    C   C172  0.548400  0.993800  0.593500  0.132164
    C   C173  0.493600  0.040500  0.559100  0.036784
    C   C174  0.553700  0.953500  0.532900  -0.318726
    C   C175  0.900500  0.090500  0.143000  0.480986
    C   C176  0.902000  0.151900  0.142600  0.108086
    C   C177  0.828300  0.180700  0.153000  -0.088882
    C   C178  0.828200  0.238100  0.152100  -0.234024
    C   C179  0.900700  0.266000  0.138400  0.331704
    C   C180  0.975100  0.237500  0.127300  -0.221030
    C   C181  0.975300  0.180600  0.130200  -0.159312
    C   C182  0.006400  0.540500  0.940900  0.036794
    C   C183  0.615700  0.435200  0.207500  0.756501
    C   C184  0.693600  0.407300  0.188800  -0.116538
    C   C185  0.773800  0.391600  0.257700  0.092035
    C   C186  0.845700  0.364100  0.240600  -0.445722
    C   C187  0.835000  0.353100  0.152600  0.544169
    C   C188  0.758000  0.369600  0.082900  -0.299840
    C   C189  0.686700  0.396500  0.100500  -0.065154
    C   C190  0.376000  0.550500  0.448800  0.073416
    C   C191  0.322800  0.557200  0.359100  -0.086259
    C   C192  0.227200  0.543300  0.328300  0.144368
    H   H1    0.558800  0.440500  0.531800  0.090488
    H   H2    0.721700  0.758000  0.339100  0.101840
    H   H3    0.777600  0.509700  0.975400  0.121345
    H   H4    0.808800  0.568400  0.305600  0.137735
    H   H5    0.922700  0.488600  0.271000  0.116235
    H   H6    0.011300  0.431500  0.400700  0.046589
    H   H7    0.909500  0.578800  0.444800  0.159128
    H   H8    0.722500  0.338700  0.839300  0.101886
    H   H9    0.721700  0.242000  0.839100  0.101752
    H   H10   0.474900  0.243100  0.882000  0.141127
    H   H11   0.473600  0.339300  0.876500  0.105518
    H   H12   0.719600  0.100500  0.681700  0.037618
    H   H13   0.474900  0.756900  0.382000  0.141087
    H   H14   0.598800  0.146900  0.711100  0.214032
    H   H15   0.746900  0.137300  0.977700  0.114220
    H   H16   0.868100  0.092200  0.948400  0.135639
    H   H17   0.058800  0.059500  0.031800  0.090518
    H   H18   0.149600  0.071200  0.181600  0.113374
    H   H19   0.374200  0.018100  0.124800  0.075944
    H   H20   0.277600  0.009700  0.975400  0.121354
    H   H21   0.308800  0.068400  0.305600  0.137741
    H   H22   0.422700  0.988600  0.271000  0.116216
    H   H23   0.511300  0.931500  0.400700  0.046589
    H   H24   0.473600  0.660700  0.376500  0.105510
    H   H25   0.409500  0.078800  0.444800  0.159146
    H   H26   0.222500  0.838700  0.839300  0.101884
    H   H27   0.221700  0.742000  0.839100  0.101757
    H   H28   0.974900  0.743100  0.882000  0.141120
    H   H29   0.973600  0.839300  0.876500  0.105514
    H   H30   0.219600  0.600500  0.681700  0.037624
    H   H31   0.098800  0.646900  0.711100  0.214040
    H   H32   0.246900  0.637300  0.977700  0.114225
    H   H33   0.368100  0.592200  0.948400  0.135629
    H   H34   0.719600  0.899500  0.181700  0.037630
    H   H35   0.598800  0.853100  0.211100  0.214141
    H   H36   0.746900  0.862700  0.477700  0.114265
    H   H37   0.868100  0.907800  0.448400  0.135661
    H   H38   0.058800  0.940500  0.531800  0.090488
    H   H39   0.149600  0.928800  0.681600  0.113364
    H   H40   0.374200  0.981900  0.624800  0.075976
    H   H41   0.649600  0.428800  0.681600  0.113364
    H   H42   0.277600  0.990300  0.475400  0.121340
    H   H43   0.308800  0.931600  0.805600  0.137710
    H   H44   0.422700  0.011400  0.771000  0.116312
    H   H45   0.511300  0.068500  0.900700  0.046598
    H   H46   0.409500  0.921200  0.944800  0.159147
    H   H47   0.222500  0.161300  0.339300  0.101923
    H   H48   0.221700  0.258000  0.339100  0.101744
    H   H49   0.974900  0.256900  0.382000  0.141123
    H   H50   0.973600  0.160700  0.376500  0.105510
    H   H51   0.219600  0.399500  0.181700  0.037621
    H   H52   0.874200  0.481900  0.624800  0.075979
    H   H53   0.098800  0.353100  0.211100  0.214026
    H   H54   0.246900  0.362700  0.477700  0.114230
    H   H55   0.368100  0.407800  0.448400  0.135644
    H   H56   0.441200  0.440500  0.968200  0.090485
    H   H57   0.350400  0.428800  0.818400  0.113364
    H   H58   0.125800  0.481900  0.875200  0.075983
    H   H59   0.222400  0.490300  0.024600  0.121337
    H   H60   0.191200  0.431600  0.694400  0.137733
    H   H61   0.077300  0.511400  0.729000  0.116307
    H   H62   0.988700  0.568500  0.599300  0.046597
    H   H63   0.777600  0.490300  0.475400  0.121338
    H   H64   0.090500  0.421200  0.555200  0.159134
    H   H65   0.277500  0.661300  0.160700  0.101933
    H   H66   0.278300  0.758000  0.160900  0.101740
    H   H67   0.525100  0.756900  0.118000  0.141079
    H   H68   0.526400  0.660700  0.123500  0.105522
    H   H69   0.280400  0.899500  0.318300  0.037611
    H   H70   0.401200  0.853100  0.288900  0.214024
    H   H71   0.253100  0.862700  0.022300  0.114233
    H   H72   0.131900  0.907800  0.051600  0.135649
    H   H73   0.941200  0.940500  0.968200  0.090484
    H   H74   0.808800  0.431600  0.805600  0.137720
    H   H75   0.850400  0.928800  0.818400  0.113363
    H   H76   0.625800  0.981900  0.875200  0.075978
    H   H77   0.722400  0.990300  0.024600  0.121341
    H   H78   0.691200  0.931600  0.694400  0.137732
    H   H79   0.577300  0.011400  0.729000  0.116305
    H   H80   0.488700  0.068500  0.599300  0.046601
    H   H81   0.590500  0.921200  0.555200  0.159134
    H   H82   0.777500  0.161300  0.160700  0.101920
    H   H83   0.778300  0.258000  0.160900  0.101746
    H   H84   0.025100  0.256900  0.118000  0.141124
    H   H85   0.922700  0.511400  0.771000  0.116307
    H   H86   0.026400  0.160700  0.123500  0.105515
    H   H87   0.780400  0.399500  0.318300  0.037617
    H   H88   0.901200  0.353100  0.288900  0.214032
    H   H89   0.753100  0.362700  0.022300  0.114232
    H   H90   0.631900  0.407800  0.051600  0.135640
    H   H91   0.441200  0.559500  0.468200  0.090514
    H   H92   0.350400  0.571200  0.318400  0.113378
    H   H93   0.125800  0.518100  0.375200  0.075965
    H   H94   0.222400  0.509700  0.524600  0.121348
    H   H95   0.191200  0.568400  0.194400  0.137752
    H   H96   0.011300  0.568500  0.900700  0.046593
    H   H97   0.077300  0.488600  0.229000  0.116237
    H   H98   0.988700  0.431500  0.099300  0.046589
    H   H99   0.090500  0.578800  0.055200  0.159137
    H   H100  0.277500  0.338700  0.660700  0.101882
    H   H101  0.278300  0.242000  0.660900  0.101756
    H   H102  0.525100  0.243100  0.618000  0.141127
    H   H103  0.526400  0.339300  0.623500  0.105518
    H   H104  0.280400  0.100500  0.818300  0.037614
    H   H105  0.401200  0.146900  0.788900  0.214043
    H   H106  0.253100  0.137300  0.522300  0.114224
    H   H107  0.909500  0.421200  0.944800  0.159136
    H   H108  0.131900  0.092200  0.551600  0.135636
    H   H109  0.941200  0.059500  0.468200  0.090523
    H   H110  0.850400  0.071200  0.318400  0.113373
    H   H111  0.625800  0.018100  0.375200  0.075919
    H   H112  0.722400  0.009700  0.524600  0.121356
    H   H113  0.691200  0.068400  0.194400  0.137747
    H   H114  0.577300  0.988600  0.229000  0.116297
    H   H115  0.488700  0.931500  0.099300  0.046558
    H   H116  0.590500  0.078800  0.055200  0.159139
    H   H117  0.777500  0.838700  0.660700  0.101879
    H   H118  0.722500  0.661300  0.339300  0.101886
    H   H119  0.778300  0.742000  0.660900  0.101747
    H   H120  0.025100  0.743100  0.618000  0.141139
    H   H121  0.026400  0.839300  0.623500  0.105513
    H   H122  0.780400  0.600500  0.818300  0.037618
    H   H123  0.901200  0.646900  0.788900  0.214045
    H   H124  0.753100  0.637300  0.522300  0.114182
    H   H125  0.631900  0.592200  0.551600  0.135651
    H   H126  0.558800  0.559500  0.031800  0.090517
    H   H127  0.649600  0.571200  0.181600  0.113360
    H   H128  0.874200  0.518100  0.124800  0.075963
    N   N1    0.658000  0.467820  0.488800  -0.289062
    N   N2    0.158000  0.967820  0.488800  -0.289067
    N   N3    0.342000  0.467820  0.011200  -0.289074
    N   N4    0.842000  0.967820  0.011200  -0.289080
    N   N5    0.342000  0.532180  0.511200  -0.289046
    N   N6    0.842000  0.032180  0.511200  -0.289046
    N   N7    0.658000  0.532180  0.988800  -0.289021
    N   N8    0.158000  0.032180  0.988800  -0.289017
    O   O1    0.671400  0.565560  0.357000  -0.514074
    O   O2    0.459500  0.445440  0.357400  -0.667064
    O   O3    0.328600  0.565560  0.143000  -0.514085
    O   O4    0.472600  0.564220  0.142300  -0.579165
    O   O5    0.406600  0.824110  0.134900  -0.393186
    O   O6    0.130000  0.946460  0.288500  -0.682657
    O   O7    0.040500  0.945440  0.142600  -0.667065
    O   O8    0.828600  0.065560  0.143000  -0.514070
    O   O9    0.972600  0.064220  0.142300  -0.579164
    O   O10   0.906600  0.324110  0.134900  -0.393176
    O   O11   0.630000  0.446460  0.288500  -0.682648
    O   O12   0.527400  0.564220  0.357700  -0.579171
    O   O13   0.540500  0.445440  0.142600  -0.667066
    O   O14   0.328600  0.434440  0.643000  -0.514124
    O   O15   0.472600  0.435780  0.642300  -0.579175
    O   O16   0.406600  0.175890  0.634900  -0.393190
    O   O17   0.130000  0.053540  0.788500  -0.682687
    O   O18   0.040500  0.054560  0.642600  -0.667085
    O   O19   0.828600  0.934440  0.643000  -0.514114
    O   O20   0.972600  0.935780  0.642300  -0.579176
    O   O21   0.906600  0.675890  0.634900  -0.393164
    O   O22   0.630000  0.553540  0.788500  -0.682685
    O   O23   0.593400  0.824110  0.365100  -0.393112
    O   O24   0.540500  0.554560  0.642600  -0.667090
    O   O25   0.671400  0.434440  0.857000  -0.514118
    O   O26   0.527400  0.435780  0.857700  -0.579166
    O   O27   0.593400  0.175890  0.865100  -0.393190
    O   O28   0.870000  0.053540  0.711500  -0.682688
    O   O29   0.959500  0.054560  0.857400  -0.667085
    O   O30   0.171400  0.934440  0.857000  -0.514111
    O   O31   0.027400  0.935780  0.857700  -0.579163
    O   O32   0.093400  0.675890  0.865100  -0.393204
    O   O33   0.370000  0.553540  0.711500  -0.682685
    O   O34   0.870000  0.946460  0.211500  -0.682652
    O   O35   0.459500  0.554560  0.857400  -0.667087
    O   O36   0.959500  0.945440  0.357400  -0.667070
    O   O37   0.171400  0.065560  0.357000  -0.514076
    O   O38   0.027400  0.064220  0.357700  -0.579167
    O   O39   0.093400  0.324110  0.365100  -0.393176
    O   O40   0.370000  0.446460  0.211500  -0.682652
    Zn  Zn1   0.573580  0.487340  0.361790  1.039198
    Zn  Zn2   0.073580  0.987340  0.361790  1.039228
    Zn  Zn3   0.426420  0.487340  0.138210  1.039215
    Zn  Zn4   0.926420  0.987340  0.138210  1.039230
    Zn  Zn5   0.426420  0.512660  0.638210  1.039234
    Zn  Zn6   0.926420  0.012660  0.638210  1.039249
    Zn  Zn7   0.573580  0.512660  0.861790  1.039214
    Zn  Zn8   0.073580  0.012660  0.861790  1.039228
