# Generated by REPEAT Assigner based on pymatgen
data_DB12-LEMHAM_clean
_audit_creation_date              2022-05-24
_audit_creation_method            REPEAT_Assigner
_cell_length_a                    14.719000
_cell_length_b                    14.734000
_cell_length_c                    17.891000
_cell_angle_alpha                 90.000000
_cell_angle_beta                  90.000000
_cell_angle_gamma                 90.020000
_cell_volume                      3880.016389
_symmetry_space_group_name_H-M    P1
_symmetry_Int_Tables_number       1
loop_
    _symmetry_equiv_pos_site_id
    _symmetry_equiv_pos_as_xyz
    1  x,y,z
loop_
    _atom_site_type_symbol
    _atom_site_label
    _atom_site_fract_x
    _atom_site_fract_y
    _atom_site_fract_z
    _atom_type_partial_charge
    Co  Co1   0.994800  0.118600  0.331300  1.160472
    Co  Co2   0.013200  0.880400  0.172100  1.228381
    Co  Co3   0.368500  0.254000  0.422300  1.239553
    Co  Co4   0.870600  0.762400  0.418300  1.230077
    P   P1    0.147900  0.246000  0.400100  1.010526
    P   P2    0.003000  0.899200  0.352300  1.099073
    P   P3    0.988500  0.102200  0.149900  1.196326
    P   P4    0.850600  0.761200  0.102700  1.199883
    O   O1    0.985800  0.999200  0.375900  -0.430928
    O   O2    0.904800  0.869100  0.356400  -0.579634
    O   O3    0.750000  0.768900  0.125100  -0.483516
    O   O4    0.112100  0.176200  0.342000  -0.581711
    O   O5    0.144900  0.199600  0.479400  -0.605358
    O   O6    0.056900  0.845400  0.413300  -0.624886
    O   O7    0.950200  0.101500  0.228100  -0.640888
    O   O8    0.901000  0.816100  0.160800  -0.619210
    O   O9    0.012200  0.002800  0.128000  -0.470082
    O   O10   0.247100  0.262100  0.377200  -0.433188
    O   O11   0.880000  0.659200  0.111900  -0.634083
    O   O12   0.869200  0.796300  0.026700  -0.722386
    O   O13   0.916500  0.133200  0.094300  -0.613900
    O   O14   0.095800  0.333400  0.401200  -0.567398
    O   O15   0.074300  0.158400  0.145700  -0.690398
    O   O16   0.047500  0.878800  0.274900  -0.666815
    Co  Co5   0.494800  0.618600  0.831300  1.160624
    Co  Co6   0.513200  0.380400  0.672100  1.228463
    Co  Co7   0.868500  0.754000  0.922300  1.239479
    Co  Co8   0.370600  0.262400  0.918300  1.230007
    P   P5    0.647900  0.746000  0.900100  1.010696
    P   P6    0.503000  0.399200  0.852300  1.099119
    P   P7    0.488500  0.602200  0.649900  1.196409
    P   P8    0.350600  0.261200  0.602700  1.199715
    O   O17   0.485800  0.499200  0.875900  -0.430906
    O   O18   0.404800  0.369100  0.856400  -0.579652
    O   O19   0.250000  0.268900  0.625100  -0.483296
    O   O20   0.612100  0.676200  0.842000  -0.581708
    O   O21   0.644900  0.699600  0.979400  -0.605573
    O   O22   0.556900  0.345400  0.913300  -0.624938
    O   O23   0.450200  0.601500  0.728100  -0.640906
    O   O24   0.401000  0.316100  0.660800  -0.619237
    O   O25   0.512200  0.502800  0.628000  -0.470107
    O   O26   0.747100  0.762100  0.877200  -0.433216
    O   O27   0.380000  0.159200  0.611900  -0.634048
    O   O28   0.369200  0.296300  0.526700  -0.722325
    O   O29   0.416500  0.633200  0.594300  -0.613913
    O   O30   0.595800  0.833400  0.901200  -0.567490
    O   O31   0.574300  0.658400  0.645700  -0.690401
    O   O32   0.547500  0.378800  0.774900  -0.666862
    Co  Co9   0.005200  0.381400  0.331300  1.160609
    Co  Co10  0.986800  0.619600  0.172100  1.228354
    Co  Co11  0.631500  0.246000  0.422300  1.239526
    Co  Co12  0.129400  0.737600  0.418300  1.230014
    P   P9    0.852100  0.254000  0.400100  1.010526
    P   P10   0.997000  0.600800  0.352300  1.099091
    P   P11   0.011500  0.397800  0.149900  1.196371
    P   P12   0.149400  0.738800  0.102700  1.199660
    O   O33   0.014200  0.500800  0.375900  -0.430928
    O   O34   0.095200  0.630900  0.356400  -0.579632
    O   O35   0.250000  0.731100  0.125100  -0.483250
    O   O36   0.887900  0.323800  0.342000  -0.581705
    O   O37   0.855100  0.300400  0.479400  -0.605354
    O   O38   0.943100  0.654600  0.413300  -0.624889
    O   O39   0.049800  0.398500  0.228100  -0.640895
    O   O40   0.099000  0.683900  0.160800  -0.619244
    O   O41   0.987800  0.497200  0.128000  -0.470087
    O   O42   0.752900  0.237900  0.377200  -0.433206
    O   O43   0.120000  0.840800  0.111900  -0.634042
    O   O44   0.130800  0.703700  0.026700  -0.722313
    O   O45   0.083500  0.366800  0.094300  -0.613915
    O   O46   0.904200  0.166600  0.401200  -0.567395
    O   O47   0.925700  0.341600  0.145700  -0.690412
    O   O48   0.952500  0.621200  0.274900  -0.666834
    Co  Co13  0.505200  0.881400  0.831300  1.160311
    Co  Co14  0.486800  0.119600  0.672100  1.228484
    Co  Co15  0.131500  0.746000  0.922300  1.239482
    Co  Co16  0.629400  0.237600  0.918300  1.230422
    P   P13   0.352100  0.754000  0.900100  1.010557
    P   P14   0.497000  0.100800  0.852300  1.099176
    P   P15   0.511500  0.897800  0.649900  1.196393
    P   P16   0.649400  0.238800  0.602700  1.199697
    O   O49   0.514200  0.000800  0.875900  -0.430936
    O   O50   0.595200  0.130900  0.856400  -0.579698
    O   O51   0.750000  0.231100  0.625100  -0.483264
    O   O52   0.387900  0.823800  0.842000  -0.581726
    O   O53   0.355100  0.800400  0.979400  -0.605370
    O   O54   0.443100  0.154600  0.913300  -0.624956
    O   O55   0.549800  0.898500  0.728100  -0.640912
    O   O56   0.599000  0.183900  0.660800  -0.619252
    O   O57   0.487800  0.997200  0.628000  -0.470097
    O   O58   0.252900  0.737900  0.877200  -0.433198
    O   O59   0.620000  0.340800  0.611900  -0.634048
    O   O60   0.630800  0.203700  0.526700  -0.722321
    O   O61   0.583500  0.866800  0.594300  -0.613907
    O   O62   0.404200  0.666600  0.901200  -0.567398
    O   O63   0.425700  0.841600  0.645700  -0.690398
    O   O64   0.452500  0.121200  0.774900  -0.666873
    Co  Co17  0.005200  0.881400  0.668700  1.160364
    Co  Co18  0.986800  0.119600  0.827900  1.228396
    Co  Co19  0.631500  0.746000  0.577700  1.239599
    Co  Co20  0.129400  0.237600  0.581700  1.230140
    P   P17   0.852100  0.754000  0.599900  1.010525
    P   P18   0.997000  0.100800  0.647700  1.099082
    P   P19   0.011500  0.897800  0.850100  1.196380
    P   P20   0.149400  0.238800  0.897300  1.199634
    O   O65   0.014200  0.000800  0.624100  -0.430935
    O   O66   0.095200  0.130900  0.643600  -0.579619
    O   O67   0.250000  0.231100  0.874900  -0.483247
    O   O68   0.887900  0.823800  0.658000  -0.581713
    O   O69   0.855100  0.800400  0.520600  -0.605346
    O   O70   0.943100  0.154600  0.586700  -0.624889
    O   O71   0.049800  0.898500  0.771900  -0.640908
    O   O72   0.099000  0.183900  0.839200  -0.619234
    O   O73   0.987800  0.997200  0.872000  -0.470077
    O   O74   0.752900  0.737900  0.622800  -0.433198
    O   O75   0.120000  0.340800  0.888100  -0.634040
    O   O76   0.130800  0.203700  0.973300  -0.722310
    O   O77   0.083500  0.866800  0.905700  -0.613912
    O   O78   0.904200  0.666600  0.598800  -0.567402
    O   O79   0.925700  0.841600  0.854300  -0.690401
    O   O80   0.952500  0.121200  0.725100  -0.666827
    Co  Co21  0.505200  0.381400  0.168700  1.160597
    Co  Co22  0.486800  0.619600  0.327900  1.228318
    Co  Co23  0.131500  0.246000  0.077700  1.239405
    Co  Co24  0.629400  0.737600  0.081700  1.230415
    P   P21   0.352100  0.254000  0.099900  1.010535
    P   P22   0.497000  0.600800  0.147700  1.099146
    P   P23   0.511500  0.397800  0.350100  1.196376
    P   P24   0.649400  0.738800  0.397300  1.199681
    O   O81   0.514200  0.500800  0.124100  -0.430907
    O   O82   0.595200  0.630900  0.143600  -0.579685
    O   O83   0.750000  0.731100  0.374900  -0.483257
    O   O84   0.387900  0.323800  0.158000  -0.581713
    O   O85   0.355100  0.300400  0.020600  -0.605363
    O   O86   0.443100  0.654600  0.086700  -0.624939
    O   O87   0.549800  0.398500  0.271900  -0.640908
    O   O88   0.599000  0.683900  0.339200  -0.619256
    O   O89   0.487800  0.497200  0.372000  -0.470103
    O   O90   0.252900  0.237900  0.122800  -0.433202
    O   O91   0.620000  0.840800  0.388100  -0.634049
    O   O92   0.630800  0.703700  0.473300  -0.722309
    O   O93   0.583500  0.366800  0.405700  -0.613909
    O   O94   0.404200  0.166600  0.098800  -0.567402
    O   O95   0.425700  0.341600  0.354300  -0.690385
    O   O96   0.452500  0.621200  0.225100  -0.666870
    Co  Co25  0.994800  0.618600  0.668700  1.160441
    Co  Co26  0.013200  0.380400  0.827900  1.228283
    Co  Co27  0.368500  0.754000  0.577700  1.239550
    Co  Co28  0.870600  0.262400  0.581700  1.230064
    P   P25   0.147900  0.746000  0.599900  1.010512
    P   P26   0.003000  0.399200  0.647700  1.099050
    P   P27   0.988500  0.602200  0.850100  1.196330
    P   P28   0.850600  0.261200  0.897300  1.199854
    O   O97   0.985800  0.499200  0.624100  -0.430917
    O   O98   0.904800  0.369100  0.643600  -0.579618
    O   O99   0.750000  0.268900  0.874900  -0.483502
    O   O100  0.112100  0.676200  0.658000  -0.581707
    O   O101  0.144900  0.699600  0.520600  -0.605348
    O   O102  0.056900  0.345400  0.586700  -0.624873
    O   O103  0.950200  0.601500  0.771900  -0.640890
    O   O104  0.901000  0.316100  0.839200  -0.619205
    O   O105  0.012200  0.502800  0.872000  -0.470080
    O   O106  0.247100  0.762100  0.622800  -0.433183
    O   O107  0.880000  0.159200  0.888100  -0.634078
    O   O108  0.869200  0.296300  0.973300  -0.722379
    O   O109  0.916500  0.633200  0.905700  -0.613898
    O   O110  0.095800  0.833400  0.598800  -0.567409
    O   O111  0.074300  0.658400  0.854300  -0.690379
    O   O112  0.047500  0.378800  0.725100  -0.666806
    Co  Co29  0.494800  0.118600  0.168700  1.160519
    Co  Co30  0.513200  0.880400  0.327900  1.228406
    Co  Co31  0.868500  0.254000  0.077700  1.239471
    Co  Co32  0.370600  0.762400  0.081700  1.230148
    P   P29   0.647900  0.246000  0.099900  1.010695
    P   P30   0.503000  0.899200  0.147700  1.099101
    P   P31   0.488500  0.102200  0.350100  1.196398
    P   P32   0.350600  0.761200  0.397300  1.199703
    O   O113  0.485800  0.999200  0.124100  -0.430905
    O   O114  0.404800  0.869100  0.143600  -0.579642
    O   O115  0.250000  0.768900  0.374900  -0.483297
    O   O116  0.612100  0.176200  0.158000  -0.581716
    O   O117  0.644900  0.199600  0.020600  -0.605573
    O   O118  0.556900  0.845400  0.086700  -0.624935
    O   O119  0.450200  0.101500  0.271900  -0.640919
    O   O120  0.401000  0.816100  0.339200  -0.619238
    O   O121  0.512200  0.002800  0.372000  -0.470106
    O   O122  0.747100  0.262100  0.122800  -0.433223
    O   O123  0.380000  0.659200  0.388100  -0.634053
    O   O124  0.369200  0.796300  0.473300  -0.722319
    O   O125  0.416500  0.133200  0.405700  -0.613913
    O   O126  0.595800  0.333400  0.098800  -0.567488
    O   O127  0.574300  0.158400  0.354300  -0.690397
    O   O128  0.547500  0.878800  0.225100  -0.666864
