# Generated by REPEAT Assigner based on pymatgen
data_DB12-JETZAK_clean
_audit_creation_date              2022-05-24
_audit_creation_method            REPEAT_Assigner
_cell_length_a                    11.391800
_cell_length_b                    11.429900
_cell_length_c                    26.998000
_cell_angle_alpha                 90.000000
_cell_angle_beta                  90.000000
_cell_angle_gamma                 94.283000
_cell_volume                      3505.515085
_symmetry_space_group_name_H-M    P1
_symmetry_Int_Tables_number       1
loop_
    _symmetry_equiv_pos_site_id
    _symmetry_equiv_pos_as_xyz
    1  x,y,z
loop_
    _atom_site_type_symbol
    _atom_site_label
    _atom_site_fract_x
    _atom_site_fract_y
    _atom_site_fract_z
    _atom_type_partial_charge
    Mg  Mg1  0.860260  0.249970  0.461720  1.423982
    Mg  Mg2  0.639740  0.750030  0.961720  1.424009
    Mg  Mg3  0.139740  0.750030  0.538280  1.423955
    Mg  Mg4  0.360260  0.249970  0.038280  1.423981
    Mg  Mg5  0.000000  0.000000  0.500000  1.478472
    Mg  Mg6  0.500000  0.000000  0.000000  1.478505
    H   H1   0.176900  0.472000  0.460500  0.072640
    H   H2   0.352100  0.588300  0.473300  0.096508
    H   H3   0.495300  0.313800  0.539100  0.117067
    H   H4   0.320000  0.197500  0.526300  0.069406
    H   H5   0.761500  0.308100  0.622000  0.175222
    H   H6   0.712100  0.257700  0.703300  0.102363
    H   H7   0.776600  0.922300  0.674600  0.117472
    H   H8   0.826300  0.972400  0.593200  0.247064
    H   H9   0.794800  0.192100  0.787900  0.127708
    H   H10  0.708900  0.144400  0.865100  0.114970
    H   H11  0.541000  0.852500  0.807800  0.148814
    H   H12  0.617300  0.901400  0.729200  0.110174
    H   H13  0.323100  0.528000  0.960500  0.072642
    H   H14  0.147900  0.411700  0.973300  0.096518
    H   H15  0.004700  0.686200  0.039100  0.117066
    H   H16  0.180000  0.802500  0.026300  0.069419
    H   H17  0.738500  0.691900  0.122000  0.175220
    H   H18  0.787900  0.742300  0.203300  0.102368
    H   H19  0.723400  0.077700  0.174600  0.117475
    H   H20  0.673700  0.027600  0.093200  0.247051
    H   H21  0.705200  0.807900  0.287900  0.127704
    H   H22  0.791100  0.855600  0.365100  0.114974
    H   H23  0.959000  0.147500  0.307800  0.148819
    H   H24  0.882700  0.098600  0.229200  0.110172
    H   H25  0.823100  0.528000  0.539500  0.072676
    H   H26  0.647900  0.411700  0.526700  0.096515
    H   H27  0.504700  0.686200  0.460900  0.117065
    H   H28  0.680000  0.802500  0.473700  0.069410
    H   H29  0.238500  0.691900  0.378000  0.175203
    H   H30  0.287900  0.742300  0.296700  0.102332
    H   H31  0.223400  0.077700  0.325400  0.117465
    H   H32  0.173700  0.027600  0.406800  0.247025
    H   H33  0.205200  0.807900  0.212100  0.127727
    H   H34  0.291100  0.855600  0.134900  0.114999
    H   H35  0.459000  0.147500  0.192200  0.148838
    H   H36  0.382700  0.098600  0.270800  0.110202
    H   H37  0.676900  0.472000  0.039500  0.072670
    H   H38  0.852100  0.588300  0.026700  0.096509
    H   H39  0.995300  0.313800  0.960900  0.117066
    H   H40  0.820000  0.197500  0.973700  0.069416
    H   H41  0.261500  0.308100  0.878000  0.175208
    H   H42  0.212100  0.257700  0.796700  0.102336
    H   H43  0.276600  0.922300  0.825400  0.117466
    H   H44  0.326300  0.972400  0.906800  0.247014
    H   H45  0.294800  0.192100  0.712100  0.127732
    H   H46  0.208900  0.144400  0.634900  0.114997
    H   H47  0.041000  0.852500  0.692200  0.148844
    H   H48  0.117300  0.901400  0.770800  0.110199
    C   C1   0.115800  0.251500  0.480980  0.912855
    C   C2   0.232000  0.323800  0.492200  -0.290017
    C   C3   0.241500  0.439900  0.476500  0.028880
    C   C4   0.345600  0.509000  0.484000  -0.166605
    C   C5   0.440200  0.462000  0.507400  0.036610
    C   C6   0.430600  0.345900  0.523100  -0.183613
    C   C7   0.326500  0.276800  0.515600  0.024584
    C   C8   0.828500  0.181400  0.547760  0.601063
    C   C9   0.799400  0.145300  0.599690  0.077597
    C   C10  0.764800  0.229200  0.632650  -0.193561
    C   C11  0.735000  0.199100  0.681100  -0.129212
    C   C12  0.738200  0.084900  0.697320  0.055954
    C   C13  0.773200  0.001200  0.663940  -0.095801
    C   C14  0.803200  0.030800  0.615480  -0.234473
    C   C15  0.703100  0.052300  0.748700  0.155379
    C   C16  0.741000  0.125100  0.791600  -0.177500
    C   C17  0.695000  0.092500  0.837900  -0.112990
    C   C18  0.632000  0.990100  0.845250  -0.084046
    C   C19  0.594100  0.919900  0.803600  -0.042996
    C   C20  0.636300  0.951900  0.756500  -0.264033
    C   C21  0.593900  0.949400  0.896300  0.622957
    C   C22  0.384200  0.748500  0.980980  0.912860
    C   C23  0.268000  0.676200  0.992200  -0.289995
    C   C24  0.258500  0.560100  0.976500  0.028884
    C   C25  0.154400  0.491000  0.984000  -0.166631
    C   C26  0.059800  0.538000  0.007400  0.036616
    C   C27  0.069400  0.654100  0.023100  -0.183601
    C   C28  0.173500  0.723200  0.015600  0.024552
    C   C29  0.671500  0.818600  0.047760  0.601059
    C   C30  0.700600  0.854700  0.099690  0.077587
    C   C31  0.735200  0.770800  0.132650  -0.193547
    C   C32  0.765000  0.800900  0.181100  -0.129228
    C   C33  0.761800  0.915100  0.197320  0.055965
    C   C34  0.726800  0.998800  0.163940  -0.095814
    C   C35  0.696800  0.969200  0.115480  -0.234455
    C   C36  0.796900  0.947700  0.248700  0.155371
    C   C37  0.759000  0.874900  0.291600  -0.177489
    C   C38  0.805000  0.907500  0.337900  -0.113007
    C   C39  0.868000  0.009900  0.345250  -0.084022
    C   C40  0.905900  0.080100  0.303600  -0.043010
    C   C41  0.863700  0.048100  0.256500  -0.264023
    C   C42  0.906100  0.050600  0.396300  0.622922
    C   C43  0.884200  0.748500  0.519020  0.912747
    C   C44  0.768000  0.676200  0.507800  -0.289932
    C   C45  0.758500  0.560100  0.523500  0.028816
    C   C46  0.654400  0.491000  0.516000  -0.166587
    C   C47  0.559800  0.538000  0.492600  0.036578
    C   C48  0.569400  0.654100  0.476900  -0.183585
    C   C49  0.673500  0.723200  0.484400  0.024548
    C   C50  0.171500  0.818600  0.452240  0.601011
    C   C51  0.200600  0.854700  0.400310  0.077599
    C   C52  0.235200  0.770800  0.367350  -0.193568
    C   C53  0.265000  0.800900  0.318900  -0.129075
    C   C54  0.261800  0.915100  0.302680  0.055663
    C   C55  0.226800  0.998800  0.336060  -0.095728
    C   C56  0.196800  0.969200  0.384520  -0.234434
    C   C57  0.296900  0.947700  0.251300  0.155593
    C   C58  0.259000  0.874900  0.208400  -0.177541
    C   C59  0.305000  0.907500  0.162100  -0.113059
    C   C60  0.368000  0.009900  0.154750  -0.084007
    C   C61  0.405900  0.080100  0.196400  -0.043035
    C   C62  0.363700  0.048100  0.243500  -0.264105
    C   C63  0.406100  0.050600  0.103700  0.622943
    C   C64  0.615800  0.251500  0.019020  0.912821
    C   C65  0.732000  0.323800  0.007800  -0.289960
    C   C66  0.741500  0.439900  0.023500  0.028821
    C   C67  0.845600  0.509000  0.016000  -0.166588
    C   C68  0.940200  0.462000  0.992600  0.036588
    C   C69  0.930600  0.345900  0.976900  -0.183590
    C   C70  0.826500  0.276800  0.984400  0.024547
    C   C71  0.328500  0.181400  0.952240  0.600970
    C   C72  0.299400  0.145300  0.900310  0.077643
    C   C73  0.264800  0.229200  0.867350  -0.193580
    C   C74  0.235000  0.199100  0.818900  -0.129082
    C   C75  0.238200  0.084900  0.802680  0.055654
    C   C76  0.273200  0.001200  0.836060  -0.095722
    C   C77  0.303200  0.030800  0.884520  -0.234443
    C   C78  0.203100  0.052300  0.751300  0.155610
    C   C79  0.241000  0.125100  0.708400  -0.177557
    C   C80  0.195000  0.092500  0.662100  -0.113050
    C   C81  0.132000  0.990100  0.654750  -0.084008
    C   C82  0.094100  0.919900  0.696400  -0.043045
    C   C83  0.136300  0.951900  0.743500  -0.264104
    C   C84  0.093900  0.949400  0.603700  0.622940
    O   O1   0.811700  0.283990  0.534530  -0.609099
    O   O2   0.866860  0.109670  0.517050  -0.818467
    O   O3   0.577000  0.841900  0.902600  -0.779559
    O   O4   0.026650  0.309040  0.475870  -0.739837
    O   O5   0.563120  0.021560  0.926940  -0.515639
    O   O6   0.117520  0.142690  0.483130  -0.741078
    O   O7   0.688300  0.716010  0.034530  -0.609106
    O   O8   0.633140  0.890330  0.017050  -0.818471
    O   O9   0.923000  0.158100  0.402600  -0.779550
    O   O10  0.473350  0.690960  0.975870  -0.739858
    O   O11  0.936880  0.978440  0.426940  -0.515607
    O   O12  0.382480  0.857310  0.983130  -0.741080
    O   O13  0.188300  0.716010  0.465470  -0.609042
    O   O14  0.133140  0.890330  0.482950  -0.818421
    O   O15  0.423000  0.158100  0.097400  -0.779561
    O   O16  0.973350  0.690960  0.524130  -0.739821
    O   O17  0.436880  0.978440  0.073060  -0.515617
    O   O18  0.882480  0.857310  0.516870  -0.741029
    O   O19  0.311700  0.283990  0.965470  -0.609057
    O   O20  0.366860  0.109670  0.982950  -0.818414
    O   O21  0.077000  0.841900  0.597400  -0.779550
    O   O22  0.526650  0.309040  0.024130  -0.739833
    O   O23  0.063120  0.021560  0.573060  -0.515623
    O   O24  0.617520  0.142690  0.016870  -0.741072
