# Generated by REPEAT Assigner based on pymatgen
data_DB12-TEWGEJ_clean
_audit_creation_date              2022-05-24
_audit_creation_method            REPEAT_Assigner
_cell_length_a                    15.284100
_cell_length_b                    16.727900
_cell_length_c                    17.837400
_cell_angle_alpha                 117.963000
_cell_angle_beta                  115.368000
_cell_angle_gamma                 90.000000
_cell_volume                      3522.465698
_symmetry_space_group_name_H-M    P1
_symmetry_Int_Tables_number       1
loop_
    _symmetry_equiv_pos_site_id
    _symmetry_equiv_pos_as_xyz
    1  x,y,z
loop_
    _atom_site_type_symbol
    _atom_site_label
    _atom_site_fract_x
    _atom_site_fract_y
    _atom_site_fract_z
    _atom_type_partial_charge
    Cu  Cu1   0.500000  -0.000000  0.500000  0.579910
    Cu  Cu2   -0.000000  -0.000000  0.500000  0.580528
    H   H1    0.607100  0.889600  0.584000  0.085694
    H   H2    0.584700  0.801100  0.647200  0.103027
    H   H3    0.316700  0.861000  0.601600  0.139793
    H   H4    0.345800  0.946200  0.538000  0.142360
    H   H5    0.480200  0.728300  0.678200  -0.024830
    H   H6    0.364600  0.730300  0.636800  -0.011530
    H   H7    0.325400  0.992700  0.939000  0.136684
    H   H8    0.248800  0.882600  0.201600  0.059716
    H   H9    0.101000  0.794200  0.054600  0.101752
    H   H10   0.976900  0.194400  0.584000  0.084224
    H   H11   0.062500  0.346100  0.647200  0.103426
    H   H12   0.284900  0.240600  0.601600  0.136977
    H   H13   0.192200  0.091800  0.538000  0.144565
    H   H14   0.198000  0.449900  0.678200  -0.030442
    H   H15   0.272200  0.406500  0.636800  -0.017020
    H   H16   0.613600  0.446300  0.939000  0.136630
    H   H17   0.952800  0.819000  0.201600  0.059511
    H   H18   0.953600  0.760400  0.054600  0.101100
    H   H19   0.392900  0.110400  0.416000  0.085723
    H   H20   0.415300  0.198900  0.352800  0.103013
    H   H21   0.683300  0.139000  0.398400  0.139779
    H   H22   0.654200  0.053800  0.462000  0.142323
    H   H23   0.519800  0.271700  0.321800  -0.024818
    H   H24   0.635400  0.269700  0.363200  -0.011536
    H   H25   0.674600  0.007300  0.061000  0.136650
    H   H26   0.751200  0.117400  0.798400  0.059696
    H   H27   0.899000  0.205800  0.945400  0.101761
    H   H28   0.023100  0.805600  0.416000  0.084207
    H   H29   0.937500  0.653900  0.352800  0.103428
    H   H30   0.715100  0.759400  0.398400  0.136993
    H   H31   0.807800  0.908200  0.462000  0.144585
    H   H32   0.802000  0.550100  0.321800  -0.030434
    H   H33   0.727800  0.593500  0.363200  -0.017003
    H   H34   0.386400  0.553700  0.061000  0.136641
    H   H35   0.047200  0.181000  0.798400  0.059503
    H   H36   0.046400  0.239600  0.945400  0.101094
    C   C1    0.547390  0.883490  0.587580  0.078208
    C   C2    0.534960  0.831060  0.626120  -0.124546
    C   C3    0.449270  0.823670  0.632940  0.039939
    C   C4    0.377200  0.866200  0.599000  -0.157894
    C   C5    0.395070  0.916770  0.560940  -0.021562
    C   C6    0.434060  0.769760  0.676920  0.413424
    C   C7    0.379510  0.870110  0.798820  0.416574
    C   C8    0.433590  0.940490  0.905980  -0.049802
    C   C9    0.534550  0.943650  0.939700  -0.069442
    C   C10   0.547630  0.875930  0.856260  0.491482
    C   C11   0.394810  0.995710  0.963420  -0.055174
    C   C12   0.282370  0.967470  0.382540  0.756330
    C   C13   0.189810  0.905210  0.290420  -0.120762
    C   C14   0.188560  0.870060  0.202120  0.020619
    C   C15   0.100600  0.816800  0.114200  -0.123084
    C   C16   0.040190  0.204090  0.587580  0.081600
    C   C17   0.091160  0.295060  0.626120  -0.126307
    C   C18   0.183670  0.309270  0.632940  0.033175
    C   C19   0.221800  0.232800  0.599000  -0.152178
    C   C20   0.165870  0.144170  0.560940  -0.025376
    C   C21   0.242860  0.407160  0.676920  0.435416
    C   C22   0.419310  0.428710  0.798820  0.418400
    C   C23   0.472390  0.465490  0.905980  -0.050962
    C   C24   0.405150  0.496050  0.939700  -0.068972
    C   C25   0.308630  0.480330  0.856260  0.496854
    C   C26   0.568610  0.467710  0.963420  -0.055884
    C   C27   0.100170  0.915070  0.382540  0.759352
    C   C28   0.100610  0.885210  0.290420  -0.122928
    C   C29   0.013560  0.832060  0.202120  0.019559
    C   C30   0.013600  0.797400  0.114200  -0.120678
    C   C31   0.452610  0.116510  0.412420  0.078148
    C   C32   0.465040  0.168940  0.373880  -0.124499
    C   C33   0.550730  0.176330  0.367060  0.039919
    C   C34   0.622800  0.133800  0.401000  -0.157883
    C   C35   0.604930  0.083230  0.439060  -0.021520
    C   C36   0.565940  0.230240  0.323080  0.413434
    C   C37   0.620490  0.129890  0.201180  0.416749
    C   C38   0.566410  0.059510  0.094020  -0.050053
    C   C39   0.465450  0.056350  0.060300  -0.069356
    C   C40   0.452370  0.124070  0.143740  0.491554
    C   C41   0.605190  0.004290  0.036580  -0.055018
    C   C42   0.717630  0.032530  0.617460  0.756454
    C   C43   0.810190  0.094790  0.709580  -0.120868
    C   C44   0.811440  0.129940  0.797880  0.020677
    C   C45   0.899400  0.183200  0.885800  -0.123120
    C   C46   0.959810  0.795910  0.412420  0.081631
    C   C47   0.908840  0.704940  0.373880  -0.126317
    C   C48   0.816330  0.690730  0.367060  0.033183
    C   C49   0.778200  0.767200  0.401000  -0.152191
    C   C50   0.834130  0.855830  0.439060  -0.025395
    C   C51   0.757140  0.592840  0.323080  0.435378
    C   C52   0.580690  0.571290  0.201180  0.418392
    C   C53   0.527610  0.534510  0.094020  -0.050950
    C   C54   0.594850  0.503950  0.060300  -0.068968
    C   C55   0.691370  0.519670  0.143740  0.496824
    C   C56   0.431390  0.532290  0.036580  -0.055898
    C   C57   0.899830  0.084930  0.617460  0.759307
    C   C58   0.899390  0.114790  0.709580  -0.122884
    C   C59   0.986440  0.167940  0.797880  0.019556
    C   C60   0.986400  0.202600  0.885800  -0.120652
    N   N1    0.478130  0.925430  0.555460  -0.115846
    N   N2    0.452950  0.834950  0.775700  -0.318180
    N   N3    0.077330  0.130030  0.555460  -0.116624
    N   N4    0.322750  0.440750  0.775700  -0.328215
    N   N5    0.521870  0.074570  0.444540  -0.115840
    N   N6    0.547050  0.165050  0.224300  -0.318279
    N   N7    0.922670  0.869970  0.444540  -0.116628
    N   N8    0.677250  0.559250  0.224300  -0.328185
    O   O1    0.624700  0.858800  0.855600  -0.464504
    O   O2    0.291410  0.847610  0.742020  -0.410773
    O   O3    0.362320  0.939320  0.390240  -0.599049
    O   O4    0.279450  0.042350  0.445100  -0.609578
    O   O5    0.230900  0.496800  0.855600  -0.466728
    O   O6    0.450610  0.394410  0.742020  -0.409786
    O   O7    0.027920  0.950920  0.390240  -0.598169
    O   O8    0.165650  0.902750  0.445100  -0.612196
    O   O9    0.375300  0.141200  0.144400  -0.464526
    O   O10   0.708590  0.152390  0.257980  -0.410808
    O   O11   0.637680  0.060680  0.609760  -0.599042
    O   O12   0.720550  0.957650  0.554900  -0.609627
    O   O13   0.769100  0.503200  0.144400  -0.466718
    O   O14   0.549390  0.605590  0.257980  -0.409790
    O   O15   0.972080  0.049080  0.609760  -0.598147
    O   O16   0.834350  0.097250  0.554900  -0.612179
    Cu  Cu3   -0.000000  0.500000  0.500000  0.578386
    Cu  Cu4   0.500000  0.500000  0.500000  0.580972
    H   H37   0.892900  0.305600  0.416000  0.085315
    H   H38   0.915300  0.153900  0.352800  0.102771
    H   H39   0.183300  0.259400  0.398400  0.137523
    H   H40   0.154200  0.408200  0.462000  0.145859
    H   H41   0.019800  0.050100  0.321800  -0.028016
    H   H42   0.135400  0.093500  0.363200  -0.015882
    H   H43   0.174600  0.053700  0.061000  0.137232
    H   H44   0.251200  0.681000  0.798400  0.059095
    H   H45   0.399000  0.739600  0.945400  0.101403
    H   H46   0.523100  0.610400  0.416000  0.084566
    H   H47   0.437500  0.698900  0.352800  0.102683
    H   H48   0.215100  0.639000  0.398400  0.137944
    H   H49   0.307800  0.553800  0.462000  0.144071
    H   H50   0.302000  0.771700  0.321800  -0.022414
    H   H51   0.227800  0.769700  0.363200  -0.009464
    H   H52   0.886400  0.507300  0.061000  0.137653
    H   H53   0.547200  0.617400  0.798400  0.059986
    H   H54   0.546400  0.705800  0.945400  0.100701
    H   H55   0.107100  0.694400  0.584000  0.085299
    H   H56   0.084700  0.846100  0.647200  0.102773
    H   H57   0.816700  0.740600  0.601600  0.137540
    H   H58   0.845800  0.591800  0.538000  0.145863
    H   H59   0.980200  0.949900  0.678200  -0.028016
    H   H60   0.864600  0.906500  0.636800  -0.015861
    H   H61   0.825400  0.946300  0.939000  0.137243
    H   H62   0.748800  0.319000  0.201600  0.059094
    H   H63   0.601000  0.260400  0.054600  0.101395
    H   H64   0.476900  0.389600  0.584000  0.084579
    H   H65   0.562500  0.301100  0.647200  0.102682
    H   H66   0.784900  0.361000  0.601600  0.137928
    H   H67   0.692200  0.446200  0.538000  0.144071
    H   H68   0.698000  0.228300  0.678200  -0.022458
    H   H69   0.772200  0.230300  0.636800  -0.009499
    H   H70   0.113600  0.492700  0.939000  0.137644
    H   H71   0.452800  0.382600  0.201600  0.059992
    H   H72   0.453600  0.294200  0.054600  0.100707
    C   C61   0.952610  0.295910  0.412420  0.079596
    C   C62   0.965040  0.204940  0.373880  -0.124534
    C   C63   0.050730  0.190730  0.367060  0.033339
    C   C64   0.122800  0.267200  0.401000  -0.152031
    C   C65   0.104930  0.355830  0.439060  -0.028787
    C   C66   0.065940  0.092840  0.323080  0.427712
    C   C67   0.120490  0.071290  0.201180  0.415083
    C   C68   0.066410  0.034510  0.094020  -0.048235
    C   C69   0.965450  0.003950  0.060300  -0.068536
    C   C70   0.952370  0.019670  0.143740  0.492423
    C   C71   0.105190  0.032290  0.036580  -0.057688
    C   C72   0.217630  0.584930  0.617460  0.754846
    C   C73   0.310190  0.614790  0.709580  -0.120501
    C   C74   0.311440  0.667940  0.797880  0.021070
    C   C75   0.399400  0.702600  0.885800  -0.122594
    C   C76   0.459810  0.616510  0.412420  0.079834
    C   C77   0.408840  0.668940  0.373880  -0.124256
    C   C78   0.316330  0.676330  0.367060  0.038882
    C   C79   0.278200  0.633800  0.401000  -0.155253
    C   C80   0.334130  0.583230  0.439060  -0.023776
    C   C81   0.257140  0.730240  0.323080  0.409830
    C   C82   0.080690  0.629890  0.201180  0.418143
    C   C83   0.027610  0.559510  0.094020  -0.050951
    C   C84   0.094850  0.556350  0.060300  -0.068754
    C   C85   0.191370  0.624070  0.143740  0.494022
    C   C86   0.931390  0.504290  0.036580  -0.056663
    C   C87   0.399830  0.532530  0.617460  0.755202
    C   C88   0.399390  0.594790  0.709580  -0.119856
    C   C89   0.486440  0.629940  0.797880  0.018603
    C   C90   0.486400  0.683200  0.885800  -0.119850
    C   C91   0.047390  0.704090  0.587580  0.079626
    C   C92   0.034960  0.795060  0.626120  -0.124561
    C   C93   0.949270  0.809270  0.632940  0.033376
    C   C94   0.877200  0.732800  0.599000  -0.152069
    C   C95   0.895070  0.644170  0.560940  -0.028774
    C   C96   0.934060  0.907160  0.676920  0.427676
    C   C97   0.879510  0.928710  0.798820  0.415097
    C   C98   0.933590  0.965490  0.905980  -0.048238
    C   C99   0.034550  0.996050  0.939700  -0.068521
    C   C100  0.047630  0.980330  0.856260  0.492385
    C   C101  0.894810  0.967710  0.963420  -0.057697
    C   C102  0.782370  0.415070  0.382540  0.754860
    C   C103  0.689810  0.385210  0.290420  -0.120547
    C   C104  0.688560  0.332060  0.202120  0.021069
    C   C105  0.600600  0.297400  0.114200  -0.122568
    C   C106  0.540190  0.383490  0.587580  0.079803
    C   C107  0.591160  0.331060  0.626120  -0.124226
    C   C108  0.683670  0.323670  0.632940  0.038827
    C   C109  0.721800  0.366200  0.599000  -0.155212
    C   C110  0.665870  0.416770  0.560940  -0.023791
    C   C111  0.742860  0.269760  0.676920  0.409920
    C   C112  0.919310  0.370110  0.798820  0.418108
    C   C113  0.972390  0.440490  0.905980  -0.050935
    C   C114  0.905150  0.443650  0.939700  -0.068771
    C   C115  0.808630  0.375930  0.856260  0.494050
    C   C116  0.068610  0.495710  0.963420  -0.056659
    C   C117  0.600170  0.467470  0.382540  0.755187
    C   C118  0.600610  0.405210  0.290420  -0.119811
    C   C119  0.513560  0.370060  0.202120  0.018597
    C   C120  0.513600  0.316800  0.114200  -0.119872
    N   N9    0.021870  0.369970  0.444540  -0.113795
    N   N10   0.047050  0.059250  0.224300  -0.320069
    N   N11   0.422670  0.574570  0.444540  -0.116994
    N   N12   0.177250  0.665050  0.224300  -0.318941
    N   N13   0.978130  0.630030  0.555460  -0.113807
    N   N14   0.952950  0.940750  0.775700  -0.320049
    N   N15   0.577330  0.425430  0.555460  -0.116981
    N   N16   0.822750  0.334950  0.775700  -0.318945
    O   O17   0.875300  0.003200  0.144400  -0.465147
    O   O18   0.208590  0.105590  0.257980  -0.410109
    O   O19   0.137680  0.549080  0.609760  -0.596013
    O   O20   0.220550  0.597250  0.554900  -0.610249
    O   O21   0.269100  0.641200  0.144400  -0.465759
    O   O22   0.049390  0.652390  0.257980  -0.410378
    O   O23   0.472080  0.560680  0.609760  -0.596922
    O   O24   0.334350  0.457650  0.554900  -0.610274
    O   O25   0.124700  0.996800  0.855600  -0.465133
    O   O26   0.791410  0.894410  0.742020  -0.410128
    O   O27   0.862320  0.450920  0.390240  -0.596004
    O   O28   0.779450  0.402750  0.445100  -0.610253
    O   O29   0.730900  0.358800  0.855600  -0.465770
    O   O30   0.950610  0.347610  0.742020  -0.410360
    O   O31   0.527920  0.439320  0.390240  -0.596933
    O   O32   0.665650  0.542350  0.445100  -0.610275
