# Generated by REPEAT Assigner based on pymatgen
data_DB12-EDUVOO_clean
_audit_creation_date              2022-05-24
_audit_creation_method            REPEAT_Assigner
_cell_length_a                    24.311000
_cell_length_b                    24.311000
_cell_length_c                    24.311000
_cell_angle_alpha                 60.000000
_cell_angle_beta                  60.000000
_cell_angle_gamma                 60.000000
_cell_volume                      10159.994484
_symmetry_space_group_name_H-M    P1
_symmetry_Int_Tables_number       1
loop_
    _symmetry_equiv_pos_site_id
    _symmetry_equiv_pos_as_xyz
    1  x,y,z
loop_
    _atom_site_type_symbol
    _atom_site_label
    _atom_site_fract_x
    _atom_site_fract_y
    _atom_site_fract_z
    _atom_type_partial_charge
    Zn  Zn1   0.217250  0.348250  0.217250  1.424532
    Zn  Zn2   0.348250  0.217250  0.217250  1.424533
    Zn  Zn3   0.217250  0.217250  0.217250  1.421357
    Zn  Zn4   0.217250  0.217250  0.348250  1.424533
    Zn  Zn5   0.651750  0.782750  0.782750  1.424523
    Zn  Zn6   0.782750  0.651750  0.782750  1.424537
    Zn  Zn7   0.782750  0.782750  0.782750  1.421351
    Zn  Zn8   0.782750  0.782750  0.651750  1.424531
    H   H1    0.486600  0.321000  0.096200  0.195641
    H   H2    0.595100  0.338700  0.033100  0.140481
    H   H3    0.321000  0.486600  0.096200  0.195640
    H   H4    0.338700  0.595100  0.033100  0.140483
    H   H5    0.096200  0.096200  0.486600  0.196886
    H   H6    0.033100  0.033100  0.595100  0.142905
    H   H7    0.096200  0.096200  0.321000  0.195890
    H   H8    0.033100  0.033100  0.338700  0.140639
    H   H9    0.486600  0.096200  0.096200  0.196876
    H   H10   0.595100  0.033100  0.033100  0.142899
    H   H11   0.321000  0.096200  0.096200  0.195882
    H   H12   0.338700  0.033100  0.033100  0.140631
    H   H13   0.096200  0.486600  0.321000  0.195638
    H   H14   0.033100  0.595100  0.338700  0.140483
    H   H15   0.096200  0.321000  0.486600  0.195640
    H   H16   0.033100  0.338700  0.595100  0.140480
    H   H17   0.486600  0.096200  0.321000  0.195646
    H   H18   0.595100  0.033100  0.338700  0.140484
    H   H19   0.321000  0.096200  0.486600  0.195647
    H   H20   0.338700  0.033100  0.595100  0.140482
    H   H21   0.096200  0.321000  0.096200  0.195885
    H   H22   0.033100  0.338700  0.033100  0.140636
    H   H23   0.096200  0.486600  0.096200  0.196879
    H   H24   0.033100  0.595100  0.033100  0.142906
    H   H25   0.679000  0.513400  0.903800  0.195652
    H   H26   0.661300  0.404900  0.966900  0.140479
    H   H27   0.513400  0.679000  0.903800  0.195650
    H   H28   0.404900  0.661300  0.966900  0.140485
    H   H29   0.903800  0.903800  0.513400  0.196875
    H   H30   0.966900  0.966900  0.404900  0.142906
    H   H31   0.903800  0.903800  0.679000  0.195877
    H   H32   0.966900  0.966900  0.661300  0.140636
    H   H33   0.903800  0.513400  0.903800  0.196896
    H   H34   0.966900  0.404900  0.966900  0.142903
    H   H35   0.903800  0.679000  0.903800  0.195899
    H   H36   0.966900  0.661300  0.966900  0.140640
    H   H37   0.513400  0.903800  0.679000  0.195626
    H   H38   0.404900  0.966900  0.661300  0.140482
    H   H39   0.679000  0.903800  0.513400  0.195630
    H   H40   0.661300  0.966900  0.404900  0.140482
    H   H41   0.903800  0.513400  0.679000  0.195646
    H   H42   0.966900  0.404900  0.661300  0.140479
    H   H43   0.903800  0.679000  0.513400  0.195647
    H   H44   0.966900  0.661300  0.404900  0.140485
    H   H45   0.679000  0.903800  0.903800  0.195931
    H   H46   0.661300  0.966900  0.966900  0.140654
    H   H47   0.513400  0.903800  0.903800  0.196931
    H   H48   0.404900  0.966900  0.966900  0.142926
    C   C1    0.465500  0.367500  0.083500  -0.312253
    C   C2    0.503800  0.410600  0.042800  0.145506
    C   C3    0.574100  0.385300  0.020300  -0.213180
    C   C4    0.367500  0.465500  0.083500  -0.312257
    C   C5    0.410600  0.503800  0.042800  0.145515
    C   C6    0.385300  0.574100  0.020300  -0.213182
    C   C7    0.083500  0.083500  0.465500  -0.315757
    C   C8    0.042800  0.042800  0.503800  0.147397
    C   C9    0.020300  0.020300  0.574100  -0.217228
    C   C10   0.083500  0.083500  0.367500  -0.313804
    C   C11   0.042800  0.042800  0.410600  0.144459
    C   C12   0.020300  0.020300  0.385300  -0.211879
    C   C13   0.465500  0.083500  0.083500  -0.315725
    C   C14   0.503800  0.042800  0.042800  0.147326
    C   C15   0.574100  0.020300  0.020300  -0.217170
    C   C16   0.367500  0.083500  0.083500  -0.313772
    C   C17   0.410600  0.042800  0.042800  0.144383
    C   C18   0.385300  0.020300  0.020300  -0.211817
    C   C19   0.083500  0.465500  0.367500  -0.312252
    C   C20   0.042800  0.503800  0.410600  0.145511
    C   C21   0.020300  0.574100  0.385300  -0.213182
    C   C22   0.083500  0.367500  0.465500  -0.312249
    C   C23   0.042800  0.410600  0.503800  0.145500
    C   C24   0.020300  0.385300  0.574100  -0.213178
    C   C25   0.465500  0.083500  0.367500  -0.312259
    C   C26   0.503800  0.042800  0.410600  0.145509
    C   C27   0.574100  0.020300  0.385300  -0.213192
    C   C28   0.367500  0.083500  0.465500  -0.312259
    C   C29   0.410600  0.042800  0.503800  0.145508
    C   C30   0.385300  0.020300  0.574100  -0.213191
    C   C31   0.083500  0.367500  0.083500  -0.313798
    C   C32   0.042800  0.410600  0.042800  0.144456
    C   C33   0.020300  0.385300  0.020300  -0.211867
    C   C34   0.083500  0.465500  0.083500  -0.315754
    C   C35   0.042800  0.503800  0.042800  0.147403
    C   C36   0.020300  0.574100  0.020300  -0.217219
    C   C37   0.632500  0.534500  0.916500  -0.312266
    C   C38   0.589400  0.496200  0.957200  0.145504
    C   C39   0.614700  0.425900  0.979700  -0.213181
    C   C40   0.534500  0.632500  0.916500  -0.312265
    C   C41   0.496200  0.589400  0.957200  0.145513
    C   C42   0.425900  0.614700  0.979700  -0.213195
    C   C43   0.916500  0.916500  0.534500  -0.315741
    C   C44   0.957200  0.957200  0.496200  0.147392
    C   C45   0.979700  0.979700  0.425900  -0.217219
    C   C46   0.916500  0.916500  0.632500  -0.313783
    C   C47   0.957200  0.957200  0.589400  0.144446
    C   C48   0.979700  0.979700  0.614700  -0.211863
    C   C49   0.916500  0.534500  0.916500  -0.315772
    C   C50   0.957200  0.496200  0.957200  0.147398
    C   C51   0.979700  0.425900  0.979700  -0.217225
    C   C52   0.916500  0.632500  0.916500  -0.313817
    C   C53   0.957200  0.589400  0.957200  0.144466
    C   C54   0.979700  0.614700  0.979700  -0.211886
    C   C55   0.534500  0.916500  0.632500  -0.312231
    C   C56   0.496200  0.957200  0.589400  0.145496
    C   C57   0.425900  0.979700  0.614700  -0.213173
    C   C58   0.632500  0.916500  0.534500  -0.312235
    C   C59   0.589400  0.957200  0.496200  0.145499
    C   C60   0.614700  0.979700  0.425900  -0.213175
    C   C61   0.916500  0.534500  0.632500  -0.312258
    C   C62   0.957200  0.496200  0.589400  0.145501
    C   C63   0.979700  0.425900  0.614700  -0.213178
    C   C64   0.916500  0.632500  0.534500  -0.312261
    C   C65   0.957200  0.589400  0.496200  0.145514
    C   C66   0.979700  0.614700  0.425900  -0.213194
    C   C67   0.632500  0.916500  0.916500  -0.313990
    C   C68   0.589400  0.957200  0.957200  0.144695
    C   C69   0.614700  0.979700  0.979700  -0.211967
    C   C70   0.534500  0.916500  0.916500  -0.315961
    C   C71   0.496200  0.957200  0.957200  0.147653
    C   C72   0.425900  0.979700  0.979700  -0.217327
    C   C73   0.395200  0.395200  0.104800  0.141262
    C   C74   0.356300  0.356300  0.143700  0.713874
    C   C75   0.480800  0.480800  0.019200  0.026612
    C   C76   0.104800  0.104800  0.395200  0.142826
    C   C77   0.143700  0.143700  0.356300  0.714018
    C   C78   0.019200  0.019200  0.480800  0.027607
    C   C79   0.395200  0.104800  0.104800  0.142812
    C   C80   0.356300  0.143700  0.143700  0.714014
    C   C81   0.480800  0.019200  0.019200  0.027748
    C   C82   0.104800  0.395200  0.395200  0.141258
    C   C83   0.143700  0.356300  0.356300  0.713874
    C   C84   0.019200  0.480800  0.480800  0.026618
    C   C85   0.395200  0.104800  0.395200  0.141259
    C   C86   0.356300  0.143700  0.356300  0.713889
    C   C87   0.480800  0.019200  0.480800  0.026629
    C   C88   0.104800  0.395200  0.104800  0.142830
    C   C89   0.143700  0.356300  0.143700  0.714002
    C   C90   0.019200  0.480800  0.019200  0.027591
    C   C91   0.604800  0.604800  0.895200  0.141263
    C   C92   0.643700  0.643700  0.856300  0.713899
    C   C93   0.519200  0.519200  0.980800  0.026629
    C   C94   0.895200  0.895200  0.604800  0.142820
    C   C95   0.856300  0.856300  0.643700  0.713994
    C   C96   0.980800  0.980800  0.519200  0.027601
    C   C97   0.895200  0.604800  0.895200  0.142832
    C   C98   0.856300  0.643700  0.856300  0.714040
    C   C99   0.980800  0.519200  0.980800  0.027611
    C   C100  0.604800  0.895200  0.604800  0.141249
    C   C101  0.643700  0.856300  0.643700  0.713854
    C   C102  0.519200  0.980800  0.519200  0.026617
    C   C103  0.895200  0.604800  0.604800  0.141261
    C   C104  0.856300  0.643700  0.643700  0.713890
    C   C105  0.980800  0.519200  0.519200  0.026625
    C   C106  0.604800  0.895200  0.895200  0.142924
    C   C107  0.643700  0.856300  0.856300  0.714015
    C   C108  0.519200  0.980800  0.980800  0.027338
    O   O1    0.250000  0.250000  0.250000  -1.693093
    O   O2    0.750000  0.750000  0.750000  -1.693091
    O   O3    0.293700  0.383700  0.161300  -0.730987
    O   O4    0.383700  0.293700  0.161300  -0.730986
    O   O5    0.161300  0.161300  0.293700  -0.729909
    O   O6    0.161300  0.161300  0.383700  -0.730176
    O   O7    0.293700  0.161300  0.161300  -0.729906
    O   O8    0.383700  0.161300  0.161300  -0.730173
    O   O9    0.161300  0.293700  0.383700  -0.730987
    O   O10   0.161300  0.383700  0.293700  -0.730987
    O   O11   0.293700  0.161300  0.383700  -0.730996
    O   O12   0.383700  0.161300  0.293700  -0.730995
    O   O13   0.161300  0.383700  0.161300  -0.730167
    O   O14   0.161300  0.293700  0.161300  -0.729900
    O   O15   0.616300  0.706300  0.838700  -0.731004
    O   O16   0.706300  0.616300  0.838700  -0.731000
    O   O17   0.838700  0.838700  0.706300  -0.729890
    O   O18   0.838700  0.838700  0.616300  -0.730162
    O   O19   0.838700  0.706300  0.838700  -0.729925
    O   O20   0.838700  0.616300  0.838700  -0.730188
    O   O21   0.706300  0.838700  0.616300  -0.730974
    O   O22   0.616300  0.838700  0.706300  -0.730969
    O   O23   0.838700  0.706300  0.616300  -0.731000
    O   O24   0.838700  0.616300  0.706300  -0.730993
    O   O25   0.616300  0.838700  0.838700  -0.730163
    O   O26   0.706300  0.838700  0.838700  -0.729898
