# Generated by REPEAT Assigner based on pymatgen
data_DB12-QONLAI_freeONLY
_audit_creation_date              2022-05-24
_audit_creation_method            REPEAT_Assigner
_cell_length_a                    13.111000
_cell_length_b                    14.791000
_cell_length_c                    15.671000
_cell_angle_alpha                 90.000000
_cell_angle_beta                  92.625000
_cell_angle_gamma                 90.000000
_cell_volume                      3035.806682
_symmetry_space_group_name_H-M    P1
_symmetry_Int_Tables_number       1
loop_
    _symmetry_equiv_pos_site_id
    _symmetry_equiv_pos_as_xyz
    1  x,y,z
loop_
    _atom_site_type_symbol
    _atom_site_label
    _atom_site_fract_x
    _atom_site_fract_y
    _atom_site_fract_z
    _atom_type_partial_charge
    Cu  Cu1  0.525860  0.198200  0.391800  0.356179
    C   C1   0.887400  0.178900  0.799900  -0.119080
    H   H1   0.906300  0.141200  0.845500  0.110062
    C   C2   0.818400  0.147200  0.738300  0.062840
    H   H2   0.792300  0.089000  0.741600  0.084997
    C   C3   0.788600  0.203700  0.671100  -0.215789
    C   C4   0.829600  0.288700  0.669400  -0.007239
    H   H3   0.810600  0.328500  0.625500  0.106302
    C   C5   0.899200  0.315200  0.732900  -0.093332
    H   H4   0.926900  0.373000  0.730900  0.138365
    C   C6   0.713300  0.172800  0.606000  0.700553
    C   C7   0.169300  0.248100  0.765200  0.044738
    H   H5   0.147400  0.302700  0.741200  0.061985
    C   C8   0.235300  0.195100  0.720800  -0.032458
    H   H6   0.257300  0.213700  0.668000  0.087442
    C   C9   0.268400  0.113500  0.755900  -0.174007
    C   C10  0.233200  0.090000  0.834200  -0.074796
    H   H7   0.253700  0.035800  0.859800  0.105405
    C   C11  0.167700  0.146400  0.874500  0.001322
    H   H8   0.145000  0.129300  0.927600  0.100989
    C   C12  0.336000  0.055500  0.708610  0.674484
    N   N1   0.928000  0.260720  0.797240  0.074643
    N   N2   0.685400  0.221220  0.536080  -0.510318
    N   N3   0.616100  0.169570  0.496120  0.066715
    N   N4   0.603000  0.093810  0.539720  0.288731
    N   N5   0.663900  0.093770  0.609680  -0.568847
    N   N6   0.135400  0.224340  0.840970  -0.084784
    N   N7   0.378500  0.081840  0.636260  -0.510621
    N   N8   0.429600  0.009540  0.612460  0.220520
    N   N9   0.418800  0.942680  0.666980  -0.048059
    N   N10  0.360000  0.969760  0.729150  -0.486168
    N   N11  0.416900  0.125030  0.442350  -0.838010
    N   N12  0.330600  0.135600  0.428100  0.887164
    N   N13  0.245100  0.144900  0.414800  -0.585618
    Cu  Cu2  0.974140  0.698200  0.108200  0.352049
    C   C13  0.612600  0.678900  0.700100  -0.119043
    H   H9   0.593700  0.641200  0.654500  0.110101
    C   C14  0.681600  0.647200  0.761700  0.062715
    H   H10  0.707700  0.589000  0.758400  0.085060
    C   C15  0.711400  0.703700  0.828900  -0.215410
    C   C16  0.670400  0.788700  0.830600  -0.007184
    H   H11  0.689400  0.828500  0.874500  0.106360
    C   C17  0.600800  0.815200  0.767100  -0.093498
    H   H12  0.573100  0.873000  0.769100  0.138435
    C   C18  0.786700  0.672800  0.894000  0.700065
    C   C19  0.330700  0.748100  0.734800  0.044816
    H   H13  0.352600  0.802700  0.758800  0.062024
    C   C20  0.264700  0.695100  0.779200  -0.032888
    H   H14  0.242700  0.713700  0.832000  0.087622
    C   C21  0.231600  0.613500  0.744100  -0.173275
    C   C22  0.266800  0.590000  0.665800  -0.075094
    H   H15  0.246300  0.535800  0.640200  0.105572
    C   C23  0.332300  0.646400  0.625500  0.001417
    H   H16  0.355000  0.629300  0.572400  0.101001
    C   C24  0.164000  0.555500  0.791390  0.673988
    N   N14  0.572000  0.760720  0.702760  0.075397
    N   N15  0.814600  0.721220  0.963920  -0.509586
    N   N16  0.883900  0.669570  0.003880  0.065770
    N   N17  0.897000  0.593810  0.960280  0.291766
    N   N18  0.836100  0.593770  0.890320  -0.568300
    N   N19  0.364600  0.724340  0.659030  -0.084090
    N   N20  0.121500  0.581840  0.863740  -0.510327
    N   N21  0.070400  0.509540  0.887540  0.224852
    N   N22  0.081200  0.442680  0.833020  -0.048328
    N   N23  0.140000  0.469760  0.770850  -0.485297
    N   N24  0.083100  0.625030  0.057650  -0.838259
    N   N25  0.169400  0.635600  0.071900  0.886545
    N   N26  0.254900  0.644900  0.085200  -0.586396
    Cu  Cu3  0.474140  0.801800  0.608200  0.355861
    C   C25  0.112600  0.821100  0.200100  -0.119092
    H   H17  0.093700  0.858800  0.154500  0.110069
    C   C26  0.181600  0.852800  0.261700  0.062828
    H   H18  0.207700  0.911000  0.258400  0.085009
    C   C27  0.211400  0.796300  0.328900  -0.215785
    C   C28  0.170400  0.711300  0.330600  -0.007243
    H   H19  0.189400  0.671500  0.374500  0.106309
    C   C29  0.100800  0.684800  0.267100  -0.093356
    H   H20  0.073100  0.627000  0.269100  0.138373
    C   C30  0.286700  0.827200  0.394000  0.700570
    C   C31  0.830700  0.751900  0.234800  0.044736
    H   H21  0.852600  0.697300  0.258800  0.061983
    C   C32  0.764700  0.804900  0.279200  -0.032468
    H   H22  0.742700  0.786300  0.332000  0.087450
    C   C33  0.731600  0.886500  0.244100  -0.173994
    C   C34  0.766800  0.910000  0.165800  -0.074808
    H   H23  0.746300  0.964200  0.140200  0.105417
    C   C35  0.832300  0.853600  0.125500  0.001334
    H   H24  0.855000  0.870700  0.072400  0.100986
    C   C36  0.664000  0.944500  0.291390  0.674469
    N   N27  0.072000  0.739280  0.202760  0.074671
    N   N28  0.314600  0.778780  0.463920  -0.510332
    N   N29  0.383900  0.830430  0.503880  0.066680
    N   N30  0.397000  0.906190  0.460280  0.288729
    N   N31  0.336100  0.906230  0.390320  -0.568860
    N   N32  0.864600  0.775660  0.159030  -0.084791
    N   N33  0.621500  0.918160  0.363740  -0.510626
    N   N34  0.570400  0.990460  0.387540  0.220525
    N   N35  0.581200  0.057320  0.333020  -0.048046
    N   N36  0.640000  0.030240  0.270850  -0.486148
    N   N37  0.583100  0.874970  0.557650  -0.838081
    N   N38  0.669400  0.864400  0.571900  0.887102
    N   N39  0.754900  0.855100  0.585200  -0.585644
    Cu  Cu4  0.025860  0.301800  0.891800  0.352007
    C   C37  0.387400  0.321100  0.299900  -0.119057
    H   H25  0.406300  0.358800  0.345500  0.110106
    C   C38  0.318400  0.352800  0.238300  0.062737
    H   H26  0.292300  0.411000  0.241600  0.085049
    C   C39  0.288600  0.296300  0.171100  -0.215420
    C   C40  0.329600  0.211300  0.169400  -0.007178
    H   H27  0.310600  0.171500  0.125500  0.106356
    C   C41  0.399200  0.184800  0.232900  -0.093511
    H   H28  0.426900  0.127000  0.230900  0.138429
    C   C42  0.213300  0.327200  0.106000  0.700048
    C   C43  0.669300  0.251900  0.265200  0.044820
    H   H29  0.647400  0.197300  0.241200  0.062019
    C   C44  0.735300  0.304900  0.220800  -0.032885
    H   H30  0.757300  0.286300  0.168000  0.087623
    C   C45  0.768400  0.386500  0.255900  -0.173287
    C   C46  0.733200  0.410000  0.334200  -0.075086
    H   H31  0.753700  0.464200  0.359800  0.105568
    C   C47  0.667700  0.353600  0.374500  0.001420
    H   H32  0.645000  0.370700  0.427600  0.100995
    C   C48  0.836000  0.444500  0.208610  0.674010
    N   N40  0.428000  0.239280  0.297240  0.075481
    N   N41  0.185400  0.278780  0.036080  -0.509573
    N   N42  0.116100  0.330430  0.996120  0.065744
    N   N43  0.103000  0.406190  0.039720  0.291792
    N   N44  0.163900  0.406230  0.109680  -0.568293
    N   N45  0.635400  0.275660  0.340970  -0.084038
    N   N46  0.878500  0.418160  0.136260  -0.510332
    N   N47  0.929600  0.490460  0.112460  0.224820
    N   N48  0.918800  0.557320  0.166980  -0.048311
    N   N49  0.860000  0.530240  0.229150  -0.485313
    N   N50  0.916900  0.374970  0.942350  -0.838307
    N   N51  0.830600  0.364400  0.928100  0.886588
    N   N52  0.745100  0.355100  0.914800  -0.586450
    Cu  Cu5  0.500000  0.000000  0.500000  0.334769
    Cu  Cu6  0.000000  0.500000  0.000000  0.359942
