# Generated by REPEAT Assigner based on pymatgen
data_DB12-FEFDEB_manual
_audit_creation_date              2022-05-24
_audit_creation_method            REPEAT_Assigner
_cell_length_a                    19.256400
_cell_length_b                    15.210000
_cell_length_c                    15.210000
_cell_angle_alpha                 90.000000
_cell_angle_beta                  90.000000
_cell_angle_gamma                 90.000000
_cell_volume                      4454.854527
_symmetry_space_group_name_H-M    P1
_symmetry_Int_Tables_number       1
loop_
    _symmetry_equiv_pos_site_id
    _symmetry_equiv_pos_as_xyz
    1  x,y,z
loop_
    _atom_site_type_symbol
    _atom_site_label
    _atom_site_fract_x
    _atom_site_fract_y
    _atom_site_fract_z
    _atom_type_partial_charge
    Zn  Zn1  0.333100  0.006300  0.993120  1.245344
    Zn  Zn2  0.167160  0.006280  0.993150  1.257898
    H   H1   0.359320  0.975070  0.719770  0.127101
    H   H2   0.359300  0.972800  0.559460  0.107212
    H   H3   0.358930  0.038940  0.266610  0.085772
    H   H4   0.358870  0.041070  0.426900  0.111603
    H   H5   0.359300  0.279600  0.024300  0.126123
    H   H6   0.359250  0.439880  0.026680  0.106269
    H   H7   0.359230  0.732860  0.961900  0.084704
    H   H8   0.359190  0.572590  0.959530  0.114547
    H   H9   0.141020  0.036610  0.719590  0.097431
    H   H10  0.141150  0.038870  0.559350  0.109184
    H   H11  0.141470  0.972860  0.266660  0.112824
    H   H12  0.141590  0.970550  0.426920  0.108764
    H   H13  0.141140  0.732730  0.024600  0.099453
    H   H14  0.141270  0.572520  0.027020  0.111815
    H   H15  0.141090  0.279680  0.962260  0.113058
    H   H16  0.141210  0.439930  0.959810  0.107083
    C   C1   0.250120  0.005890  0.833790  0.798687
    C   C2   0.250150  0.005810  0.734020  -0.081665
    C   C3   0.250220  0.005810  0.543540  0.066904
    C   C4   0.250160  0.005960  0.152530  0.821026
    C   C5   0.250200  0.005870  0.252300  -0.111673
    C   C6   0.250230  0.005810  0.442780  0.064430
    C   C7   0.250170  0.165600  0.993290  0.746296
    C   C8   0.250190  0.265350  0.993310  -0.060451
    C   C9   0.250230  0.455830  0.993260  0.062248
    C   C10  0.250140  0.846870  0.993240  0.779750
    C   C11  0.250180  0.747110  0.993250  -0.120914
    C   C12  0.250230  0.556620  0.993260  0.073663
    C   C13  0.459840  0.916140  0.981260  0.158327
    C   C14  0.459820  0.042030  0.077200  0.120127
    C   C15  0.459790  0.062190  0.920310  0.079740
    C   C16  0.040410  0.063660  0.921490  -0.122144
    C   C17  0.040370  0.916410  0.979480  -0.096609
    C   C18  0.040370  0.040330  0.077940  -0.102694
    C   C19  0.311210  0.988960  0.685620  -0.141285
    C   C20  0.311180  0.988390  0.592610  -0.128200
    C   C21  0.311020  0.023950  0.300720  -0.070411
    C   C22  0.310970  0.024480  0.393730  -0.152885
    C   C23  0.311210  0.313750  0.010300  -0.141137
    C   C24  0.311160  0.406760  0.010890  -0.127723
    C   C25  0.311170  0.698720  0.976070  -0.063110
    C   C26  0.311130  0.605700  0.975460  -0.162583
    C   C27  0.189140  0.022670  0.685540  -0.102287
    C   C28  0.189240  0.023240  0.592540  -0.138676
    C   C29  0.189400  0.987770  0.300750  -0.117149
    C   C30  0.189480  0.987160  0.393750  -0.134792
    C   C31  0.189220  0.698650  0.010450  -0.091315
    C   C32  0.189320  0.605660  0.011070  -0.149638
    C   C33  0.189190  0.313790  0.976270  -0.127610
    C   C34  0.189290  0.406790  0.975630  -0.129968
    N   N1   0.433180  0.006710  0.992950  -0.218781
    N   N2   0.067030  0.006730  0.992990  -0.032932
    O   O1   0.307540  0.888920  0.992930  -0.691296
    O   O2   0.192720  0.888880  0.993510  -0.691737
    O   O3   0.192740  0.005700  0.110520  -0.727789
    O   O4   0.192650  0.006240  0.875790  -0.724944
    O   O5   0.192670  0.123610  0.993020  -0.689044
    O   O6   0.307570  0.006350  0.110490  -0.734714
    O   O7   0.307560  0.005690  0.875810  -0.723408
    O   O8   0.307660  0.123610  0.993510  -0.683752
    H   H17  0.440260  0.873170  0.035010  0.008258
    H   H18  0.440190  0.888200  0.918400  0.030578
    H   H19  0.439780  0.109810  0.087810  0.032300
    H   H20  0.440710  0.001250  0.132850  0.038001
    H   H21  0.440260  0.037270  0.856190  0.030837
    H   H22  0.440150  0.130590  0.927490  0.028758
    H   H23  0.060240  0.131830  0.929820  0.078044
    H   H24  0.059720  0.039810  0.856870  0.088594
    H   H25  0.060300  0.889560  0.916290  0.049649
    H   H26  0.059650  0.872510  0.032630  0.072349
    H   H27  0.059680  0.998640  0.132780  0.067069
    H   H28  0.060190  0.108010  0.089750  0.057280
    Zn  Zn3  0.833090  0.006310  0.993110  1.245874
    Zn  Zn4  0.667160  0.006290  0.993110  1.258604
    H   H29  0.859380  0.975060  0.719730  0.127695
    H   H30  0.859340  0.972760  0.559410  0.106953
    H   H31  0.858930  0.038880  0.266550  0.085515
    H   H32  0.858910  0.041010  0.426840  0.111685
    H   H33  0.859260  0.279600  0.024240  0.126526
    H   H34  0.859210  0.439890  0.026590  0.106564
    H   H35  0.859200  0.732860  0.961790  0.083921
    H   H36  0.859140  0.572590  0.959430  0.114742
    H   H37  0.641090  0.036680  0.719570  0.095459
    H   H38  0.641200  0.038910  0.559330  0.109641
    H   H39  0.641460  0.972890  0.266660  0.113905
    H   H40  0.641600  0.970580  0.426910  0.108571
    H   H41  0.641130  0.732760  0.024570  0.098119
    H   H42  0.641250  0.572540  0.026990  0.112112
    H   H43  0.641040  0.279690  0.962260  0.114980
    H   H44  0.641170  0.439940  0.959800  0.106983
    C   C35  0.750190  0.005910  0.833760  0.800057
    C   C36  0.750220  0.005830  0.733980  -0.083660
    C   C37  0.750270  0.005810  0.543510  0.067045
    C   C38  0.750140  0.005960  0.152500  0.820988
    C   C39  0.750190  0.005870  0.252270  -0.112136
    C   C40  0.750260  0.005800  0.442740  0.064902
    C   C41  0.750120  0.165610  0.993260  0.744573
    C   C42  0.750140  0.265360  0.993270  -0.058363
    C   C43  0.750190  0.455840  0.993210  0.063394
    C   C44  0.750130  0.846880  0.993190  0.781837
    C   C45  0.750160  0.747120  0.993200  -0.123559
    C   C46  0.750200  0.556630  0.993210  0.073910
    C   C47  0.959840  0.916440  0.979230  0.171802
    C   C48  0.959810  0.040120  0.078000  0.136704
    C   C49  0.959790  0.063830  0.921600  0.090391
    C   C50  0.540410  0.062000  0.920170  -0.108589
    C   C51  0.540370  0.916120  0.981530  -0.080508
    C   C52  0.540390  0.042270  0.077110  -0.093743
    C   C53  0.811270  0.988960  0.685580  -0.141070
    C   C54  0.811230  0.988380  0.592570  -0.128158
    C   C55  0.811030  0.023920  0.300670  -0.069526
    C   C56  0.810990  0.024440  0.393680  -0.153345
    C   C57  0.811170  0.313760  0.010240  -0.141456
    C   C58  0.811120  0.406770  0.010830  -0.128585
    C   C59  0.811140  0.698720  0.975980  -0.060431
    C   C60  0.811090  0.605710  0.975380  -0.164111
    C   C61  0.689210  0.022710  0.685510  -0.098687
    C   C62  0.689290  0.023270  0.592520  -0.140302
    C   C63  0.689390  0.987780  0.300730  -0.118083
    C   C64  0.689500  0.987170  0.393730  -0.134703
    C   C65  0.689200  0.698670  0.010400  -0.088479
    C   C66  0.689290  0.605670  0.011030  -0.151065
    C   C67  0.689140  0.313800  0.976250  -0.130488
    C   C68  0.689240  0.406800  0.975610  -0.129709
    N   N3   0.933180  0.006720  0.992960  -0.230469
    N   N4   0.567040  0.006720  0.992950  -0.045215
    O   O9   0.807530  0.888930  0.992900  -0.694123
    O   O10  0.692710  0.888890  0.993460  -0.691458
    O   O11  0.692720  0.005690  0.110490  -0.729126
    O   O12  0.692730  0.006260  0.875760  -0.726770
    O   O13  0.692620  0.123630  0.992980  -0.687240
    O   O14  0.807550  0.006360  0.110450  -0.733021
    O   O15  0.807640  0.005710  0.875770  -0.722608
    O   O16  0.807610  0.123620  0.993500  -0.684908
    H   H45  0.940290  0.872270  0.032010  0.007402
    H   H46  0.940160  0.889910  0.915770  0.028010
    H   H47  0.939790  0.107660  0.090120  0.029427
    H   H48  0.940670  0.998100  0.132700  0.033109
    H   H49  0.940260  0.040370  0.856930  0.028596
    H   H50  0.940170  0.132060  0.930320  0.027165
    H   H51  0.560270  0.130330  0.926900  0.074780
    H   H52  0.559670  0.036630  0.856110  0.086939
    H   H53  0.560290  0.887820  0.918970  0.046550
    H   H54  0.559680  0.873450  0.035660  0.070443
    H   H55  0.559720  0.001890  0.132900  0.065416
    H   H56  0.560180  0.110220  0.087340  0.056622
