# generated using pymatgen
data_CuH10C17NO4
_symmetry_space_group_name_H-M   'P 1'
_cell_length_a   15.37600000
_cell_length_b   19.84820000
_cell_length_c   19.84820000
_cell_angle_alpha   73.35830000
_cell_angle_beta   67.21090000
_cell_angle_gamma   67.21090000
_symmetry_Int_Tables_number   1
_chemical_formula_structural   CuH10C17NO4
_chemical_formula_sum   'Cu4 H40 C68 N4 O16'
_cell_volume   5081.90445392
_cell_formula_units_Z   4
loop_
 _symmetry_equiv_pos_site_id
 _symmetry_equiv_pos_as_xyz
  1  'x, y, z'
loop_
 _atom_site_type_symbol
 _atom_site_label
 _atom_site_symmetry_multiplicity
 _atom_site_fract_x
 _atom_site_fract_y
 _atom_site_fract_z
 _atom_site_occupancy
  Cu  Cu1  1  0.53100000  0.53200000  0.53200000  1
  Cu  Cu2  1  0.09500000  0.96800000  0.96800000  1
  Cu  Cu3  1  0.90500000  0.03200000  0.03200000  1
  Cu  Cu4  1  0.46900000  0.46800000  0.46800000  1
  H  H1  1  0.66640000  0.49780000  0.24480000  1
  H  H2  1  0.77590000  0.52890000  0.13210000  1
  H  H3  1  0.86520000  0.62960000  0.22940000  1
  H  H4  1  0.75330000  0.59960000  0.34220000  1
  H  H5  1  0.93000000  0.62290000  0.95910000  1
  H  H6  1  0.90900000  0.00220000  0.25520000  1
  H  H7  1  0.93690000  0.97110000  0.36790000  1
  H  H8  1  0.22420000  0.87040000  0.27060000  1
  H  H9  1  0.19510000  0.90040000  0.15780000  1
  H  H10  1  0.01200000  0.87710000  0.54090000  1
  H  H11  1  0.09100000  0.74480000  0.99780000  1
  H  H12  1  0.06310000  0.63210000  0.02890000  1
  H  H13  1  0.77580000  0.72940000  0.12960000  1
  H  H14  1  0.80490000  0.84220000  0.09960000  1
  H  H15  1  0.98800000  0.45910000  0.12290000  1
  H  H16  1  0.33360000  0.75520000  0.50220000  1
  H  H17  1  0.22410000  0.86790000  0.47110000  1
  H  H18  1  0.13480000  0.77060000  0.37040000  1
  H  H19  1  0.24670000  0.65780000  0.40040000  1
  H  H20  1  0.07000000  0.04090000  0.37710000  1
  H  H21  1  0.33360000  0.50220000  0.75520000  1
  H  H22  1  0.22410000  0.47110000  0.86790000  1
  H  H23  1  0.13480000  0.37040000  0.77060000  1
  H  H24  1  0.24670000  0.40040000  0.65780000  1
  H  H25  1  0.07000000  0.37710000  0.04090000  1
  H  H26  1  0.09100000  0.99780000  0.74480000  1
  H  H27  1  0.06310000  0.02890000  0.63210000  1
  H  H28  1  0.77580000  0.12960000  0.72940000  1
  H  H29  1  0.80490000  0.09960000  0.84220000  1
  H  H30  1  0.98800000  0.12290000  0.45910000  1
  H  H31  1  0.90900000  0.25520000  0.00220000  1
  H  H32  1  0.93690000  0.36790000  0.97110000  1
  H  H33  1  0.22420000  0.27060000  0.87040000  1
  H  H34  1  0.19510000  0.15780000  0.90040000  1
  H  H35  1  0.01200000  0.54090000  0.87710000  1
  H  H36  1  0.66640000  0.24480000  0.49780000  1
  H  H37  1  0.77590000  0.13210000  0.52890000  1
  H  H38  1  0.86520000  0.22940000  0.62960000  1
  H  H39  1  0.75330000  0.34220000  0.59960000  1
  H  H40  1  0.93000000  0.95910000  0.62290000  1
  C  C1  1  0.62491000  0.52837000  0.37737000  1
  C  C2  1  0.69709000  0.54625000  0.30479000  1
  C  C3  1  0.70569000  0.52490000  0.24192000  1
  C  C4  1  0.77193000  0.54303000  0.17431000  1
  C  C5  1  0.83211000  0.58192000  0.16954000  1
  C  C6  1  0.82493000  0.60322000  0.23232000  1
  C  C7  1  0.75767000  0.58530000  0.30000000  1
  C  C8  1  0.95822000  0.57319000  0.97597000  1
  C  C9  1  0.03065000  0.97163000  0.12263000  1
  C  C10  1  0.04813000  0.95375000  0.19521000  1
  C  C11  1  0.97251000  0.97510000  0.25808000  1
  C  C12  1  0.98927000  0.95697000  0.32569000  1
  C  C13  1  0.08357000  0.91808000  0.33046000  1
  C  C14  1  0.16047000  0.89678000  0.26768000  1
  C  C15  1  0.14297000  0.91470000  0.20000000  1
  C  C16  1  0.00738000  0.92681000  0.52403000  1
  C  C17  1  0.96935000  0.87737000  0.02837000  1
  C  C18  1  0.95187000  0.80479000  0.04625000  1
  C  C19  1  0.02749000  0.74192000  0.02490000  1
  C  C20  1  0.01073000  0.67431000  0.04303000  1
  C  C21  1  0.91643000  0.66954000  0.08192000  1
  C  C22  1  0.83953000  0.73232000  0.10322000  1
  C  C23  1  0.85703000  0.80000000  0.08530000  1
  C  C24  1  0.99262000  0.47597000  0.07319000  1
  C  C25  1  0.37509000  0.62263000  0.47163000  1
  C  C26  1  0.30291000  0.69521000  0.45375000  1
  C  C27  1  0.29431000  0.75808000  0.47510000  1
  C  C28  1  0.22807000  0.82569000  0.45697000  1
  C  C29  1  0.16789000  0.83046000  0.41808000  1
  C  C30  1  0.17507000  0.76768000  0.39678000  1
  C  C31  1  0.24233000  0.70000000  0.41470000  1
  C  C32  1  0.04178000  0.02403000  0.42681000  1
  C  C33  1  0.37509000  0.47163000  0.62263000  1
  C  C34  1  0.30291000  0.45375000  0.69521000  1
  C  C35  1  0.29431000  0.47510000  0.75808000  1
  C  C36  1  0.22807000  0.45697000  0.82569000  1
  C  C37  1  0.16789000  0.41808000  0.83046000  1
  C  C38  1  0.17507000  0.39678000  0.76768000  1
  C  C39  1  0.24233000  0.41470000  0.70000000  1
  C  C40  1  0.04178000  0.42681000  0.02403000  1
  C  C41  1  0.96935000  0.02837000  0.87737000  1
  C  C42  1  0.95187000  0.04625000  0.80479000  1
  C  C43  1  0.02749000  0.02490000  0.74192000  1
  C  C44  1  0.01073000  0.04303000  0.67431000  1
  C  C45  1  0.91643000  0.08192000  0.66954000  1
  C  C46  1  0.83953000  0.10322000  0.73232000  1
  C  C47  1  0.85703000  0.08530000  0.80000000  1
  C  C48  1  0.99262000  0.07319000  0.47597000  1
  C  C49  1  0.03065000  0.12263000  0.97163000  1
  C  C50  1  0.04813000  0.19521000  0.95375000  1
  C  C51  1  0.97251000  0.25808000  0.97510000  1
  C  C52  1  0.98927000  0.32569000  0.95697000  1
  C  C53  1  0.08357000  0.33046000  0.91808000  1
  C  C54  1  0.16047000  0.26768000  0.89678000  1
  C  C55  1  0.14297000  0.20000000  0.91470000  1
  C  C56  1  0.00738000  0.52403000  0.92681000  1
  C  C57  1  0.62491000  0.37737000  0.52837000  1
  C  C58  1  0.69709000  0.30479000  0.54625000  1
  C  C59  1  0.70569000  0.24192000  0.52490000  1
  C  C60  1  0.77193000  0.17431000  0.54303000  1
  C  C61  1  0.83211000  0.16954000  0.58192000  1
  C  C62  1  0.82493000  0.23232000  0.60322000  1
  C  C63  1  0.75767000  0.30000000  0.58530000  1
  C  C64  1  0.95822000  0.97597000  0.57319000  1
  C  C65  1  0.94996000  0.55004000  0.05004000  1
  C  C66  1  0.05004000  0.94996000  0.44996000  1
  C  C67  1  0.05004000  0.44996000  0.94996000  1
  C  C68  1  0.94996000  0.05004000  0.55004000  1
  N  N1  1  0.89918000  0.60082000  0.10082000  1
  N  N2  1  0.10082000  0.89918000  0.39918000  1
  N  N3  1  0.10082000  0.39918000  0.89918000  1
  N  N4  1  0.89918000  0.10082000  0.60082000  1
  O  O1  1  0.62211000  0.54892000  0.43230000  1
  O  O2  1  0.57052000  0.49419000  0.37817000  1
  O  O3  1  0.10333000  0.95108000  0.06770000  1
  O  O4  1  0.94288000  0.00581000  0.12183000  1
  O  O5  1  0.89667000  0.93230000  0.04892000  1
  O  O6  1  0.05712000  0.87817000  0.99419000  1
  O  O7  1  0.37789000  0.56770000  0.45108000  1
  O  O8  1  0.42948000  0.62183000  0.50581000  1
  O  O9  1  0.37789000  0.45108000  0.56770000  1
  O  O10  1  0.42948000  0.50581000  0.62183000  1
  O  O11  1  0.89667000  0.04892000  0.93230000  1
  O  O12  1  0.05712000  0.99419000  0.87817000  1
  O  O13  1  0.10333000  0.06770000  0.95108000  1
  O  O14  1  0.94288000  0.12183000  0.00581000  1
  O  O15  1  0.62211000  0.43230000  0.54892000  1
  O  O16  1  0.57052000  0.37817000  0.49419000  1
