# Generated by REPEAT Assigner based on pymatgen
data_DB12-ncomms11831_ncomms11831-s2_clean
_audit_creation_date              2022-05-24
_audit_creation_method            REPEAT_Assigner
_cell_length_a                    11.619300
_cell_length_b                    5.566700
_cell_length_c                    22.931200
_cell_angle_alpha                 90.000000
_cell_angle_beta                  100.897000
_cell_angle_gamma                 90.000000
_cell_volume                      1456.472102
_symmetry_space_group_name_H-M    P1
_symmetry_Int_Tables_number       1
loop_
    _symmetry_equiv_pos_site_id
    _symmetry_equiv_pos_as_xyz
    1  x,y,z
loop_
    _atom_site_type_symbol
    _atom_site_label
    _atom_site_fract_x
    _atom_site_fract_y
    _atom_site_fract_z
    _atom_type_partial_charge
    C   C1   0.493200  0.258600  0.262000  0.873200
    C   C2   0.399800  0.211100  0.299100  -0.207428
    C   C3   0.312100  0.378900  0.300100  0.095982
    H   H1   0.314200  0.528700  0.280400  0.113813
    C   C4   0.220800  0.328200  0.329900  -0.203464
    H   H2   0.159700  0.441300  0.330400  0.155146
    C   C5   0.220900  0.109600  0.358900  -0.080573
    C   C6   0.310900  0.941300  0.360300  -0.183237
    H   H3   0.311000  0.795800  0.382000  0.119378
    C   C7   0.400200  0.991200  0.329300  -0.055572
    H   H4   0.460900  0.877700  0.328600  0.111558
    C   C8   0.149000  0.111900  0.470200  -0.115855
    C   C9   0.119400  0.334000  0.490100  -0.116664
    H   H5   0.080300  0.450200  0.463000  0.140556
    C   C10  0.148200  0.383700  0.550800  0.007960
    H   H6   0.129800  0.536100  0.565200  0.103757
    C   C11  0.203600  0.211400  0.590000  -0.133986
    C   C12  0.236700  0.990500  0.569300  -0.070117
    H   H7   0.277500  0.875900  0.596200  0.123438
    C   C13  0.209500  0.939800  0.508800  -0.129809
    H   H8   0.231700  0.791000  0.493900  0.099441
    C   C14  0.227500  0.262400  0.655700  0.780533
    O   O1   0.512400  0.475500  0.252210  -0.780110
    O   O2   0.540900  0.080800  0.243720  -0.705608
    O   O3   0.005400  0.195800  0.371240  -0.571711
    O   O4   0.086600  0.779600  0.390540  -0.526836
    O   O5   0.237100  0.476800  0.672650  -0.698896
    O   O6   0.240600  0.085000  0.690660  -0.759383
    S   S1   0.103230  0.036400  0.394140  1.098714
    Ca  Ca1  0.637200  0.743310  0.221170  1.515757
    C   C15  0.006800  0.758600  0.238000  0.873253
    C   C16  0.100200  0.711100  0.200900  -0.207433
    C   C17  0.187900  0.878900  0.199900  0.095976
    H   H9   0.185800  0.028700  0.219600  0.113830
    C   C18  0.279200  0.828200  0.170100  -0.203484
    H   H10  0.340300  0.941300  0.169600  0.155142
    C   C19  0.279100  0.609600  0.141100  -0.080539
    C   C20  0.189100  0.441300  0.139700  -0.183249
    H   H11  0.189000  0.295800  0.118000  0.119385
    C   C21  0.099800  0.491200  0.170700  -0.055573
    H   H12  0.039100  0.377700  0.171400  0.111560
    C   C22  0.351000  0.611900  0.029800  -0.115822
    C   C23  0.380600  0.834000  0.009900  -0.116659
    H   H13  0.419700  0.950200  0.037000  0.140551
    C   C24  0.351800  0.883700  0.949200  0.007875
    H   H14  0.370200  0.036100  0.934800  0.103812
    C   C25  0.296400  0.711400  0.910000  -0.133924
    C   C26  0.263300  0.490500  0.930700  -0.070108
    H   H15  0.222500  0.375900  0.903800  0.123431
    C   C27  0.290500  0.439800  0.991200  -0.129844
    H   H16  0.268300  0.291000  0.006100  0.099456
    C   C28  0.272500  0.762400  0.844300  0.780463
    O   O7   0.987600  0.975500  0.247790  -0.780144
    O   O8   0.959100  0.580800  0.256280  -0.705646
    O   O9   0.494600  0.695800  0.128760  -0.571684
    O   O10  0.413400  0.279600  0.109460  -0.526827
    O   O11  0.262900  0.976800  0.827350  -0.698865
    O   O12  0.259400  0.585000  0.809340  -0.759379
    S   S2   0.396770  0.536400  0.105860  1.098657
    Ca  Ca2  0.862800  0.243310  0.278830  1.515785
    C   C29  0.506800  0.741400  0.738000  0.873270
    C   C30  0.600200  0.788900  0.700900  -0.207457
    C   C31  0.687900  0.621100  0.699900  0.095983
    H   H17  0.685800  0.471300  0.719600  0.113828
    C   C32  0.779200  0.671800  0.670100  -0.203490
    H   H18  0.840300  0.558700  0.669600  0.155137
    C   C33  0.779100  0.890400  0.641100  -0.080522
    C   C34  0.689100  0.058700  0.639700  -0.183244
    H   H19  0.689000  0.204200  0.618000  0.119386
    C   C35  0.599800  0.008800  0.670700  -0.055570
    H   H20  0.539100  0.122300  0.671400  0.111557
    C   C36  0.851000  0.888100  0.529800  -0.115821
    C   C37  0.880600  0.666000  0.509900  -0.116641
    H   H21  0.919700  0.549800  0.537000  0.140537
    C   C38  0.851800  0.616300  0.449200  0.007861
    H   H22  0.870200  0.463900  0.434800  0.103818
    C   C39  0.796400  0.788600  0.410000  -0.133925
    C   C40  0.763300  0.009500  0.430700  -0.070105
    H   H23  0.722500  0.124100  0.403800  0.123429
    C   C41  0.790500  0.060200  0.491200  -0.129843
    H   H24  0.768300  0.209000  0.506100  0.099460
    C   C42  0.772500  0.737600  0.344300  0.780470
    O   O13  0.487600  0.524500  0.747790  -0.780142
    O   O14  0.459100  0.919200  0.756280  -0.705654
    O   O15  0.994600  0.804200  0.628760  -0.571630
    O   O16  0.913400  0.220400  0.609460  -0.526833
    O   O17  0.762900  0.523200  0.327350  -0.698858
    O   O18  0.759400  0.915000  0.309340  -0.759380
    S   S3   0.896770  0.963600  0.605860  1.098612
    Ca  Ca3  0.362800  0.256690  0.778830  1.515785
    C   C43  0.993200  0.241400  0.762000  0.873240
    C   C44  0.899800  0.288900  0.799100  -0.207403
    C   C45  0.812100  0.121100  0.800100  0.095948
    H   H25  0.814200  0.971300  0.780400  0.113828
    C   C46  0.720800  0.171800  0.829900  -0.203443
    H   H26  0.659700  0.058700  0.830400  0.155144
    C   C47  0.720900  0.390400  0.858900  -0.080587
    C   C48  0.810900  0.558700  0.860300  -0.183226
    H   H27  0.811000  0.704200  0.882000  0.119376
    C   C49  0.900200  0.508800  0.829300  -0.055596
    H   H28  0.960900  0.622300  0.828600  0.111570
    C   C50  0.649000  0.388100  0.970200  -0.115834
    C   C51  0.619400  0.166000  0.990100  -0.116663
    H   H29  0.580300  0.049800  0.963000  0.140556
    C   C52  0.648200  0.116300  0.050800  0.007896
    H   H30  0.629800  0.963900  0.065200  0.103801
    C   C53  0.703600  0.288600  0.090000  -0.133947
    C   C54  0.736700  0.509500  0.069300  -0.070099
    H   H31  0.777500  0.624100  0.096200  0.123427
    C   C55  0.709500  0.560200  0.008800  -0.129835
    H   H32  0.731700  0.709000  0.993900  0.099448
    C   C56  0.727500  0.237600  0.155700  0.780487
    O   O19  0.012400  0.024500  0.752210  -0.780145
    O   O20  0.040900  0.419200  0.743720  -0.705646
    O   O21  0.505400  0.304200  0.871240  -0.571705
    O   O22  0.586600  0.720400  0.890540  -0.526828
    O   O23  0.737100  0.023200  0.172650  -0.698868
    O   O24  0.740600  0.415000  0.190660  -0.759378
    S   S4   0.603230  0.463600  0.894140  1.098697
    Ca  Ca4  0.137200  0.756690  0.721170  1.515785
