# Generated by REPEAT Assigner based on pymatgen
data_DB12-OYEBIE_freeONLY
_audit_creation_date              2022-05-24
_audit_creation_method            REPEAT_Assigner
_cell_length_a                    9.479170
_cell_length_b                    11.365800
_cell_length_c                    22.126500
_cell_angle_alpha                 102.434000
_cell_angle_beta                  90.000000
_cell_angle_gamma                 114.646000
_cell_volume                      2105.030568
_symmetry_space_group_name_H-M    P1
_symmetry_Int_Tables_number       1
loop_
    _symmetry_equiv_pos_site_id
    _symmetry_equiv_pos_as_xyz
    1  x,y,z
loop_
    _atom_site_type_symbol
    _atom_site_label
    _atom_site_fract_x
    _atom_site_fract_y
    _atom_site_fract_z
    _atom_type_partial_charge
    Zn  Zn1  0.078940  0.666500  0.620110  1.105839
    Zn  Zn2  0.412440  0.333500  0.879890  1.112661
    Zn  Zn3  0.921060  0.333500  0.379890  1.105852
    Zn  Zn4  0.587560  0.666500  0.120110  1.112674
    H   H1   0.963400  0.395000  0.545900  0.074636
    H   H2   0.017500  0.214800  0.524200  0.163474
    H   H3   0.387500  0.411600  0.648000  0.096642
    H   H4   0.325000  0.588000  0.666500  0.080987
    H   H5   0.215000  0.125200  0.527900  0.063757
    H   H6   0.353500  0.198000  0.580800  -0.031785
    H   H7   0.166500  0.989200  0.594600  0.033800
    H   H8   0.044800  0.050400  0.604800  0.081042
    H   H9   0.140500  0.266000  0.800700  0.072578
    H   H10  0.039200  0.171000  0.701400  0.138068
    H   H11  0.408400  0.097400  0.670500  0.090215
    H   H12  0.500400  0.192600  0.770500  0.087367
    H   H13  0.587100  0.723800  0.544700  0.021192
    H   H14  0.645600  0.388000  0.516700  0.051074
    H   H15  0.602600  0.038600  0.598200  0.084892
    H   H16  0.262200  0.823000  0.463400  0.070145
    H   H17  0.568400  0.605000  0.954100  0.075942
    H   H18  0.802700  0.785200  0.975800  0.165336
    H   H19  0.975900  0.588400  0.852000  0.095545
    H   H20  0.737000  0.412000  0.833500  0.080609
    H   H21  0.089800  0.874800  0.972100  0.061102
    H   H22  0.155500  0.802000  0.919200  -0.033383
    H   H23  0.177300  0.010800  0.905400  0.034760
    H   H24  0.994400  0.949600  0.895200  0.082066
    H   H25  0.874500  0.734000  0.699300  0.074333
    H   H26  0.868200  0.829000  0.798600  0.138227
    H   H27  0.311000  0.902600  0.829500  0.092296
    H   H28  0.307800  0.807400  0.729500  0.086494
    H   H29  0.863300  0.276200  0.955300  0.023606
    H   H30  0.257600  0.612000  0.983300  0.049788
    H   H31  0.564000  0.961400  0.901800  0.086584
    H   H32  0.439200  0.177000  0.036600  0.068782
    H   H33  0.036600  0.605000  0.454100  0.074633
    H   H34  0.982500  0.785200  0.475800  0.163479
    H   H35  0.612500  0.588400  0.352000  0.096632
    H   H36  0.675000  0.412000  0.333500  0.080986
    H   H37  0.785000  0.874800  0.472100  0.063763
    H   H38  0.646500  0.802000  0.419200  -0.031777
    H   H39  0.833500  0.010800  0.405400  0.033827
    H   H40  0.955200  0.949600  0.395200  0.081054
    H   H41  0.859500  0.734000  0.199300  0.072581
    H   H42  0.960800  0.829000  0.298600  0.138076
    H   H43  0.591600  0.902600  0.329500  0.090218
    H   H44  0.499600  0.807400  0.229500  0.087343
    H   H45  0.412900  0.276200  0.455300  0.021188
    H   H46  0.354400  0.612000  0.483300  0.051063
    H   H47  0.397400  0.961400  0.401800  0.084899
    H   H48  0.737800  0.177000  0.536600  0.070158
    H   H49  0.431600  0.395000  0.045900  0.075939
    H   H50  0.197300  0.214800  0.024200  0.165422
    H   H51  0.024100  0.411600  0.148000  0.095597
    H   H52  0.263000  0.588000  0.166500  0.080629
    H   H53  0.910200  0.125200  0.027900  0.061105
    H   H54  0.844500  0.198000  0.080800  -0.033189
    H   H55  0.822700  0.989200  0.094600  0.034807
    H   H56  0.005600  0.050400  0.104800  0.082069
    H   H57  0.125500  0.266000  0.300700  0.074311
    H   H58  0.131800  0.171000  0.201400  0.138227
    H   H59  0.689000  0.097400  0.170500  0.092309
    H   H60  0.692200  0.192600  0.270500  0.086490
    H   H61  0.136700  0.723800  0.044700  0.023602
    H   H62  0.742400  0.388000  0.016700  0.049817
    H   H63  0.436000  0.038600  0.098200  0.086620
    H   H64  0.560800  0.823000  0.963400  0.068685
    C   C1   0.050210  0.399020  0.567380  0.322272
    C   C2   0.082290  0.289980  0.554210  -0.300659
    C   C3   0.207990  0.289580  0.584370  0.189780
    C   C4   0.299010  0.404820  0.626530  -0.246296
    C   C5   0.260420  0.510840  0.637470  0.157557
    C   C6   0.242320  0.169240  0.571700  0.034204
    C   C7   0.154920  0.071040  0.609580  -0.192827
    C   C8   0.195120  0.230840  0.773240  0.244285
    C   C9   0.134660  0.175320  0.714630  -0.329748
    C   C10  0.213730  0.125460  0.674570  0.429781
    C   C11  0.351940  0.132480  0.696990  -0.204997
    C   C12  0.406000  0.188600  0.756040  0.185937
    C   C13  0.551560  0.633320  0.526560  -0.035310
    C   C14  0.639720  0.567040  0.536920  -0.166831
    C   C15  0.586960  0.433120  0.509980  0.066383
    C   C16  0.791740  0.641280  0.575960  0.839231
    C   C17  0.560680  0.023160  0.557700  -0.111013
    C   C18  0.418170  0.917340  0.536470  0.046990
    C   C19  0.358180  0.894360  0.478690  -0.127907
    C   C20  0.326580  0.830760  0.576370  0.719583
    C   C21  0.651190  0.600980  0.932620  0.326035
    C   C22  0.792310  0.710020  0.945790  -0.303658
    C   C23  0.918410  0.710420  0.915630  0.186327
    C   C24  0.894190  0.595180  0.873470  -0.246101
    C   C25  0.749580  0.489160  0.862530  0.162505
    C   C26  0.073080  0.830760  0.928300  0.045652
    C   C27  0.083880  0.928960  0.890420  -0.199988
    C   C28  0.964280  0.769160  0.726760  0.240967
    C   C29  0.959340  0.824680  0.785370  -0.328739
    C   C30  0.088270  0.874540  0.825430  0.433270
    C   C31  0.219460  0.867520  0.803010  -0.211085
    C   C32  0.217400  0.811400  0.743960  0.190260
    C   C33  0.918240  0.366680  0.973440  -0.040699
    C   C34  0.072680  0.432960  0.963080  -0.166840
    C   C35  0.153840  0.566880  0.990020  0.070319
    C   C36  0.150460  0.358720  0.924040  0.841990
    C   C37  0.537520  0.976840  0.942300  -0.114773
    C   C38  0.500830  0.082660  0.963530  0.043346
    C   C39  0.463820  0.105640  0.021310  -0.123951
    C   C40  0.495820  0.169240  0.923630  0.726663
    C   C41  0.949790  0.600980  0.432620  0.322280
    C   C42  0.917710  0.710020  0.445790  -0.300660
    C   C43  0.792010  0.710420  0.415630  0.189769
    C   C44  0.700990  0.595180  0.373470  -0.246270
    C   C45  0.739580  0.489160  0.362530  0.157544
    C   C46  0.757680  0.830760  0.428300  0.034187
    C   C47  0.845080  0.928960  0.390420  -0.192866
    C   C48  0.804880  0.769160  0.226760  0.244276
    C   C49  0.865340  0.824680  0.285370  -0.329766
    C   C50  0.786270  0.874540  0.325430  0.429808
    C   C51  0.648060  0.867520  0.303010  -0.205035
    C   C52  0.594000  0.811400  0.243960  0.186000
    C   C53  0.448440  0.366680  0.473440  -0.035302
    C   C54  0.360280  0.432960  0.463080  -0.166842
    C   C55  0.413040  0.566880  0.490020  0.066393
    C   C56  0.208260  0.358720  0.424040  0.839239
    C   C57  0.439320  0.976840  0.442300  -0.111037
    C   C58  0.581830  0.082660  0.463530  0.047013
    C   C59  0.641820  0.105640  0.521310  -0.127939
    C   C60  0.673420  0.169240  0.423630  0.719570
    C   C61  0.348810  0.399020  0.067380  0.326116
    C   C62  0.207690  0.289980  0.054210  -0.303956
    C   C63  0.081590  0.289580  0.084370  0.186776
    C   C64  0.105810  0.404820  0.126530  -0.246281
    C   C65  0.250420  0.510840  0.137470  0.162478
    C   C66  0.926920  0.169240  0.071700  0.045293
    C   C67  0.916120  0.071040  0.109580  -0.199966
    C   C68  0.035720  0.230840  0.273240  0.241037
    C   C69  0.040660  0.175320  0.214630  -0.328751
    C   C70  0.911730  0.125460  0.174570  0.433268
    C   C71  0.780540  0.132480  0.196990  -0.211201
    C   C72  0.782600  0.188600  0.256040  0.190329
    C   C73  0.081760  0.633320  0.026560  -0.040702
    C   C74  0.927320  0.567040  0.036920  -0.166768
    C   C75  0.846160  0.433120  0.009980  0.070159
    C   C76  0.849540  0.641280  0.075960  0.841962
    C   C77  0.462480  0.023160  0.057700  -0.114796
    C   C78  0.499170  0.917340  0.036470  0.043313
    C   C79  0.536180  0.894360  0.978690  -0.123745
    C   C80  0.504180  0.830760  0.076370  0.726583
    N   N1   0.136390  0.509660  0.609050  -0.508558
    N   N2   0.329770  0.238480  0.794380  -0.558638
    N   N3   0.626730  0.490340  0.890950  -0.516390
    N   N4   0.091290  0.761520  0.705620  -0.558052
    N   N5   0.863610  0.490340  0.390950  -0.508562
    N   N6   0.670230  0.761520  0.205620  -0.558626
    N   N7   0.373270  0.509660  0.109050  -0.516432
    N   N8   0.908710  0.238480  0.294380  -0.558107
    O   O1   0.859550  0.569980  0.586500  -0.818356
    O   O2   0.844210  0.762200  0.595410  -0.647835
    O   O3   0.182370  0.761660  0.560030  -0.640686
    O   O4   0.390640  0.831640  0.623290  -0.631562
    O   O5   0.289570  0.430020  0.913500  -0.821555
    O   O6   0.082010  0.237800  0.904590  -0.648388
    O   O7   0.420710  0.238340  0.939970  -0.646748
    O   O8   0.559000  0.168360  0.876710  -0.633800
    O   O9   0.140450  0.430020  0.413500  -0.818352
    O   O10  0.155790  0.237800  0.404590  -0.647839
    O   O11  0.817630  0.238340  0.439970  -0.640697
    O   O12  0.609360  0.168360  0.376710  -0.631555
    O   O13  0.710430  0.569980  0.086500  -0.821547
    O   O14  0.917990  0.762200  0.095410  -0.648401
    O   O15  0.579290  0.761660  0.060030  -0.646735
    O   O16  0.441000  0.831640  0.123290  -0.633769
