# Generated by REPEAT Assigner based on pymatgen
data_DB12-KOSJAF_clean
_audit_creation_date              2022-05-24
_audit_creation_method            REPEAT_Assigner
_cell_length_a                    6.781000
_cell_length_b                    15.090100
_cell_length_c                    15.090100
_cell_angle_alpha                 62.202700
_cell_angle_beta                  81.385300
_cell_angle_gamma                 98.614700
_cell_volume                      1307.234361
_symmetry_space_group_name_H-M    P1
_symmetry_Int_Tables_number       1
loop_
    _symmetry_equiv_pos_site_id
    _symmetry_equiv_pos_as_xyz
    1  x,y,z
loop_
    _atom_site_type_symbol
    _atom_site_label
    _atom_site_fract_x
    _atom_site_fract_y
    _atom_site_fract_z
    _atom_type_partial_charge
    Co  Co1  0.394400  0.282900  0.422700  1.080230
    Co  Co2  0.111500  0.294400  0.282900  1.080502
    Co  Co3  0.817100  0.705600  0.577300  1.078421
    Co  Co4  0.111500  0.717100  0.705600  1.080505
    Co  Co5  0.394400  0.577300  0.717100  1.080227
    Co  Co6  0.817100  0.422700  0.294400  1.078422
    H   H1   0.522950  0.423850  0.000000  0.130064
    H   H2   0.099100  0.576150  0.423850  0.130219
    H   H3   0.251800  0.516400  0.000000  0.149446
    H   H4   0.522950  0.000000  0.576150  0.130067
    H   H5   0.735400  0.483600  0.516400  0.148415
    H   H6   0.251800  0.000000  0.483600  0.149446
    C   C1   0.314800  0.493200  0.412900  -0.550151
    C   C2   0.085250  0.000000  0.503250  -0.396586
    C   C3   0.038300  0.533600  0.904700  0.491603
    C   C4   0.821600  0.093900  0.493200  -0.557479
    C   C5   0.689250  0.000000  0.557250  0.264668
    C   C6   0.821600  0.506800  0.906100  -0.557474
    C   C7   0.246500  0.557250  0.442750  0.262627
    C   C8   0.943000  0.438300  0.095300  0.487574
    C   C9   0.588500  0.503250  0.496750  -0.392452
    C   C10  0.943000  0.904700  0.561700  0.487574
    C   C11  0.504700  0.466400  0.438300  0.483219
    C   C12  0.689250  0.442750  0.000000  0.264667
    C   C13  0.744900  0.541000  0.814300  0.834158
    C   C14  0.727700  0.906100  0.587100  -0.551279
    C   C15  0.744900  0.185700  0.459000  0.834161
    C   C16  0.203900  0.459000  0.355300  0.825757
    C   C17  0.559200  0.814300  0.644700  0.827047
    C   C18  0.727700  0.412900  0.093900  -0.551283
    C   C19  0.203900  0.644700  0.541000  0.825761
    C   C20  0.038300  0.095300  0.466400  0.491610
    C   C21  0.504700  0.561700  0.533600  0.483221
    C   C22  0.085250  0.496750  0.000000  -0.396583
    C   C23  0.559200  0.355300  0.185700  0.827048
    C   C24  0.314800  0.587100  0.506800  -0.550155
    O   O1   0.582400  0.404500  0.414500  -0.599740
    O   O2   0.872000  0.611400  0.726300  -0.685197
    O   O3   0.061300  0.501300  0.326500  -0.631620
    O   O4   0.996900  0.414500  0.181000  -0.602631
    O   O5   0.387800  0.326500  0.172200  -0.633025
    O   O6   0.177900  0.181000  0.404500  -0.604796
    O   O7   0.260600  0.662300  0.611400  -0.679571
    O   O8   0.582400  0.585500  0.595500  -0.599741
    O   O9   0.387800  0.827800  0.673500  -0.633030
    O   O10  0.177900  0.595500  0.819000  -0.604791
    O   O11  0.560000  0.172200  0.501300  -0.634695
    O   O12  0.598300  0.337700  0.273700  -0.680334
    O   O13  0.260600  0.388600  0.337700  -0.679570
    O   O14  0.560000  0.498700  0.827800  -0.634691
    O   O15  0.996900  0.819000  0.585500  -0.602634
    O   O16  0.598300  0.726300  0.662300  -0.680332
    O   O17  0.061300  0.673500  0.498700  -0.631619
    O   O18  0.872000  0.273700  0.388600  -0.685197
