# Generated by REPEAT Assigner based on pymatgen
data_DB12-WOHZAU01_clean_h
_audit_creation_date              2022-05-24
_audit_creation_method            REPEAT_Assigner
_cell_length_a                    9.075700
_cell_length_b                    9.075700
_cell_length_c                    15.922000
_cell_angle_alpha                 88.458600
_cell_angle_beta                  88.458600
_cell_angle_gamma                 84.890100
_cell_volume                      1305.388218
_symmetry_space_group_name_H-M    P1
_symmetry_Int_Tables_number       1
loop_
    _symmetry_equiv_pos_site_id
    _symmetry_equiv_pos_as_xyz
    1  x,y,z
loop_
    _atom_site_type_symbol
    _atom_site_label
    _atom_site_fract_x
    _atom_site_fract_y
    _atom_site_fract_z
    _atom_type_partial_charge
    Er  Er1  0.222020  0.022400  0.489210  1.989426
    Er  Er2  0.977600  0.777980  0.010790  1.989428
    Er  Er3  0.777980  0.977600  0.510790  1.989402
    Er  Er4  0.022400  0.222020  0.989210  1.989398
    C   C1   0.472500  0.909900  0.629600  1.004569
    C   C2   0.227500  0.003900  0.908600  0.757296
    C   C3   0.742600  0.774200  0.902400  0.849138
    C   C4   0.467000  0.854600  0.721500  -0.159821
    C   C5   0.350100  0.954900  0.770000  -0.098844
    C   C6   0.333600  0.901000  0.861100  -0.034814
    C   C7   0.484400  0.883800  0.906500  -0.113959
    C   C8   0.598400  0.785600  0.855600  -0.185440
    C   C9   0.616800  0.846000  0.764500  -0.003381
    C   C10  0.090100  0.527500  0.870400  1.004543
    C   C11  0.996100  0.772500  0.591400  0.757321
    C   C12  0.225800  0.257400  0.597600  0.849152
    C   C13  0.145400  0.533000  0.778500  -0.159806
    C   C14  0.045100  0.649900  0.730000  -0.098850
    C   C15  0.099000  0.666400  0.638900  -0.034806
    C   C16  0.116200  0.515600  0.593500  -0.113975
    C   C17  0.214400  0.401600  0.644400  -0.185441
    C   C18  0.154000  0.383200  0.735500  -0.003391
    C   C19  0.527500  0.090100  0.370400  1.004540
    C   C20  0.772500  0.996100  0.091400  0.757310
    C   C21  0.257400  0.225800  0.097600  0.849113
    C   C22  0.533000  0.145400  0.278500  -0.159850
    C   C23  0.649900  0.045100  0.230000  -0.098856
    C   C24  0.666400  0.099000  0.138900  -0.034787
    C   C25  0.515600  0.116200  0.093500  -0.113956
    C   C26  0.401600  0.214400  0.144400  -0.185471
    C   C27  0.383200  0.154000  0.235500  -0.003258
    C   C28  0.909900  0.472500  0.129600  1.004580
    C   C29  0.003900  0.227500  0.408600  0.757291
    C   C30  0.774200  0.742600  0.402400  0.849121
    C   C31  0.854600  0.467000  0.221500  -0.159864
    C   C32  0.954900  0.350100  0.270000  -0.098846
    C   C33  0.901000  0.333600  0.361100  -0.034791
    C   C34  0.883800  0.484400  0.406500  -0.113940
    C   C35  0.785600  0.598400  0.355600  -0.185476
    C   C36  0.846000  0.616800  0.264500  -0.003256
    O   O1   0.360700  0.905700  0.587900  -0.735483
    O   O2   0.589700  0.958900  0.600300  -0.835818
    O   O3   0.243200  0.141000  0.911700  -0.606910
    O   O4   0.115700  0.956100  0.950000  -0.843738
    O   O5   0.824500  0.876300  0.899200  -0.690769
    O   O6   0.775500  0.662700  0.951200  -0.675143
    O   O7   0.094300  0.639300  0.912100  -0.735486
    O   O8   0.041100  0.410300  0.899700  -0.835795
    O   O9   0.859000  0.756800  0.588300  -0.606919
    O   O10  0.043900  0.884300  0.550000  -0.843753
    O   O11  0.123700  0.175500  0.600800  -0.690772
    O   O12  0.337300  0.224500  0.548800  -0.675155
    O   O13  0.639300  0.094300  0.412100  -0.735479
    O   O14  0.410300  0.041100  0.399700  -0.835767
    O   O15  0.756800  0.859000  0.088300  -0.606953
    O   O16  0.884300  0.043900  0.050000  -0.843717
    O   O17  0.175500  0.123700  0.100800  -0.690735
    O   O18  0.224500  0.337300  0.048800  -0.675144
    O   O19  0.905700  0.360700  0.087900  -0.735508
    O   O20  0.958900  0.589700  0.100300  -0.835784
    O   O21  0.141000  0.243200  0.411700  -0.606954
    O   O22  0.956100  0.115700  0.450000  -0.843697
    O   O23  0.876300  0.824500  0.399200  -0.690748
    O   O24  0.662700  0.775500  0.451200  -0.675151
    H   H1   0.289270  0.054300  0.736790  0.123389
    H   H2   0.496390  0.940860  0.968550  0.148368
    H   H3   0.718520  0.881700  0.728560  0.111951
    H   H4   0.945700  0.710730  0.763210  0.123389
    H   H5   0.059140  0.503610  0.531450  0.148380
    H   H6   0.118300  0.281480  0.771440  0.111954
    H   H7   0.710730  0.945700  0.263210  0.123399
    H   H8   0.503610  0.059140  0.031450  0.148346
    H   H9   0.281480  0.118300  0.271440  0.111861
    H   H10  0.054300  0.289270  0.236790  0.123396
    H   H11  0.940860  0.496390  0.468550  0.148332
    H   H12  0.881700  0.718520  0.228560  0.111861
