# generated using pymatgen
data_ZnH8C19(NO3)2
_symmetry_space_group_name_H-M   'P 1'
_cell_length_a   5.64150000
_cell_length_b   14.84700000
_cell_length_c   27.63300000
_cell_angle_alpha   90.00000000
_cell_angle_beta   90.00000000
_cell_angle_gamma   100.14900000
_symmetry_Int_Tables_number   1
_chemical_formula_structural   ZnH8C19(NO3)2
_chemical_formula_sum   'Zn4 H32 C76 N8 O24'
_cell_volume   2278.30644432
_cell_formula_units_Z   4
loop_
 _symmetry_equiv_pos_site_id
 _symmetry_equiv_pos_as_xyz
  1  'x, y, z'
loop_
 _atom_site_type_symbol
 _atom_site_label
 _atom_site_symmetry_multiplicity
 _atom_site_fract_x
 _atom_site_fract_y
 _atom_site_fract_z
 _atom_site_occupancy
  Zn  Zn1  1  0.96075000  0.58923000  0.97628000  1
  Zn  Zn2  1  0.53925000  0.91077000  0.47628000  1
  Zn  Zn3  1  0.03925000  0.41077000  0.02372000  1
  Zn  Zn4  1  0.46075000  0.08923000  0.52372000  1
  H  H1  1  0.23980000  0.76050000  0.42280000  1
  H  H2  1  0.22270000  0.69740000  0.34560000  1
  H  H3  1  0.91670000  0.82060000  0.32490000  1
  H  H4  1  0.91820000  0.87900000  0.40370000  1
  H  H5  1  0.92080000  0.53740000  0.22500000  1
  H  H6  1  0.91380000  0.48600000  0.14490000  1
  H  H7  1  0.14020000  0.75170000  0.09170000  1
  H  H8  1  0.16310000  0.80490000  0.17200000  1
  H  H9  1  0.26020000  0.73950000  0.92280000  1
  H  H10  1  0.27730000  0.80260000  0.84560000  1
  H  H11  1  0.58330000  0.67940000  0.82490000  1
  H  H12  1  0.58180000  0.62100000  0.90370000  1
  H  H13  1  0.57920000  0.96260000  0.72500000  1
  H  H14  1  0.58620000  0.01400000  0.64490000  1
  H  H15  1  0.35980000  0.74830000  0.59170000  1
  H  H16  1  0.33690000  0.69510000  0.67200000  1
  H  H17  1  0.76020000  0.23950000  0.57720000  1
  H  H18  1  0.77730000  0.30260000  0.65440000  1
  H  H19  1  0.08330000  0.17940000  0.67510000  1
  H  H20  1  0.08180000  0.12100000  0.59630000  1
  H  H21  1  0.07920000  0.46260000  0.77500000  1
  H  H22  1  0.08620000  0.51400000  0.85510000  1
  H  H23  1  0.85980000  0.24830000  0.90830000  1
  H  H24  1  0.83690000  0.19510000  0.82800000  1
  H  H25  1  0.73980000  0.26050000  0.07720000  1
  H  H26  1  0.72270000  0.19740000  0.15440000  1
  H  H27  1  0.41670000  0.32060000  0.17510000  1
  H  H28  1  0.41820000  0.37900000  0.09630000  1
  H  H29  1  0.42080000  0.03740000  0.27500000  1
  H  H30  1  0.41380000  0.98600000  0.35510000  1
  H  H31  1  0.64020000  0.25170000  0.40830000  1
  H  H32  1  0.66310000  0.30490000  0.32800000  1
  C  C1  1  0.37790000  0.77310000  0.40260000  1
  C  C2  1  0.36540000  0.73570000  0.35666000  1
  C  C3  1  0.56510000  0.75520000  0.32730000  1
  C  C4  1  0.77630000  0.80830000  0.34447000  1
  C  C5  1  0.77530000  0.84290000  0.39129000  1
  C  C6  1  0.70690000  0.66010000  0.26552000  1
  C  C7  1  0.69350000  0.62750000  0.21463000  1
  C  C8  1  0.54080000  0.66060000  0.18068000  1
  C  C9  1  0.39850000  0.72580000  0.19502000  1
  C  C10  1  0.39630000  0.75670000  0.24630000  1
  C  C11  1  0.82610000  0.56170000  0.20153000  1
  C  C12  1  0.82070000  0.53090000  0.15366000  1
  C  C13  1  0.68410000  0.56390000  0.11902000  1
  C  C14  1  0.53010000  0.62840000  0.13192000  1
  C  C15  1  0.36560000  0.66020000  0.09936000  1
  C  C16  1  0.23880000  0.72720000  0.11430000  1
  C  C17  1  0.25340000  0.75970000  0.16231000  1
  C  C18  1  0.72920000  0.53870000  0.06708000  1
  C  C19  1  0.28430000  0.61210000  0.05232000  1
  C  C20  1  0.12210000  0.72690000  0.90260000  1
  C  C21  1  0.13460000  0.76430000  0.85666000  1
  C  C22  1  0.93490000  0.74480000  0.82730000  1
  C  C23  1  0.72370000  0.69170000  0.84447000  1
  C  C24  1  0.72470000  0.65710000  0.89129000  1
  C  C25  1  0.79310000  0.83990000  0.76552000  1
  C  C26  1  0.80650000  0.87250000  0.71463000  1
  C  C27  1  0.95920000  0.83940000  0.68068000  1
  C  C28  1  0.10150000  0.77420000  0.69502000  1
  C  C29  1  0.10370000  0.74330000  0.74630000  1
  C  C30  1  0.67390000  0.93830000  0.70153000  1
  C  C31  1  0.67930000  0.96910000  0.65366000  1
  C  C32  1  0.81590000  0.93610000  0.61902000  1
  C  C33  1  0.96990000  0.87160000  0.63192000  1
  C  C34  1  0.13440000  0.83980000  0.59936000  1
  C  C35  1  0.26120000  0.77280000  0.61430000  1
  C  C36  1  0.24660000  0.74030000  0.66231000  1
  C  C37  1  0.77080000  0.96130000  0.56708000  1
  C  C38  1  0.21570000  0.88790000  0.55232000  1
  C  C39  1  0.62210000  0.22690000  0.59740000  1
  C  C40  1  0.63460000  0.26430000  0.64334000  1
  C  C41  1  0.43490000  0.24480000  0.67270000  1
  C  C42  1  0.22370000  0.19170000  0.65553000  1
  C  C43  1  0.22470000  0.15710000  0.60871000  1
  C  C44  1  0.29310000  0.33990000  0.73448000  1
  C  C45  1  0.30650000  0.37250000  0.78537000  1
  C  C46  1  0.45920000  0.33940000  0.81932000  1
  C  C47  1  0.60150000  0.27420000  0.80498000  1
  C  C48  1  0.60370000  0.24330000  0.75370000  1
  C  C49  1  0.17390000  0.43830000  0.79847000  1
  C  C50  1  0.17930000  0.46910000  0.84634000  1
  C  C51  1  0.31590000  0.43610000  0.88098000  1
  C  C52  1  0.46990000  0.37160000  0.86808000  1
  C  C53  1  0.63440000  0.33980000  0.90064000  1
  C  C54  1  0.76120000  0.27280000  0.88570000  1
  C  C55  1  0.74660000  0.24030000  0.83769000  1
  C  C56  1  0.27080000  0.46130000  0.93292000  1
  C  C57  1  0.71570000  0.38790000  0.94768000  1
  C  C58  1  0.87790000  0.27310000  0.09740000  1
  C  C59  1  0.86540000  0.23570000  0.14334000  1
  C  C60  1  0.06510000  0.25520000  0.17270000  1
  C  C61  1  0.27630000  0.30830000  0.15553000  1
  C  C62  1  0.27530000  0.34290000  0.10871000  1
  C  C63  1  0.20690000  0.16010000  0.23448000  1
  C  C64  1  0.19350000  0.12750000  0.28537000  1
  C  C65  1  0.04080000  0.16060000  0.31932000  1
  C  C66  1  0.89850000  0.22580000  0.30498000  1
  C  C67  1  0.89630000  0.25670000  0.25370000  1
  C  C68  1  0.32610000  0.06170000  0.29847000  1
  C  C69  1  0.32070000  0.03090000  0.34634000  1
  C  C70  1  0.18410000  0.06390000  0.38098000  1
  C  C71  1  0.03010000  0.12840000  0.36808000  1
  C  C72  1  0.86560000  0.16020000  0.40064000  1
  C  C73  1  0.73880000  0.22720000  0.38570000  1
  C  C74  1  0.75340000  0.25970000  0.33769000  1
  C  C75  1  0.22920000  0.03870000  0.43292000  1
  C  C76  1  0.78430000  0.11210000  0.44768000  1
  N  N1  1  0.57620000  0.82650000  0.41978000  1
  N  N2  1  0.55570000  0.72270000  0.27776000  1
  N  N3  1  0.92380000  0.67350000  0.91978000  1
  N  N4  1  0.94430000  0.77730000  0.77776000  1
  N  N5  1  0.42380000  0.17350000  0.58022000  1
  N  N6  1  0.44430000  0.27730000  0.72224000  1
  N  N7  1  0.07620000  0.32650000  0.08022000  1
  N  N8  1  0.05570000  0.22270000  0.22224000  1
  O  O1  1  0.75660000  0.60150000  0.03573000  1
  O  O2  1  0.76230000  0.45740000  0.06093000  1
  O  O3  1  0.23210000  0.66180000  0.01814000  1
  O  O4  1  0.24780000  0.52590000  0.05396000  1
  O  O5  1  0.27090000  0.80920000  0.26105000  1
  O  O6  1  0.83900000  0.63530000  0.29599000  1
  O  O7  1  0.74340000  0.89850000  0.53573000  1
  O  O8  1  0.73770000  0.04260000  0.56093000  1
  O  O9  1  0.26790000  0.83820000  0.51814000  1
  O  O10  1  0.25220000  0.97410000  0.55396000  1
  O  O11  1  0.22910000  0.69080000  0.76105000  1
  O  O12  1  0.66100000  0.86470000  0.79599000  1
  O  O13  1  0.24340000  0.39850000  0.96427000  1
  O  O14  1  0.23770000  0.54260000  0.93907000  1
  O  O15  1  0.76790000  0.33820000  0.98186000  1
  O  O16  1  0.75220000  0.47410000  0.94604000  1
  O  O17  1  0.72910000  0.19080000  0.73895000  1
  O  O18  1  0.16100000  0.36470000  0.70401000  1
  O  O19  1  0.25660000  0.10150000  0.46427000  1
  O  O20  1  0.26230000  0.95740000  0.43907000  1
  O  O21  1  0.73210000  0.16180000  0.48186000  1
  O  O22  1  0.74780000  0.02590000  0.44604000  1
  O  O23  1  0.77090000  0.30920000  0.23895000  1
  O  O24  1  0.33900000  0.13530000  0.20401000  1
