# Generated by REPEAT Assigner based on pymatgen
data_DB12-FIJDIM07_clean
_audit_creation_date              2022-05-24
_audit_creation_method            REPEAT_Assigner
_cell_length_a                    10.796400
_cell_length_b                    13.499600
_cell_length_c                    14.427400
_cell_angle_alpha                 76.526300
_cell_angle_beta                  68.027500
_cell_angle_gamma                 66.429500
_cell_volume                      1778.702587
_symmetry_space_group_name_H-M    P1
_symmetry_Int_Tables_number       1
loop_
    _symmetry_equiv_pos_site_id
    _symmetry_equiv_pos_as_xyz
    1  x,y,z
loop_
    _atom_site_type_symbol
    _atom_site_label
    _atom_site_fract_x
    _atom_site_fract_y
    _atom_site_fract_z
    _atom_type_partial_charge
    Mn  Mn1  0.859680  0.038340  0.110700  1.175872
    Mn  Mn2  0.508720  0.461660  0.389300  1.174598
    Mn  Mn3  0.140320  0.961660  0.889300  1.175873
    Mn  Mn4  0.491280  0.538340  0.610700  1.174578
    Mn  Mn5  0.784880  0.250000  0.250000  1.465815
    Mn  Mn6  0.215120  0.750000  0.750000  1.465836
    H   H1   0.201300  0.180300  0.847500  0.104361
    H   H2   0.295900  0.312600  0.753000  0.132488
    H   H3   0.955000  0.541000  0.907600  0.103898
    H   H4   0.867100  0.407800  0.009200  0.102195
    H   H5   0.548000  0.160200  0.450400  0.108795
    H   H6   0.578600  0.877300  0.384100  0.199636
    H   H7   0.729100  0.319700  0.652500  0.103249
    H   H8   0.861500  0.187400  0.747000  0.133004
    H   H9   0.903600  0.959000  0.592400  0.104584
    H   H10  0.784100  0.092200  0.490800  0.101151
    H   H11  0.658600  0.339800  0.049600  0.107764
    H   H12  0.340000  0.622700  0.115900  0.198257
    H   H13  0.798700  0.819700  0.152500  0.104320
    H   H14  0.704100  0.687400  0.247000  0.132498
    H   H15  0.045000  0.459000  0.092400  0.103901
    H   H16  0.132900  0.592200  0.990800  0.102191
    H   H17  0.452000  0.839800  0.549600  0.108811
    H   H18  0.421400  0.122700  0.615900  0.199657
    H   H19  0.270900  0.680300  0.347500  0.103247
    H   H20  0.138500  0.812600  0.253000  0.133008
    H   H21  0.096400  0.041000  0.407600  0.104587
    H   H22  0.215900  0.907800  0.509200  0.101154
    H   H23  0.341400  0.660200  0.950400  0.107762
    H   H24  0.660000  0.377300  0.884100  0.198257
    C   C1   0.968860  0.194950  0.003930  0.767606
    C   C2   0.025690  0.281020  0.939200  -0.145268
    C   C3   0.153180  0.252500  0.861140  -0.048332
    C   C4   0.208600  0.332120  0.803480  -0.163824
    C   C5   0.134940  0.440170  0.820550  -0.052510
    C   C6   0.006050  0.468420  0.896680  -0.117655
    C   C7   0.952410  0.388620  0.956960  0.035995
    C   C8   0.199720  0.524960  0.759600  0.715091
    C   C9   0.664130  0.044060  0.295480  0.579757
    C   C10  0.577610  0.021730  0.401250  0.136896
    C   C11  0.529070  0.095680  0.470380  -0.117967
    C   C12  0.547500  0.926480  0.430720  -0.291231
    C   C13  0.667740  0.305050  0.496070  0.768042
    C   C14  0.745910  0.218980  0.560800  -0.147089
    C   C15  0.766820  0.247500  0.638860  -0.048803
    C   C16  0.844200  0.167880  0.696520  -0.162814
    C   C17  0.895660  0.059830  0.679450  -0.050396
    C   C18  0.871150  0.031580  0.603320  -0.121157
    C   C19  0.797990  0.111380  0.543040  0.039993
    C   C20  0.984280  0.975040  0.740400  0.715145
    C   C21  0.503670  0.455940  0.204520  0.576327
    C   C22  0.500590  0.478270  0.098750  0.133685
    C   C23  0.595130  0.404320  0.029620  -0.115398
    C   C24  0.404700  0.573520  0.069280  -0.289251
    C   C25  0.031140  0.805050  0.996070  0.767632
    C   C26  0.974310  0.718980  0.060800  -0.145292
    C   C27  0.846820  0.747500  0.138860  -0.048286
    C   C28  0.791400  0.667880  0.196520  -0.163844
    C   C29  0.865060  0.559830  0.179450  -0.052505
    C   C30  0.993950  0.531580  0.103320  -0.117669
    C   C31  0.047590  0.611380  0.043040  0.036008
    C   C32  0.800280  0.475040  0.240400  0.715100
    C   C33  0.335870  0.955940  0.704520  0.579951
    C   C34  0.422390  0.978270  0.598750  0.136836
    C   C35  0.470930  0.904320  0.529620  -0.117998
    C   C36  0.452500  0.073520  0.569280  -0.291266
    C   C37  0.332260  0.694950  0.503930  0.768040
    C   C38  0.254090  0.781020  0.439200  -0.147088
    C   C39  0.233180  0.752500  0.361140  -0.048799
    C   C40  0.155800  0.832120  0.303480  -0.162827
    C   C41  0.104340  0.940170  0.320550  -0.050372
    C   C42  0.128850  0.968420  0.396680  -0.121170
    C   C43  0.202010  0.888620  0.456960  0.039991
    C   C44  0.015720  0.024960  0.259600  0.715130
    C   C45  0.496330  0.544060  0.795480  0.576304
    C   C46  0.499410  0.521730  0.901250  0.133696
    C   C47  0.404870  0.595680  0.970380  -0.115405
    C   C48  0.595300  0.426480  0.930720  -0.289259
    O   O1   0.017830  0.101290  0.975690  -0.675308
    O   O2   0.870650  0.215910  0.086310  -0.730342
    O   O3   0.136140  0.620850  0.782790  -0.677855
    O   O4   0.314510  0.491330  0.691450  -0.607623
    O   O5   0.684310  0.133310  0.267690  -0.666882
    O   O6   0.714480  0.972470  0.236570  -0.599311
    O   O7   0.594810  0.398710  0.524310  -0.675306
    O   O8   0.672870  0.284090  0.413690  -0.731525
    O   O9   0.039780  0.879150  0.717210  -0.677850
    O   O10  0.997290  0.008670  0.808550  -0.610348
    O   O11  0.585310  0.366690  0.232310  -0.664301
    O   O12  0.423520  0.527530  0.263430  -0.595821
    O   O13  0.982170  0.898710  0.024310  -0.675323
    O   O14  0.129350  0.784090  0.913690  -0.730347
    O   O15  0.863860  0.379150  0.217210  -0.677848
    O   O16  0.685490  0.508670  0.308550  -0.607635
    O   O17  0.315690  0.866690  0.732310  -0.666967
    O   O18  0.285520  0.027530  0.763430  -0.599402
    O   O19  0.405190  0.601290  0.475690  -0.675305
    O   O20  0.327130  0.715910  0.586310  -0.731524
    O   O21  0.960220  0.120850  0.282790  -0.677843
    O   O22  0.002710  0.991330  0.191450  -0.610344
    O   O23  0.414690  0.633310  0.767690  -0.664278
    O   O24  0.576480  0.472470  0.736570  -0.595809
