# Generated by REPEAT Assigner based on pymatgen
data_DB12-UWOWAF_clean
_audit_creation_date              2022-05-24
_audit_creation_method            REPEAT_Assigner
_cell_length_a                    12.017800
_cell_length_b                    12.017800
_cell_length_c                    19.425000
_cell_angle_alpha                 77.418600
_cell_angle_beta                  77.418600
_cell_angle_gamma                 77.689400
_cell_volume                      2631.613103
_symmetry_space_group_name_H-M    P1
_symmetry_Int_Tables_number       1
loop_
    _symmetry_equiv_pos_site_id
    _symmetry_equiv_pos_as_xyz
    1  x,y,z
loop_
    _atom_site_type_symbol
    _atom_site_label
    _atom_site_fract_x
    _atom_site_fract_y
    _atom_site_fract_z
    _atom_type_partial_charge
    Mn  Mn1  0.675700  0.018040  0.322190  1.233124
    Mn  Mn2  0.981960  0.324300  0.177810  1.233132
    Mn  Mn3  0.324300  0.981960  0.677810  1.233122
    Mn  Mn4  0.018040  0.675700  0.822190  1.233141
    Mn  Mn5  0.500000  0.000000  0.500000  1.466891
    Mn  Mn6  0.000000  0.500000  0.000000  1.466908
    H   H1   0.789500  0.342300  0.405500  0.173292
    H   H2   0.697900  0.514300  0.457500  0.176679
    H   H3   0.298500  0.766300  0.437500  0.258496
    H   H4   0.204000  0.672600  0.373000  0.165456
    H   H5   0.751700  0.714900  0.589500  0.139894
    H   H6   0.893100  0.535700  0.609200  0.202060
    H   H7   0.657700  0.210500  0.094500  0.173290
    H   H8   0.485700  0.302100  0.042500  0.176675
    H   H9   0.233700  0.701500  0.062500  0.258500
    H   H10  0.327400  0.796000  0.127000  0.165456
    H   H11  0.285100  0.248300  0.910500  0.139899
    H   H12  0.464300  0.106900  0.890800  0.202056
    H   H13  0.210500  0.657700  0.594500  0.173292
    H   H14  0.302100  0.485700  0.542500  0.176684
    H   H15  0.701500  0.233700  0.562500  0.258498
    H   H16  0.796000  0.327400  0.627000  0.165456
    H   H17  0.248300  0.285100  0.410500  0.139884
    H   H18  0.106900  0.464300  0.390800  0.202070
    H   H19  0.342300  0.789500  0.905500  0.173296
    H   H20  0.514300  0.697900  0.957500  0.176570
    H   H21  0.766300  0.298500  0.937500  0.258488
    H   H22  0.672600  0.204000  0.873000  0.165441
    H   H23  0.714900  0.751700  0.089500  0.139905
    H   H24  0.535700  0.893100  0.109200  0.202051
    C   C1   0.659400  0.179000  0.395700  0.678039
    C   C2   0.633300  0.288100  0.426700  -0.048898
    C   C3   0.711000  0.358200  0.424800  -0.254066
    C   C4   0.658400  0.457000  0.455200  -0.190528
    C   C5   0.540600  0.459200  0.481500  0.041832
    C   C6   0.462200  0.904200  0.365800  0.730997
    C   C7   0.385400  0.841200  0.344900  -0.000540
    C   C8   0.311800  0.775600  0.387800  -0.281494
    C   C9   0.256100  0.722100  0.350400  -0.175112
    C   C10  0.286500  0.750300  0.278400  0.043031
    C   C11  0.739300  0.837900  0.449500  0.661108
    C   C12  0.811700  0.729500  0.481200  0.028266
    C   C13  0.803900  0.683100  0.553000  -0.188977
    C   C14  0.886900  0.579100  0.563800  -0.257162
    C   C15  0.955400  0.548600  0.504000  0.110158
    C   C16  0.821000  0.340600  0.104300  0.678023
    C   C17  0.711900  0.366700  0.073300  -0.048872
    C   C18  0.641800  0.289000  0.075200  -0.254088
    C   C19  0.543000  0.341600  0.044800  -0.190515
    C   C20  0.540800  0.459400  0.018500  0.041879
    C   C21  0.095800  0.537800  0.134200  0.731003
    C   C22  0.158800  0.614600  0.155100  -0.000525
    C   C23  0.224400  0.688200  0.112200  -0.281517
    C   C24  0.277900  0.743900  0.149600  -0.175094
    C   C25  0.249700  0.713500  0.221600  0.043017
    C   C26  0.162100  0.260700  0.050500  0.661102
    C   C27  0.270500  0.188300  0.018800  0.028280
    C   C28  0.316900  0.196100  0.947000  -0.188995
    C   C29  0.420900  0.113100  0.936200  -0.257140
    C   C30  0.451400  0.044600  0.996000  0.110140
    C   C31  0.340600  0.821000  0.604300  0.678029
    C   C32  0.366700  0.711900  0.573300  -0.048890
    C   C33  0.289000  0.641800  0.575200  -0.254068
    C   C34  0.341600  0.543000  0.544800  -0.190535
    C   C35  0.459400  0.540800  0.518500  0.041833
    C   C36  0.537800  0.095800  0.634200  0.731020
    C   C37  0.614600  0.158800  0.655100  -0.000541
    C   C38  0.688200  0.224400  0.612200  -0.281501
    C   C39  0.743900  0.277900  0.649600  -0.175106
    C   C40  0.713500  0.249700  0.721600  0.043024
    C   C41  0.260700  0.162100  0.550500  0.661079
    C   C42  0.188300  0.270500  0.518800  0.028266
    C   C43  0.196100  0.316900  0.447000  -0.188948
    C   C44  0.113100  0.420900  0.436200  -0.257198
    C   C45  0.044600  0.451400  0.496000  0.110189
    C   C46  0.179000  0.659400  0.895700  0.678066
    C   C47  0.288100  0.633300  0.926700  -0.048924
    C   C48  0.358200  0.711000  0.924800  -0.254089
    C   C49  0.457000  0.658400  0.955200  -0.190354
    C   C50  0.459200  0.540600  0.981500  0.041733
    C   C51  0.904200  0.462200  0.865800  0.731050
    C   C52  0.841200  0.385400  0.844900  -0.000560
    C   C53  0.775600  0.311800  0.887800  -0.281483
    C   C54  0.722100  0.256100  0.850400  -0.175101
    C   C55  0.750300  0.286500  0.778400  0.043026
    C   C56  0.837900  0.739300  0.949500  0.661112
    C   C57  0.729500  0.811700  0.981200  0.028295
    C   C58  0.683100  0.803900  0.053000  -0.189011
    C   C59  0.579100  0.886900  0.063800  -0.257145
    C   C60  0.548600  0.955400  0.004000  0.110187
    S   S1   0.498090  0.339530  0.465820  0.070180
    S   S2   0.387930  0.838950  0.257490  -0.010603
    S   S3   0.917400  0.648860  0.429960  -0.075829
    S   S4   0.660470  0.501910  0.034180  0.070150
    S   S5   0.161050  0.612070  0.242510  -0.010601
    S   S6   0.351140  0.082600  0.070040  -0.075832
    S   S7   0.501910  0.660470  0.534180  0.070180
    S   S8   0.612070  0.161050  0.742510  -0.010599
    S   S9   0.082600  0.351140  0.570040  -0.075843
    S   S10  0.339530  0.498090  0.965820  0.070204
    S   S11  0.838950  0.387930  0.757490  -0.010600
    S   S12  0.648860  0.917400  0.929960  -0.075829
    O   O1   0.577200  0.122800  0.408200  -0.718379
    O   O2   0.753200  0.151000  0.358000  -0.646327
    O   O3   0.539200  0.939600  0.317400  -0.697323
    O   O4   0.443800  0.919400  0.428700  -0.680633
    O   O5   0.761100  0.867500  0.384300  -0.611178
    O   O6   0.662000  0.886000  0.493900  -0.609010
    O   O7   0.877200  0.422800  0.091800  -0.718361
    O   O8   0.849000  0.246800  0.142000  -0.646320
    O   O9   0.060400  0.460800  0.182600  -0.697342
    O   O10  0.080600  0.556200  0.071300  -0.680630
    O   O11  0.132500  0.238900  0.115700  -0.611184
    O   O12  0.114000  0.338000  0.006100  -0.609015
    O   O13  0.422800  0.877200  0.591800  -0.718376
    O   O14  0.246800  0.849000  0.642000  -0.646324
    O   O15  0.460800  0.060400  0.682600  -0.697342
    O   O16  0.556200  0.080600  0.571300  -0.680639
    O   O17  0.238900  0.132500  0.615700  -0.611151
    O   O18  0.338000  0.114000  0.506100  -0.609008
    O   O19  0.122800  0.577200  0.908200  -0.718400
    O   O20  0.151000  0.753200  0.858000  -0.646335
    O   O21  0.939600  0.539200  0.817400  -0.697350
    O   O22  0.919400  0.443800  0.928700  -0.680649
    O   O23  0.867500  0.761100  0.884300  -0.611188
    O   O24  0.886000  0.662000  0.993900  -0.609025
