# Generated by REPEAT Assigner based on pymatgen
data_DB12-AVAQIX01_clean
_audit_creation_date              2022-05-24
_audit_creation_method            REPEAT_Assigner
_cell_length_a                    12.246300
_cell_length_b                    15.457700
_cell_length_c                    18.845400
_cell_angle_alpha                 90.000000
_cell_angle_beta                  90.000000
_cell_angle_gamma                 90.000000
_cell_volume                      3567.427276
_symmetry_space_group_name_H-M    P1
_symmetry_Int_Tables_number       1
loop_
    _symmetry_equiv_pos_site_id
    _symmetry_equiv_pos_as_xyz
    1  x,y,z
loop_
    _atom_site_type_symbol
    _atom_site_label
    _atom_site_fract_x
    _atom_site_fract_y
    _atom_site_fract_z
    _atom_type_partial_charge
    C   C1   0.364900  0.245900  0.404540  0.645377
    C   C2   0.975700  0.419000  0.210640  -0.449848
    C   C3   0.034700  0.345500  0.229200  0.328104
    C   C4   0.935900  0.577500  0.225780  0.445857
    C   C5   0.135100  0.754100  0.904540  0.645082
    C   C6   0.051000  0.740200  0.961860  0.206146
    C   C7   0.058000  0.668800  0.005200  -0.291061
    C   C8   0.986900  0.661800  0.062000  0.061764
    C   C9   0.899300  0.786700  0.031200  0.074643
    C   C10  0.968300  0.798800  0.973700  -0.294801
    C   C11  0.361300  0.577800  0.808710  0.555015
    C   C12  0.449000  0.259800  0.461860  0.206399
    C   C13  0.415500  0.501100  0.793530  -0.631004
    C   C14  0.499700  0.502900  0.743960  0.434816
    C   C15  0.524300  0.581000  0.710640  -0.450220
    C   C16  0.465300  0.654500  0.729200  0.328875
    C   C17  0.564100  0.422500  0.725780  0.446179
    C   C18  0.635100  0.745900  0.095460  0.645385
    C   C19  0.551000  0.759800  0.038140  0.206400
    C   C20  0.558000  0.831200  0.994800  -0.291245
    C   C21  0.486900  0.838200  0.938000  0.061855
    C   C22  0.399300  0.713300  0.968800  0.074760
    C   C23  0.442000  0.331200  0.505200  -0.291242
    C   C24  0.468300  0.701200  0.026300  -0.295119
    C   C25  0.861300  0.922200  0.191290  0.553664
    C   C26  0.915500  0.998900  0.206470  -0.630044
    C   C27  0.999700  0.997100  0.256040  0.434580
    C   C28  0.024300  0.919000  0.289360  -0.449875
    C   C29  0.965300  0.845500  0.270800  0.328120
    C   C30  0.064100  0.077500  0.274220  0.445853
    C   C31  0.864900  0.254100  0.595460  0.645087
    C   C32  0.949000  0.240200  0.538140  0.206143
    C   C33  0.942000  0.168800  0.494800  -0.291062
    C   C34  0.513100  0.338200  0.562000  0.061852
    C   C35  0.013100  0.161800  0.438000  0.061773
    C   C36  0.100700  0.286700  0.468800  0.074651
    C   C37  0.031700  0.298800  0.526300  -0.294805
    C   C38  0.638700  0.077800  0.691290  0.555039
    C   C39  0.584500  0.001100  0.706470  -0.631036
    C   C40  0.500300  0.002900  0.756040  0.434840
    C   C41  0.475700  0.081000  0.789360  -0.450245
    C   C42  0.534700  0.154500  0.770800  0.328899
    C   C43  0.435900  0.922500  0.774220  0.446176
    C   C44  0.635100  0.754100  0.595460  0.645085
    C   C45  0.600700  0.213300  0.531200  0.074756
    C   C46  0.551000  0.740200  0.538140  0.206146
    C   C47  0.558000  0.668800  0.494800  -0.291062
    C   C48  0.486900  0.661800  0.438000  0.061766
    C   C49  0.399300  0.786700  0.468800  0.074646
    C   C50  0.468300  0.798800  0.526300  -0.294803
    C   C51  0.861300  0.577800  0.691290  0.555013
    C   C52  0.915500  0.501100  0.706470  -0.631000
    C   C53  0.999700  0.502900  0.756040  0.434812
    C   C54  0.024300  0.581000  0.789360  -0.450216
    C   C55  0.965300  0.654500  0.770800  0.328871
    C   C56  0.531700  0.201200  0.473700  -0.295113
    C   C57  0.064100  0.422500  0.774220  0.446180
    C   C58  0.864900  0.245900  0.095460  0.645374
    C   C59  0.949000  0.259800  0.038140  0.206398
    C   C60  0.942000  0.331200  0.994800  -0.291243
    C   C61  0.013100  0.338200  0.938000  0.061853
    C   C62  0.100700  0.213300  0.968800  0.074756
    C   C63  0.031700  0.201200  0.026300  -0.295113
    C   C64  0.638700  0.422200  0.191290  0.553656
    C   C65  0.584500  0.498900  0.206470  -0.630024
    C   C66  0.500300  0.497100  0.256040  0.434559
    C   C67  0.138700  0.422200  0.308710  0.553651
    C   C68  0.475700  0.419000  0.289360  -0.449852
    C   C69  0.534700  0.345500  0.270800  0.328107
    C   C70  0.435900  0.577500  0.274220  0.445854
    C   C71  0.364900  0.254100  0.904540  0.645089
    C   C72  0.449000  0.240200  0.961860  0.206145
    C   C73  0.442000  0.168800  0.005200  -0.291064
    C   C74  0.513100  0.161800  0.062000  0.061774
    C   C75  0.600700  0.286700  0.031200  0.074651
    C   C76  0.531700  0.298800  0.973700  -0.294807
    C   C77  0.138700  0.077800  0.808710  0.555034
    C   C78  0.084500  0.498900  0.293530  -0.630019
    C   C79  0.084500  0.001100  0.793530  -0.631030
    C   C80  0.000300  0.002900  0.743960  0.434835
    C   C81  0.975700  0.081000  0.710640  -0.450240
    C   C82  0.034700  0.154500  0.729200  0.328896
    C   C83  0.935900  0.922500  0.725780  0.446179
    C   C84  0.135100  0.745900  0.404540  0.645383
    C   C85  0.051000  0.759800  0.461860  0.206397
    C   C86  0.058000  0.831200  0.505200  -0.291242
    C   C87  0.986900  0.838200  0.562000  0.061852
    C   C88  0.899300  0.713300  0.531200  0.074756
    C   C89  0.000300  0.497100  0.243960  0.434553
    C   C90  0.968300  0.701200  0.473700  -0.295115
    C   C91  0.361300  0.922200  0.308710  0.553667
    C   C92  0.415500  0.998900  0.293530  -0.630049
    C   C93  0.499700  0.997100  0.243960  0.434584
    C   C94  0.524300  0.919000  0.210640  -0.449879
    C   C95  0.465300  0.845500  0.229200  0.328123
    C   C96  0.564100  0.077500  0.225780  0.445852
    Cd  Cd1  0.192500  0.215350  0.316040  1.135845
    Cd  Cd2  0.307500  0.784650  0.816040  1.135626
    Cd  Cd3  0.807500  0.715350  0.183960  1.135844
    Cd  Cd4  0.692500  0.284650  0.683960  1.135629
    Cd  Cd5  0.807500  0.784650  0.683960  1.135624
    Cd  Cd6  0.692500  0.215350  0.183960  1.135846
    Cd  Cd7  0.192500  0.284650  0.816040  1.135629
    Cd  Cd8  0.307500  0.715350  0.316040  1.135845
    H   H1   0.389200  0.374900  0.496300  0.176168
    H   H2   0.993500  0.613100  0.092500  0.103014
    H   H3   0.842500  0.827500  0.039000  0.086760
    H   H4   0.958700  0.846900  0.942900  0.182946
    H   H5   0.304000  0.576500  0.842700  0.018381
    H   H6   0.395700  0.448700  0.816500  0.324450
    H   H7   0.580400  0.584000  0.675900  0.219192
    H   H8   0.482400  0.707600  0.706300  0.056086
    H   H9   0.610800  0.874900  0.003700  0.176169
    H   H10  0.493500  0.886900  0.907500  0.102967
    H   H11  0.342500  0.672500  0.961000  0.086674
    H   H12  0.506500  0.386900  0.592500  0.102969
    H   H13  0.458700  0.653100  0.057100  0.183054
    H   H14  0.804000  0.923500  0.157300  0.018868
    H   H15  0.895700  0.051300  0.183500  0.324141
    H   H16  0.080400  0.916000  0.324100  0.219304
    H   H17  0.982400  0.792400  0.293700  0.056177
    H   H18  0.889200  0.125100  0.503700  0.176079
    H   H19  0.006500  0.113100  0.407500  0.103010
    H   H20  0.157500  0.327500  0.461000  0.086757
    H   H21  0.041300  0.346900  0.557100  0.182947
    H   H22  0.696000  0.076500  0.657300  0.018377
    H   H23  0.657500  0.172500  0.539000  0.086675
    H   H24  0.604300  0.948700  0.683500  0.324464
    H   H25  0.419600  0.084000  0.824100  0.219200
    H   H26  0.517600  0.207600  0.793700  0.056081
    H   H27  0.610800  0.625100  0.503700  0.176079
    H   H28  0.493500  0.613100  0.407500  0.103014
    H   H29  0.342500  0.827500  0.461000  0.086759
    H   H30  0.458700  0.846900  0.557100  0.182946
    H   H31  0.804000  0.576500  0.657300  0.018381
    H   H32  0.895700  0.448700  0.683500  0.324448
    H   H33  0.080400  0.584000  0.824100  0.219190
    H   H34  0.541300  0.153100  0.442900  0.183051
    H   H35  0.982400  0.707600  0.793700  0.056088
    H   H36  0.889200  0.374900  0.003700  0.176168
    H   H37  0.006500  0.386900  0.907500  0.102968
    H   H38  0.157500  0.172500  0.961000  0.086675
    H   H39  0.041300  0.153100  0.057100  0.183051
    H   H40  0.696000  0.423500  0.157300  0.018867
    H   H41  0.604300  0.551300  0.183500  0.324133
    H   H42  0.419600  0.416000  0.324100  0.219294
    H   H43  0.517600  0.292400  0.293700  0.056181
    H   H44  0.389200  0.125100  0.996300  0.176080
    H   H45  0.196000  0.423500  0.342700  0.018869
    H   H46  0.506500  0.113100  0.092500  0.103011
    H   H47  0.657500  0.327500  0.039000  0.086757
    H   H48  0.541300  0.346900  0.942900  0.182948
    H   H49  0.196000  0.076500  0.842700  0.018379
    H   H50  0.104300  0.948700  0.816500  0.324461
    H   H51  0.919600  0.084000  0.675900  0.219198
    H   H52  0.017600  0.207600  0.706300  0.056081
    H   H53  0.110800  0.874900  0.496300  0.176168
    H   H54  0.993500  0.886900  0.592500  0.102967
    H   H55  0.842500  0.672500  0.539000  0.086675
    H   H56  0.104300  0.551300  0.316500  0.324131
    H   H57  0.958700  0.653100  0.442900  0.183053
    H   H58  0.304000  0.923500  0.342700  0.018867
    H   H59  0.395700  0.051300  0.316500  0.324144
    H   H60  0.580400  0.916000  0.175900  0.219306
    H   H61  0.482400  0.792400  0.206300  0.056176
    H   H62  0.919600  0.416000  0.175900  0.219292
    H   H63  0.017600  0.292400  0.206300  0.056181
    H   H64  0.110800  0.625100  0.996300  0.176079
    N   N1   0.590900  0.279660  0.576170  -0.171653
    N   N2   0.885600  0.653930  0.722280  -0.677670
    N   N3   0.090900  0.279660  0.923830  -0.171654
    N   N4   0.614400  0.346070  0.222280  -0.676721
    N   N5   0.590900  0.220340  0.076170  -0.171720
    N   N6   0.114400  0.153930  0.777720  -0.677693
    N   N7   0.909100  0.779660  0.576170  -0.171650
    N   N8   0.385600  0.846070  0.277720  -0.676731
    N   N9   0.114400  0.346070  0.277720  -0.676718
    N   N10  0.909100  0.720340  0.076170  -0.171711
    N   N11  0.385600  0.653930  0.777720  -0.677673
    N   N12  0.409100  0.779660  0.923830  -0.171654
    N   N13  0.885600  0.846070  0.222280  -0.676728
    N   N14  0.090900  0.220340  0.423830  -0.171719
    N   N15  0.614400  0.153930  0.722280  -0.677696
    N   N16  0.409100  0.720340  0.423830  -0.171714
    O   O1   0.348300  0.169680  0.383570  -0.679361
    O   O2   0.687400  0.810110  0.117630  -0.648083
    O   O3   0.025430  0.150220  0.258100  -0.623145
    O   O4   0.152940  0.068080  0.306070  -0.588551
    O   O5   0.848300  0.330320  0.616430  -0.679254
    O   O6   0.812600  0.189890  0.617630  -0.647513
    O   O7   0.474570  0.849780  0.758100  -0.623257
    O   O8   0.347060  0.931920  0.806070  -0.588572
    O   O9   0.651700  0.830320  0.616430  -0.679258
    O   O10  0.687400  0.689890  0.617630  -0.647513
    O   O11  0.025430  0.349780  0.758100  -0.623255
    O   O12  0.312600  0.310110  0.382370  -0.648075
    O   O13  0.152940  0.431920  0.806070  -0.588569
    O   O14  0.848300  0.169680  0.116430  -0.679359
    O   O15  0.812600  0.310110  0.117630  -0.648073
    O   O16  0.474570  0.650220  0.258100  -0.623142
    O   O17  0.347060  0.568080  0.306070  -0.588547
    O   O18  0.348300  0.330320  0.883570  -0.679256
    O   O19  0.312600  0.189890  0.882370  -0.647516
    O   O20  0.974570  0.849780  0.741900  -0.623257
    O   O21  0.847060  0.931920  0.693930  -0.588572
    O   O22  0.151700  0.669680  0.383570  -0.679361
    O   O23  0.974570  0.650220  0.241900  -0.623142
    O   O24  0.187400  0.810110  0.382370  -0.648081
    O   O25  0.525430  0.150220  0.241900  -0.623145
    O   O26  0.652940  0.068080  0.193930  -0.588552
    O   O27  0.847060  0.568080  0.193930  -0.588547
    O   O28  0.151700  0.830320  0.883570  -0.679256
    O   O29  0.187400  0.689890  0.882370  -0.647511
    O   O30  0.525430  0.349780  0.741900  -0.623256
    O   O31  0.652940  0.431920  0.693930  -0.588569
    O   O32  0.651700  0.669680  0.116430  -0.679363
