# generated using pymatgen
data_CuH10C17NClO7
_symmetry_space_group_name_H-M   'P 1'
_cell_length_a   22.46580000
_cell_length_b   22.46580000
_cell_length_c   22.46580000
_cell_angle_alpha   90.00000000
_cell_angle_beta   90.00000000
_cell_angle_gamma   90.00000000
_symmetry_Int_Tables_number   1
_chemical_formula_structural   CuH10C17NClO7
_chemical_formula_sum   'Cu12 H120 C204 N12 Cl12 O84'
_cell_volume   11338.76266070
_cell_formula_units_Z   12
loop_
 _symmetry_equiv_pos_site_id
 _symmetry_equiv_pos_as_xyz
  1  'x, y, z'
loop_
 _atom_site_type_symbol
 _atom_site_label
 _atom_site_symmetry_multiplicity
 _atom_site_fract_x
 _atom_site_fract_y
 _atom_site_fract_z
 _atom_site_occupancy
  Cu  Cu1  1  0.94090400  0.50000000  0.50000000  1
  Cu  Cu2  1  0.05909600  0.50000000  0.50000000  1
  Cu  Cu3  1  0.50000000  0.94090400  0.50000000  1
  Cu  Cu4  1  0.50000000  0.05909600  0.50000000  1
  Cu  Cu5  1  0.50000000  0.50000000  0.94090400  1
  Cu  Cu6  1  0.50000000  0.50000000  0.05909600  1
  Cu  Cu7  1  0.44090400  0.00000000  0.00000000  1
  Cu  Cu8  1  0.55909600  0.00000000  0.00000000  1
  Cu  Cu9  1  0.00000000  0.44090400  0.00000000  1
  Cu  Cu10  1  0.00000000  0.55909600  0.00000000  1
  Cu  Cu11  1  0.00000000  0.00000000  0.44090400  1
  Cu  Cu12  1  0.00000000  0.00000000  0.55909600  1
  H  H1  1  0.68919800  0.23134700  0.39110700  1
  H  H2  1  0.68143100  0.26538100  0.45813000  1
  H  H3  1  0.73607800  0.17416700  0.49680100  1
  H  H4  1  0.66258300  0.16258300  0.46448000  1
  H  H5  1  0.73202000  0.14057600  0.42791300  1
  H  H6  1  0.10286900  0.44333700  0.60528500  1
  H  H7  1  0.16585100  0.37289900  0.56752500  1
  H  H8  1  0.11415800  0.25486600  0.71752900  1
  H  H9  1  0.04233200  0.32796300  0.74481900  1
  H  H10  1  0.22370800  0.30303100  0.54691200  1
  H  H11  1  0.31080200  0.23134700  0.60889300  1
  H  H12  1  0.31856900  0.26538100  0.54187000  1
  H  H13  1  0.26392200  0.17416700  0.50319900  1
  H  H14  1  0.33741700  0.16258300  0.53552000  1
  H  H15  1  0.26798000  0.14057600  0.57208700  1
  H  H16  1  0.39471500  0.89713100  0.44333700  1
  H  H17  1  0.43247500  0.83414900  0.37289900  1
  H  H18  1  0.28247100  0.88584200  0.25486600  1
  H  H19  1  0.25518100  0.95766800  0.32796300  1
  H  H20  1  0.45308800  0.77629200  0.30303100  1
  H  H21  1  0.39110700  0.68919800  0.23134700  1
  H  H22  1  0.45813000  0.68143100  0.26538100  1
  H  H23  1  0.49680100  0.73607800  0.17416700  1
  H  H24  1  0.46448000  0.66258300  0.16258300  1
  H  H25  1  0.42791300  0.73202000  0.14057600  1
  H  H26  1  0.60528500  0.10286900  0.44333700  1
  H  H27  1  0.56752500  0.16585100  0.37289900  1
  H  H28  1  0.71752900  0.11415800  0.25486600  1
  H  H29  1  0.74481900  0.04233200  0.32796300  1
  H  H30  1  0.54691200  0.22370800  0.30303100  1
  H  H31  1  0.60889300  0.31080200  0.23134700  1
  H  H32  1  0.54187000  0.31856900  0.26538100  1
  H  H33  1  0.50319900  0.26392200  0.17416700  1
  H  H34  1  0.53552000  0.33741700  0.16258300  1
  H  H35  1  0.57208700  0.26798000  0.14057600  1
  H  H36  1  0.44333700  0.39471500  0.89713100  1
  H  H37  1  0.37289900  0.43247500  0.83414900  1
  H  H38  1  0.25486600  0.28247100  0.88584200  1
  H  H39  1  0.32796300  0.25518100  0.95766800  1
  H  H40  1  0.30303100  0.45308800  0.77629200  1
  H  H41  1  0.23134700  0.39110700  0.68919800  1
  H  H42  1  0.26538100  0.45813000  0.68143100  1
  H  H43  1  0.17416700  0.49680100  0.73607800  1
  H  H44  1  0.16258300  0.46448000  0.66258300  1
  H  H45  1  0.14057600  0.42791300  0.73202000  1
  H  H46  1  0.44333700  0.60528500  0.10286900  1
  H  H47  1  0.37289900  0.56752500  0.16585100  1
  H  H48  1  0.25486600  0.71752900  0.11415800  1
  H  H49  1  0.32796300  0.74481900  0.04233200  1
  H  H50  1  0.30303100  0.54691200  0.22370800  1
  H  H51  1  0.23134700  0.60889300  0.31080200  1
  H  H52  1  0.26538100  0.54187000  0.31856900  1
  H  H53  1  0.17416700  0.50319900  0.26392200  1
  H  H54  1  0.16258300  0.53552000  0.33741700  1
  H  H55  1  0.14057600  0.57208700  0.26798000  1
  H  H56  1  0.44333700  0.89713100  0.60528500  1
  H  H57  1  0.37289900  0.83414900  0.56752500  1
  H  H58  1  0.25486600  0.88584200  0.71752900  1
  H  H59  1  0.32796300  0.95766800  0.74481900  1
  H  H60  1  0.30303100  0.77629200  0.54691200  1
  H  H61  1  0.23134700  0.68919800  0.60889300  1
  H  H62  1  0.26538100  0.68143100  0.54187000  1
  H  H63  1  0.17416700  0.73607800  0.50319900  1
  H  H64  1  0.16258300  0.66258300  0.53552000  1
  H  H65  1  0.14057600  0.73202000  0.57208700  1
  H  H66  1  0.44333700  0.10286900  0.39471500  1
  H  H67  1  0.37289900  0.16585100  0.43247500  1
  H  H68  1  0.25486600  0.11415800  0.28247100  1
  H  H69  1  0.32796300  0.04233200  0.25518100  1
  H  H70  1  0.30303100  0.22370800  0.45308800  1
  H  H71  1  0.23134700  0.31080200  0.39110700  1
  H  H72  1  0.26538100  0.31856900  0.45813000  1
  H  H73  1  0.17416700  0.26392200  0.49680100  1
  H  H74  1  0.16258300  0.33741700  0.46448000  1
  H  H75  1  0.14057600  0.26798000  0.42791300  1
  H  H76  1  0.89713100  0.39471500  0.55666300  1
  H  H77  1  0.83414900  0.43247500  0.62710100  1
  H  H78  1  0.88584200  0.28247100  0.74513400  1
  H  H79  1  0.95766800  0.25518100  0.67203700  1
  H  H80  1  0.77629200  0.45308800  0.69696900  1
  H  H81  1  0.68919800  0.39110700  0.76865300  1
  H  H82  1  0.68143100  0.45813000  0.73461900  1
  H  H83  1  0.73607800  0.49680100  0.82583300  1
  H  H84  1  0.66258300  0.46448000  0.83741700  1
  H  H85  1  0.73202000  0.42791300  0.85942400  1
  H  H86  1  0.10286900  0.60528500  0.55666300  1
  H  H87  1  0.16585100  0.56752500  0.62710100  1
  H  H88  1  0.11415800  0.71752900  0.74513400  1
  H  H89  1  0.04233200  0.74481900  0.67203700  1
  H  H90  1  0.22370800  0.54691200  0.69696900  1
  H  H91  1  0.31080200  0.60889300  0.76865300  1
  H  H92  1  0.31856900  0.54187000  0.73461900  1
  H  H93  1  0.26392200  0.50319900  0.82583300  1
  H  H94  1  0.33741700  0.53552000  0.83741700  1
  H  H95  1  0.26798000  0.57208700  0.85942400  1
  H  H96  1  0.39471500  0.44333700  0.10286900  1
  H  H97  1  0.43247500  0.37289900  0.16585100  1
  H  H98  1  0.28247100  0.25486600  0.11415800  1
  H  H99  1  0.25518100  0.32796300  0.04233200  1
  H  H100  1  0.45308800  0.30303100  0.22370800  1
  H  H101  1  0.39110700  0.23134700  0.31080200  1
  H  H102  1  0.45813000  0.26538100  0.31856900  1
  H  H103  1  0.49680100  0.17416700  0.26392200  1
  H  H104  1  0.46448000  0.16258300  0.33741700  1
  H  H105  1  0.42791300  0.14057600  0.26798000  1
  H  H106  1  0.60528500  0.44333700  0.89713100  1
  H  H107  1  0.56752500  0.37289900  0.83414900  1
  H  H108  1  0.71752900  0.25486600  0.88584200  1
  H  H109  1  0.74481900  0.32796300  0.95766800  1
  H  H110  1  0.54691200  0.30303100  0.77629200  1
  H  H111  1  0.60889300  0.23134700  0.68919800  1
  H  H112  1  0.54187000  0.26538100  0.68143100  1
  H  H113  1  0.50319900  0.17416700  0.73607800  1
  H  H114  1  0.53552000  0.16258300  0.66258300  1
  H  H115  1  0.57208700  0.14057600  0.73202000  1
  H  H116  1  0.89713100  0.44333700  0.39471500  1
  H  H117  1  0.83414900  0.37289900  0.43247500  1
  H  H118  1  0.88584200  0.25486600  0.28247100  1
  H  H119  1  0.95766800  0.32796300  0.25518100  1
  H  H120  1  0.77629200  0.30303100  0.45308800  1
  C  C1  1  0.97021100  0.44517500  0.28987400  1
  C  C2  1  0.99243200  0.49399600  0.32075200  1
  C  C3  1  0.00790200  0.54997500  0.28270600  1
  C  C4  1  0.00567200  0.55099300  0.21336800  1
  C  C5  1  0.00000000  0.61225800  0.50000000  1
  C  C6  1  0.99312300  0.50154900  0.18075800  1
  C  C7  1  0.97432100  0.44495700  0.21838100  1
  C  C8  1  0.06558000  0.39453500  0.67904200  1
  C  C9  1  0.10000000  0.40325500  0.62760400  1
  C  C10  1  0.14035900  0.36029500  0.60726000  1
  C  C11  1  0.14394600  0.30583100  0.63739000  1
  C  C12  1  0.11036400  0.29686700  0.69026600  1
  C  C13  1  0.07070500  0.33980400  0.70928000  1
  C  C14  1  0.19354200  0.25669300  0.61847900  1
  C  C15  1  0.28773300  0.23899700  0.56682900  1
  C  C16  1  0.28674000  0.17546500  0.54263600  1
  C  C17  1  0.02978900  0.44517500  0.71012600  1
  C  C18  1  0.00756800  0.49399600  0.67924800  1
  C  C19  1  0.99209800  0.54997500  0.71729400  1
  C  C20  1  0.99432800  0.55099300  0.78663200  1
  C  C21  1  0.00687700  0.50154900  0.81924200  1
  C  C22  1  0.02567900  0.44495700  0.78161900  1
  C  C23  1  0.32095800  0.93442000  0.39453500  1
  C  C24  1  0.37239600  0.90000000  0.40325500  1
  C  C25  1  0.39274000  0.85964100  0.36029500  1
  C  C26  1  0.36261000  0.85605400  0.30583100  1
  C  C27  1  0.30973400  0.88963600  0.29686700  1
  C  C28  1  0.29072000  0.92929500  0.33980400  1
  C  C29  1  0.38152100  0.80645800  0.25669300  1
  C  C30  1  0.43317100  0.71226700  0.23899700  1
  C  C31  1  0.45736400  0.71326000  0.17546500  1
  C  C32  1  0.38774200  0.00000000  0.50000000  1
  C  C33  1  0.28987400  0.97021100  0.44517500  1
  C  C34  1  0.32075200  0.99243200  0.49399600  1
  C  C35  1  0.28270600  0.00790200  0.54997500  1
  C  C36  1  0.21336800  0.00567200  0.55099300  1
  C  C37  1  0.18075800  0.99312300  0.50154900  1
  C  C38  1  0.21838100  0.97432100  0.44495700  1
  C  C39  1  0.67904200  0.06558000  0.39453500  1
  C  C40  1  0.62760400  0.10000000  0.40325500  1
  C  C41  1  0.60726000  0.14035900  0.36029500  1
  C  C42  1  0.63739000  0.14394600  0.30583100  1
  C  C43  1  0.69026600  0.11036400  0.29686700  1
  C  C44  1  0.70928000  0.07070500  0.33980400  1
  C  C45  1  0.61847900  0.19354200  0.25669300  1
  C  C46  1  0.56682900  0.28773300  0.23899700  1
  C  C47  1  0.54263600  0.28674000  0.17546500  1
  C  C48  1  0.50000000  0.00000000  0.38774200  1
  C  C49  1  0.71012600  0.02978900  0.44517500  1
  C  C50  1  0.67924800  0.00756800  0.49399600  1
  C  C51  1  0.71729400  0.99209800  0.54997500  1
  C  C52  1  0.78663200  0.99432800  0.55099300  1
  C  C53  1  0.00000000  0.50000000  0.38774200  1
  C  C54  1  0.81924200  0.00687700  0.50154900  1
  C  C55  1  0.78161900  0.02567900  0.44495700  1
  C  C56  1  0.39453500  0.32095800  0.93442000  1
  C  C57  1  0.40325500  0.37239600  0.90000000  1
  C  C58  1  0.36029500  0.39274000  0.85964100  1
  C  C59  1  0.30583100  0.36261000  0.85605400  1
  C  C60  1  0.29686700  0.30973400  0.88963600  1
  C  C61  1  0.33980400  0.29072000  0.92929500  1
  C  C62  1  0.25669300  0.38152100  0.80645800  1
  C  C63  1  0.23899700  0.43317100  0.71226700  1
  C  C64  1  0.17546500  0.45736400  0.71326000  1
  C  C65  1  0.61225800  0.00000000  0.50000000  1
  C  C66  1  0.44517500  0.28987400  0.97021100  1
  C  C67  1  0.49399600  0.32075200  0.99243200  1
  C  C68  1  0.54997500  0.28270600  0.00790200  1
  C  C69  1  0.55099300  0.21336800  0.00567200  1
  C  C70  1  0.50154900  0.18075800  0.99312300  1
  C  C71  1  0.44495700  0.21838100  0.97432100  1
  C  C72  1  0.39453500  0.67904200  0.06558000  1
  C  C73  1  0.40325500  0.62760400  0.10000000  1
  C  C74  1  0.36029500  0.60726000  0.14035900  1
  C  C75  1  0.30583100  0.63739000  0.14394600  1
  C  C76  1  0.29686700  0.69026600  0.11036400  1
  C  C77  1  0.33980400  0.70928000  0.07070500  1
  C  C78  1  0.25669300  0.61847900  0.19354200  1
  C  C79  1  0.23899700  0.56682900  0.28773300  1
  C  C80  1  0.17546500  0.54263600  0.28674000  1
  C  C81  1  0.50000000  0.00000000  0.61225800  1
  C  C82  1  0.44517500  0.71012600  0.02978900  1
  C  C83  1  0.49399600  0.67924800  0.00756800  1
  C  C84  1  0.54997500  0.71729400  0.99209800  1
  C  C85  1  0.55099300  0.78663200  0.99432800  1
  C  C86  1  0.50154900  0.81924200  0.00687700  1
  C  C87  1  0.44495700  0.78161900  0.02567900  1
  C  C88  1  0.39453500  0.93442000  0.67904200  1
  C  C89  1  0.40325500  0.90000000  0.62760400  1
  C  C90  1  0.36029500  0.85964100  0.60726000  1
  C  C91  1  0.30583100  0.85605400  0.63739000  1
  C  C92  1  0.29686700  0.88963600  0.69026600  1
  C  C93  1  0.33980400  0.92929500  0.70928000  1
  C  C94  1  0.25669300  0.80645800  0.61847900  1
  C  C95  1  0.23899700  0.71226700  0.56682900  1
  C  C96  1  0.17546500  0.71326000  0.54263600  1
  C  C97  1  0.44517500  0.97021100  0.71012600  1
  C  C98  1  0.49399600  0.99243200  0.67924800  1
  C  C99  1  0.54997500  0.00790200  0.71729400  1
  C  C100  1  0.55099300  0.00567200  0.78663200  1
  C  C101  1  0.50154900  0.99312300  0.81924200  1
  C  C102  1  0.44495700  0.97432100  0.78161900  1
  C  C103  1  0.39453500  0.06558000  0.32095800  1
  C  C104  1  0.40325500  0.10000000  0.37239600  1
  C  C105  1  0.36029500  0.14035900  0.39274000  1
  C  C106  1  0.30583100  0.14394600  0.36261000  1
  C  C107  1  0.29686700  0.11036400  0.30973400  1
  C  C108  1  0.33980400  0.07070500  0.29072000  1
  C  C109  1  0.50000000  0.38774200  0.00000000  1
  C  C110  1  0.25669300  0.19354200  0.38152100  1
  C  C111  1  0.23899700  0.28773300  0.43317100  1
  C  C112  1  0.17546500  0.28674000  0.45736400  1
  C  C113  1  0.44517500  0.02978900  0.28987400  1
  C  C114  1  0.49399600  0.00756800  0.32075200  1
  C  C115  1  0.54997500  0.99209800  0.28270600  1
  C  C116  1  0.55099300  0.99432800  0.21336800  1
  C  C117  1  0.50154900  0.00687700  0.18075800  1
  C  C118  1  0.44495700  0.02567900  0.21838100  1
  C  C119  1  0.93442000  0.32095800  0.60546500  1
  C  C120  1  0.90000000  0.37239600  0.59674500  1
  C  C121  1  0.85964100  0.39274000  0.63970500  1
  C  C122  1  0.85605400  0.36261000  0.69416900  1
  C  C123  1  0.88963600  0.30973400  0.70313300  1
  C  C124  1  0.92929500  0.29072000  0.66019600  1
  C  C125  1  0.38774200  0.50000000  0.00000000  1
  C  C126  1  0.80645800  0.38152100  0.74330700  1
  C  C127  1  0.71226700  0.43317100  0.76100300  1
  C  C128  1  0.71326000  0.45736400  0.82453500  1
  C  C129  1  0.97021100  0.28987400  0.55482500  1
  C  C130  1  0.99243200  0.32075200  0.50600400  1
  C  C131  1  0.00790200  0.28270600  0.45002500  1
  C  C132  1  0.00567200  0.21336800  0.44900700  1
  C  C133  1  0.99312300  0.18075800  0.49845100  1
  C  C134  1  0.97432100  0.21838100  0.55504300  1
  C  C135  1  0.06558000  0.67904200  0.60546500  1
  C  C136  1  0.10000000  0.62760400  0.59674500  1
  C  C137  1  0.14035900  0.60726000  0.63970500  1
  C  C138  1  0.14394600  0.63739000  0.69416900  1
  C  C139  1  0.11036400  0.69026600  0.70313300  1
  C  C140  1  0.07070500  0.70928000  0.66019600  1
  C  C141  1  0.50000000  0.61225800  0.00000000  1
  C  C142  1  0.19354200  0.61847900  0.74330700  1
  C  C143  1  0.28773300  0.56682900  0.76100300  1
  C  C144  1  0.28674000  0.54263600  0.82453500  1
  C  C145  1  0.02978900  0.71012600  0.55482500  1
  C  C146  1  0.00756800  0.67924800  0.50600400  1
  C  C147  1  0.99209800  0.71729400  0.45002500  1
  C  C148  1  0.99432800  0.78663200  0.44900700  1
  C  C149  1  0.00687700  0.81924200  0.49845100  1
  C  C150  1  0.02567900  0.78161900  0.55504300  1
  C  C151  1  0.32095800  0.39453500  0.06558000  1
  C  C152  1  0.37239600  0.40325500  0.10000000  1
  C  C153  1  0.39274000  0.36029500  0.14035900  1
  C  C154  1  0.36261000  0.30583100  0.14394600  1
  C  C155  1  0.30973400  0.29686700  0.11036400  1
  C  C156  1  0.29072000  0.33980400  0.07070500  1
  C  C157  1  0.61225800  0.50000000  0.00000000  1
  C  C158  1  0.38152100  0.25669300  0.19354200  1
  C  C159  1  0.43317100  0.23899700  0.28773300  1
  C  C160  1  0.45736400  0.17546500  0.28674000  1
  C  C161  1  0.28987400  0.44517500  0.02978900  1
  C  C162  1  0.32075200  0.49399600  0.00756800  1
  C  C163  1  0.28270600  0.54997500  0.99209800  1
  C  C164  1  0.21336800  0.55099300  0.99432800  1
  C  C165  1  0.18075800  0.50154900  0.00687700  1
  C  C166  1  0.21838100  0.44495700  0.02567900  1
  C  C167  1  0.67904200  0.39453500  0.93442000  1
  C  C168  1  0.62760400  0.40325500  0.90000000  1
  C  C169  1  0.60726000  0.36029500  0.85964100  1
  C  C170  1  0.63739000  0.30583100  0.85605400  1
  C  C171  1  0.69026600  0.29686700  0.88963600  1
  C  C172  1  0.70928000  0.33980400  0.92929500  1
  C  C173  1  0.61847900  0.25669300  0.80645800  1
  C  C174  1  0.56682900  0.23899700  0.71226700  1
  C  C175  1  0.54263600  0.17546500  0.71326000  1
  C  C176  1  0.71012600  0.44517500  0.97021100  1
  C  C177  1  0.67924800  0.49399600  0.99243200  1
  C  C178  1  0.71729400  0.54997500  0.00790200  1
  C  C179  1  0.78663200  0.55099300  0.00567200  1
  C  C180  1  0.50000000  0.00000000  0.88774200  1
  C  C181  1  0.81924200  0.50154900  0.99312300  1
  C  C182  1  0.78161900  0.44495700  0.97432100  1
  C  C183  1  0.50000000  0.88774200  0.00000000  1
  C  C184  1  0.00000000  0.38774200  0.50000000  1
  C  C185  1  0.50000000  0.00000000  0.11225800  1
  C  C186  1  0.50000000  0.11225800  0.00000000  1
  C  C187  1  0.88774200  0.50000000  0.00000000  1
  C  C188  1  0.00000000  0.50000000  0.88774200  1
  C  C189  1  0.11225800  0.50000000  0.00000000  1
  C  C190  1  0.00000000  0.50000000  0.11225800  1
  C  C191  1  0.00000000  0.88774200  0.50000000  1
  C  C192  1  0.88774200  0.00000000  0.50000000  1
  C  C193  1  0.00000000  0.11225800  0.50000000  1
  C  C194  1  0.00000000  0.50000000  0.61225800  1
  C  C195  1  0.11225800  0.00000000  0.50000000  1
  C  C196  1  0.93442000  0.39453500  0.32095800  1
  C  C197  1  0.90000000  0.40325500  0.37239600  1
  C  C198  1  0.85964100  0.36029500  0.39274000  1
  C  C199  1  0.85605400  0.30583100  0.36261000  1
  C  C200  1  0.88963600  0.29686700  0.30973400  1
  C  C201  1  0.92929500  0.33980400  0.29072000  1
  C  C202  1  0.80645800  0.25669300  0.38152100  1
  C  C203  1  0.71226700  0.23899700  0.43317100  1
  C  C204  1  0.71326000  0.17546500  0.45736400  1
  N  N1  1  0.23075100  0.26889900  0.57126100  1
  N  N2  1  0.42873900  0.76924900  0.26889900  1
  N  N3  1  0.57126100  0.23075100  0.26889900  1
  N  N4  1  0.26889900  0.42873900  0.76924900  1
  N  N5  1  0.26889900  0.57126100  0.23075100  1
  N  N6  1  0.26889900  0.76924900  0.57126100  1
  N  N7  1  0.26889900  0.23075100  0.42873900  1
  N  N8  1  0.76924900  0.42873900  0.73110100  1
  N  N9  1  0.23075100  0.57126100  0.73110100  1
  N  N10  1  0.42873900  0.26889900  0.23075100  1
  N  N11  1  0.57126100  0.26889900  0.76924900  1
  N  N12  1  0.76924900  0.26889900  0.42873900  1
  Cl  Cl1  1  0.02352600  0.61798800  0.18135600  1
  Cl  Cl2  1  0.97647400  0.61798800  0.81864400  1
  Cl  Cl3  1  0.18135600  0.02352600  0.61798800  1
  Cl  Cl4  1  0.81864400  0.97647400  0.61798800  1
  Cl  Cl5  1  0.61798800  0.18135600  0.02352600  1
  Cl  Cl6  1  0.61798800  0.81864400  0.97647400  1
  Cl  Cl7  1  0.61798800  0.02352600  0.81864400  1
  Cl  Cl8  1  0.61798800  0.97647400  0.18135600  1
  Cl  Cl9  1  0.02352600  0.18135600  0.38201200  1
  Cl  Cl10  1  0.97647400  0.81864400  0.38201200  1
  Cl  Cl11  1  0.18135600  0.61798800  0.97647400  1
  Cl  Cl12  1  0.81864400  0.61798800  0.02352600  1
  O  O1  1  0.95297100  0.50000000  0.58510500  1
  O  O2  1  0.02954300  0.59309300  0.30913500  1
  O  O3  1  0.95894700  0.40288200  0.18942700  1
  O  O4  1  0.04702900  0.58510500  0.50000000  1
  O  O5  1  0.19509200  0.21217400  0.65060500  1
  O  O6  1  0.95297100  0.58510500  0.50000000  1
  O  O7  1  0.97045700  0.59309300  0.69086500  1
  O  O8  1  0.04105300  0.40288200  0.81057300  1
  O  O9  1  0.34939500  0.80490800  0.21217400  1
  O  O10  1  0.30913500  0.02954300  0.59309300  1
  O  O11  1  0.41489500  0.04702900  0.50000000  1
  O  O12  1  0.18942700  0.95894700  0.40288200  1
  O  O13  1  0.41489500  0.95297100  0.50000000  1
  O  O14  1  0.65060500  0.19509200  0.21217400  1
  O  O15  1  0.69086500  0.97045700  0.59309300  1
  O  O16  1  0.50000000  0.04702900  0.41489500  1
  O  O17  1  0.81057300  0.04105300  0.40288200  1
  O  O18  1  0.50000000  0.95297100  0.41489500  1
  O  O19  1  0.21217400  0.34939500  0.80490800  1
  O  O20  1  0.59309300  0.30913500  0.02954300  1
  O  O21  1  0.58510500  0.04702900  0.50000000  1
  O  O22  1  0.40288200  0.18942700  0.95894700  1
  O  O23  1  0.58510500  0.95297100  0.50000000  1
  O  O24  1  0.21217400  0.65060500  0.19509200  1
  O  O25  1  0.59309300  0.69086500  0.97045700  1
  O  O26  1  0.50000000  0.04702900  0.58510500  1
  O  O27  1  0.40288200  0.81057300  0.04105300  1
  O  O28  1  0.50000000  0.95297100  0.58510500  1
  O  O29  1  0.21217400  0.80490800  0.65060500  1
  O  O30  1  0.59309300  0.02954300  0.69086500  1
  O  O31  1  0.40288200  0.95894700  0.81057300  1
  O  O32  1  0.04702900  0.50000000  0.41489500  1
  O  O33  1  0.21217400  0.19509200  0.34939500  1
  O  O34  1  0.50000000  0.41489500  0.04702900  1
  O  O35  1  0.59309300  0.97045700  0.30913500  1
  O  O36  1  0.50000000  0.41489500  0.95297100  1
  O  O37  1  0.40288200  0.04105300  0.18942700  1
  O  O38  1  0.80490800  0.34939500  0.78782600  1
  O  O39  1  0.41489500  0.50000000  0.04702900  1
  O  O40  1  0.02954300  0.30913500  0.40690700  1
  O  O41  1  0.41489500  0.50000000  0.95297100  1
  O  O42  1  0.95894700  0.18942700  0.59711800  1
  O  O43  1  0.19509200  0.65060500  0.78782600  1
  O  O44  1  0.50000000  0.58510500  0.04702900  1
  O  O45  1  0.97045700  0.69086500  0.40690700  1
  O  O46  1  0.50000000  0.58510500  0.95297100  1
  O  O47  1  0.04105300  0.81057300  0.59711800  1
  O  O48  1  0.34939500  0.21217400  0.19509200  1
  O  O49  1  0.95297100  0.50000000  0.41489500  1
  O  O50  1  0.58510500  0.50000000  0.04702900  1
  O  O51  1  0.30913500  0.59309300  0.97045700  1
  O  O52  1  0.58510500  0.50000000  0.95297100  1
  O  O53  1  0.18942700  0.40288200  0.04105300  1
  O  O54  1  0.65060500  0.21217400  0.80490800  1
  O  O55  1  0.69086500  0.59309300  0.02954300  1
  O  O56  1  0.81057300  0.40288200  0.95894700  1
  O  O57  1  0.54702900  0.00000000  0.91489500  1
  O  O58  1  0.45297100  0.00000000  0.91489500  1
  O  O59  1  0.54702900  0.91489500  0.00000000  1
  O  O60  1  0.45297100  0.91489500  0.00000000  1
  O  O61  1  0.54702900  0.00000000  0.08510500  1
  O  O62  1  0.45297100  0.00000000  0.08510500  1
  O  O63  1  0.54702900  0.08510500  0.00000000  1
  O  O64  1  0.45297100  0.08510500  0.00000000  1
  O  O65  1  0.91489500  0.54702900  0.00000000  1
  O  O66  1  0.04702900  0.41489500  0.50000000  1
  O  O67  1  0.91489500  0.45297100  0.00000000  1
  O  O68  1  0.00000000  0.54702900  0.91489500  1
  O  O69  1  0.00000000  0.45297100  0.91489500  1
  O  O70  1  0.08510500  0.54702900  0.00000000  1
  O  O71  1  0.08510500  0.45297100  0.00000000  1
  O  O72  1  0.00000000  0.54702900  0.08510500  1
  O  O73  1  0.00000000  0.45297100  0.08510500  1
  O  O74  1  0.95297100  0.41489500  0.50000000  1
  O  O75  1  0.00000000  0.91489500  0.54702900  1
  O  O76  1  0.00000000  0.91489500  0.45297100  1
  O  O77  1  0.91489500  0.00000000  0.54702900  1
  O  O78  1  0.91489500  0.00000000  0.45297100  1
  O  O79  1  0.00000000  0.08510500  0.54702900  1
  O  O80  1  0.00000000  0.08510500  0.45297100  1
  O  O81  1  0.08510500  0.00000000  0.54702900  1
  O  O82  1  0.08510500  0.00000000  0.45297100  1
  O  O83  1  0.04702900  0.50000000  0.58510500  1
  O  O84  1  0.80490800  0.21217400  0.34939500  1
