# generated using pymatgen
data_H13PdC20N3O7
_symmetry_space_group_name_H-M   'P 1'
_cell_length_a   23.56360000
_cell_length_b   23.56360000
_cell_length_c   19.23970000
_cell_angle_alpha   90.00000000
_cell_angle_beta   90.00000000
_cell_angle_gamma   120.00000000
_symmetry_Int_Tables_number   1
_chemical_formula_structural   H13PdC20N3O7
_chemical_formula_sum   'H78 Pd6 C120 N18 O42'
_cell_volume   9251.50123776
_cell_formula_units_Z   6
loop_
 _symmetry_equiv_pos_site_id
 _symmetry_equiv_pos_as_xyz
  1  'x, y, z'
loop_
 _atom_site_type_symbol
 _atom_site_label
 _atom_site_symmetry_multiplicity
 _atom_site_fract_x
 _atom_site_fract_y
 _atom_site_fract_z
 _atom_site_occupancy
  H  H1  1  0.67719100  0.56322900  0.09943300  1
  H  H2  1  0.71883600  0.64653700  0.09961400  1
  H  H3  1  0.72685000  0.60428800  0.17209900  1
  H  H4  1  0.96178100  0.69878700  0.15483200  1
  H  H5  1  0.99967400  0.70254200  0.07554900  1
  H  H6  1  0.96658600  0.75822400  0.09339000  1
  H  H7  1  0.90000700  0.38745700  0.83202900  1
  H  H8  1  0.00441200  0.43909400  0.89918800  1
  H  H9  1  0.08562100  0.48434200  0.95459400  1
  H  H10  1  0.16957500  0.51499400  0.03176100  1
  H  H11  1  0.09206500  0.62008700  0.15224900  1
  H  H12  1  0.99666000  0.56970700  0.08372400  1
  H  H13  1  0.76953400  0.47481200  0.94827900  1
  H  H14  1  0.43677100  0.11396200  0.09943300  1
  H  H15  1  0.35346300  0.07229900  0.09961400  1
  H  H16  1  0.39571200  0.12256200  0.17209900  1
  H  H17  1  0.30121300  0.26299300  0.15483200  1
  H  H18  1  0.29745800  0.29713200  0.07554900  1
  H  H19  1  0.24177600  0.20836200  0.09339000  1
  H  H20  1  0.61254300  0.51255000  0.83202900  1
  H  H21  1  0.56090600  0.56531700  0.89918800  1
  H  H22  1  0.51565800  0.60127900  0.95459400  1
  H  H23  1  0.48500600  0.65458100  0.03176100  1
  H  H24  1  0.37991300  0.47197900  0.15224900  1
  H  H25  1  0.43029300  0.42695300  0.08372400  1
  H  H26  1  0.52518800  0.29472300  0.94827900  1
  H  H27  1  0.88603800  0.32280900  0.09943300  1
  H  H28  1  0.92770100  0.28116400  0.09961400  1
  H  H29  1  0.87743800  0.27315000  0.17209900  1
  H  H30  1  0.73700700  0.03821900  0.15483200  1
  H  H31  1  0.70286800  0.00032600  0.07554900  1
  H  H32  1  0.79163800  0.03341400  0.09339000  1
  H  H33  1  0.48745000  0.09999300  0.83202900  1
  H  H34  1  0.43468300  0.99558800  0.89918800  1
  H  H35  1  0.39872100  0.91437900  0.95459400  1
  H  H36  1  0.34541900  0.83042500  0.03176100  1
  H  H37  1  0.52802100  0.90793500  0.15224900  1
  H  H38  1  0.57304700  0.00334000  0.08372400  1
  H  H39  1  0.70527700  0.23046600  0.94827900  1
  H  H40  1  0.32280900  0.43677100  0.59943300  1
  H  H41  1  0.28116400  0.35346300  0.59961400  1
  H  H42  1  0.27315000  0.39571200  0.67209900  1
  H  H43  1  0.03821900  0.30121300  0.65483200  1
  H  H44  1  0.00032600  0.29745800  0.57554900  1
  H  H45  1  0.03341400  0.24177600  0.59339000  1
  H  H46  1  0.09999300  0.61254300  0.33202900  1
  H  H47  1  0.99558800  0.56090600  0.39918800  1
  H  H48  1  0.91437900  0.51565800  0.45459400  1
  H  H49  1  0.83042500  0.48500600  0.53176100  1
  H  H50  1  0.90793500  0.37991300  0.65224900  1
  H  H51  1  0.00334000  0.43029300  0.58372400  1
  H  H52  1  0.23046600  0.52518800  0.44827900  1
  H  H53  1  0.56322900  0.88603800  0.59943300  1
  H  H54  1  0.64653700  0.92770100  0.59961400  1
  H  H55  1  0.60428800  0.87743800  0.67209900  1
  H  H56  1  0.69878700  0.73700700  0.65483200  1
  H  H57  1  0.70254200  0.70286800  0.57554900  1
  H  H58  1  0.75822400  0.79163800  0.59339000  1
  H  H59  1  0.38745700  0.48745000  0.33202900  1
  H  H60  1  0.43909400  0.43468300  0.39918800  1
  H  H61  1  0.48434200  0.39872100  0.45459400  1
  H  H62  1  0.51499400  0.34541900  0.53176100  1
  H  H63  1  0.62008700  0.52802100  0.65224900  1
  H  H64  1  0.56970700  0.57304700  0.58372400  1
  H  H65  1  0.47481200  0.70527700  0.44827900  1
  H  H66  1  0.11396200  0.67719100  0.59943300  1
  H  H67  1  0.07229900  0.71883600  0.59961400  1
  H  H68  1  0.12256200  0.72685000  0.67209900  1
  H  H69  1  0.26299300  0.96178100  0.65483200  1
  H  H70  1  0.29713200  0.99967400  0.57554900  1
  H  H71  1  0.20836200  0.96658600  0.59339000  1
  H  H72  1  0.51255000  0.90000700  0.33202900  1
  H  H73  1  0.56531700  0.00441200  0.39918800  1
  H  H74  1  0.60127900  0.08562100  0.45459400  1
  H  H75  1  0.65458100  0.16957500  0.53176100  1
  H  H76  1  0.47197900  0.09206500  0.65224900  1
  H  H77  1  0.42695300  0.99666000  0.58372400  1
  H  H78  1  0.29472300  0.76953400  0.44827900  1
  Pd  Pd1  1  0.42311800  0.71046200  0.24940100  1
  Pd  Pd2  1  0.28733400  0.71046200  0.24940100  1
  Pd  Pd3  1  0.28869500  0.57740000  0.24651200  1
  Pd  Pd4  1  0.57688200  0.28953800  0.74940100  1
  Pd  Pd5  1  0.71266600  0.28953800  0.74940100  1
  Pd  Pd6  1  0.71130500  0.42260000  0.74651200  1
  C  C1  1  0.20309100  0.60154500  0.15406300  1
  C  C2  1  0.39844400  0.60154500  0.15406300  1
  C  C3  1  0.39534100  0.60229000  0.34585300  1
  C  C4  1  0.20694000  0.60229000  0.34585300  1
  C  C5  1  0.39779300  0.79559600  0.34244500  1
  C  C6  1  0.39837200  0.79675400  0.15772100  1
  C  C7  1  0.79690900  0.39845500  0.65406300  1
  C  C8  1  0.60155600  0.39845500  0.65406300  1
  C  C9  1  0.60465900  0.39771000  0.84585300  1
  C  C10  1  0.79306000  0.39771000  0.84585300  1
  C  C11  1  0.60220700  0.20440400  0.84244500  1
  C  C12  1  0.60162800  0.20324600  0.65772100  1
  C  C13  1  0.84077500  0.65607900  0.10725400  1
  C  C14  1  0.76999500  0.55753600  0.04191800  1
  C  C15  1  0.82756400  0.55399600  0.00733500  1
  C  C16  1  0.89145600  0.61512500  0.02551000  1
  C  C17  1  0.72314100  0.60553300  0.11734900  1
  C  C18  1  0.95937800  0.70899200  0.09954500  1
  C  C19  1  0.87152100  0.48356700  0.94039000  1
  C  C20  1  0.85887000  0.43616900  0.89135800  1
  C  C21  1  0.90776000  0.42231600  0.87506400  1
  C  C22  1  0.96898100  0.45279800  0.90995900  1
  C  C23  1  0.97513800  0.49433700  0.96251100  1
  C  C24  1  0.02991200  0.52189100  0.00796700  1
  C  C25  1  0.08381500  0.51037900  0.99877900  1
  C  C26  1  0.13568200  0.53246000  0.04591900  1
  C  C27  1  0.14335900  0.57485300  0.10196500  1
  C  C28  1  0.09040400  0.58801000  0.11121600  1
  C  C29  1  0.03592500  0.56015900  0.06713600  1
  C  C30  1  0.81927800  0.50546300  0.96593700  1
  C  C31  1  0.34392100  0.18469700  0.10725400  1
  C  C32  1  0.44246400  0.21245900  0.04191800  1
  C  C33  1  0.44600400  0.27356700  0.00733500  1
  C  C34  1  0.38487500  0.27633100  0.02551000  1
  C  C35  1  0.39446700  0.11760800  0.11734900  1
  C  C36  1  0.29100800  0.25038600  0.09954500  1
  C  C37  1  0.51643300  0.38795400  0.94039000  1
  C  C38  1  0.56383100  0.42270100  0.89135800  1
  C  C39  1  0.57768400  0.48544500  0.87506400  1
  C  C40  1  0.54720200  0.51618300  0.90995900  1
  C  C41  1  0.50566300  0.48080100  0.96251100  1
  C  C42  1  0.47810900  0.50802100  0.00796700  1
  C  C43  1  0.48962100  0.57343500  0.99877900  1
  C  C44  1  0.46754000  0.60322200  0.04591900  1
  C  C45  1  0.42514700  0.56850700  0.10196500  1
  C  C46  1  0.41199000  0.50239400  0.11121600  1
  C  C47  1  0.43984100  0.47576600  0.06713600  1
  C  C48  1  0.49453700  0.31381500  0.96593700  1
  C  C49  1  0.81530300  0.15922500  0.10725400  1
  C  C50  1  0.78754100  0.23000500  0.04191800  1
  C  C51  1  0.72643300  0.17243600  0.00733500  1
  C  C52  1  0.72366900  0.10854400  0.02551000  1
  C  C53  1  0.88239200  0.27685900  0.11734900  1
  C  C54  1  0.74961400  0.04062200  0.09954500  1
  C  C55  1  0.61204600  0.12847900  0.94039000  1
  C  C56  1  0.57729900  0.14113000  0.89135800  1
  C  C57  1  0.51455500  0.09224000  0.87506400  1
  C  C58  1  0.48381700  0.03101900  0.90995900  1
  C  C59  1  0.51919900  0.02486200  0.96251100  1
  C  C60  1  0.49197900  0.97008800  0.00796700  1
  C  C61  1  0.42656500  0.91618500  0.99877900  1
  C  C62  1  0.39677800  0.86431800  0.04591900  1
  C  C63  1  0.43149300  0.85664100  0.10196500  1
  C  C64  1  0.49760600  0.90959600  0.11121600  1
  C  C65  1  0.52423400  0.96407500  0.06713600  1
  C  C66  1  0.68618500  0.18072200  0.96593700  1
  C  C67  1  0.15922500  0.34392100  0.60725400  1
  C  C68  1  0.23000500  0.44246400  0.54191800  1
  C  C69  1  0.17243600  0.44600400  0.50733500  1
  C  C70  1  0.10854400  0.38487500  0.52551000  1
  C  C71  1  0.27685900  0.39446700  0.61734900  1
  C  C72  1  0.04062200  0.29100800  0.59954500  1
  C  C73  1  0.12847900  0.51643300  0.44039000  1
  C  C74  1  0.14113000  0.56383100  0.39135800  1
  C  C75  1  0.09224000  0.57768400  0.37506400  1
  C  C76  1  0.03101900  0.54720200  0.40995900  1
  C  C77  1  0.02486200  0.50566300  0.46251100  1
  C  C78  1  0.97008800  0.47810900  0.50796700  1
  C  C79  1  0.91618500  0.48962100  0.49877900  1
  C  C80  1  0.86431800  0.46754000  0.54591900  1
  C  C81  1  0.85664100  0.42514700  0.60196500  1
  C  C82  1  0.90959600  0.41199000  0.61121600  1
  C  C83  1  0.96407500  0.43984100  0.56713600  1
  C  C84  1  0.18072200  0.49453700  0.46593700  1
  C  C85  1  0.65607900  0.81530300  0.60725400  1
  C  C86  1  0.55753600  0.78754100  0.54191800  1
  C  C87  1  0.55399600  0.72643300  0.50733500  1
  C  C88  1  0.61512500  0.72366900  0.52551000  1
  C  C89  1  0.60553300  0.88239200  0.61734900  1
  C  C90  1  0.70899200  0.74961400  0.59954500  1
  C  C91  1  0.48356700  0.61204600  0.44039000  1
  C  C92  1  0.43616900  0.57729900  0.39135800  1
  C  C93  1  0.42231600  0.51455500  0.37506400  1
  C  C94  1  0.45279800  0.48381700  0.40995900  1
  C  C95  1  0.49433700  0.51919900  0.46251100  1
  C  C96  1  0.52189100  0.49197900  0.50796700  1
  C  C97  1  0.51037900  0.42656500  0.49877900  1
  C  C98  1  0.53246000  0.39677800  0.54591900  1
  C  C99  1  0.57485300  0.43149300  0.60196500  1
  C  C100  1  0.58801000  0.49760600  0.61121600  1
  C  C101  1  0.56015900  0.52423400  0.56713600  1
  C  C102  1  0.50546300  0.68618500  0.46593700  1
  C  C103  1  0.18469700  0.84077500  0.60725400  1
  C  C104  1  0.21245900  0.76999500  0.54191800  1
  C  C105  1  0.27356700  0.82756400  0.50733500  1
  C  C106  1  0.27633100  0.89145600  0.52551000  1
  C  C107  1  0.11760800  0.72314100  0.61734900  1
  C  C108  1  0.25038600  0.95937800  0.59954500  1
  C  C109  1  0.38795400  0.87152100  0.44039000  1
  C  C110  1  0.42270100  0.85887000  0.39135800  1
  C  C111  1  0.48544500  0.90776000  0.37506400  1
  C  C112  1  0.51618300  0.96898100  0.40995900  1
  C  C113  1  0.48080100  0.97513800  0.46251100  1
  C  C114  1  0.50802100  0.02991200  0.50796700  1
  C  C115  1  0.57343500  0.08381500  0.49877900  1
  C  C116  1  0.60322200  0.13568200  0.54591900  1
  C  C117  1  0.56850700  0.14335900  0.60196500  1
  C  C118  1  0.50239400  0.09040400  0.61121600  1
  C  C119  1  0.47576600  0.03592500  0.56713600  1
  C  C120  1  0.31381500  0.81927800  0.46593700  1
  N  N1  1  0.89504700  0.66023200  0.07434500  1
  N  N2  1  0.77972900  0.60777800  0.08125300  1
  N  N3  1  0.92766500  0.50931000  0.97670800  1
  N  N4  1  0.33976800  0.23481500  0.07434500  1
  N  N5  1  0.39222200  0.17195000  0.08125300  1
  N  N6  1  0.49069000  0.41835500  0.97670800  1
  N  N7  1  0.76518500  0.10495300  0.07434500  1
  N  N8  1  0.82805000  0.22027100  0.08125300  1
  N  N9  1  0.58164500  0.07233500  0.97670800  1
  N  N10  1  0.10495300  0.33976800  0.57434500  1
  N  N11  1  0.22027100  0.39222200  0.58125300  1
  N  N12  1  0.07233500  0.49069000  0.47670800  1
  N  N13  1  0.66023200  0.76518500  0.57434500  1
  N  N14  1  0.60777800  0.82805000  0.58125300  1
  N  N15  1  0.50931000  0.58164500  0.47670800  1
  N  N16  1  0.23481500  0.89504700  0.57434500  1
  N  N17  1  0.17195000  0.77972900  0.58125300  1
  N  N18  1  0.41835500  0.92766500  0.47670800  1
  O  O1  1  0.22435700  0.56502600  0.17192400  1
  O  O2  1  0.22218600  0.65842100  0.17559300  1
  O  O3  1  0.34065900  0.56502600  0.17192400  1
  O  O4  1  0.43622500  0.65842100  0.17559300  1
  O  O5  1  0.43480400  0.65853500  0.32437200  1
  O  O6  1  0.33956300  0.56602600  0.32221000  1
  O  O7  1  0.22372200  0.65853500  0.32437200  1
  O  O8  1  0.22645300  0.56602600  0.32221000  1
  O  O9  1  0.43453400  0.77481800  0.32289900  1
  O  O10  1  0.34027400  0.77481800  0.32289900  1
  O  O11  1  0.43485500  0.77554800  0.17641800  1
  O  O12  1  0.34068400  0.77554800  0.17641800  1
  O  O13  1  0.77564300  0.43497400  0.67192400  1
  O  O14  1  0.77781400  0.34157900  0.67559300  1
  O  O15  1  0.65934100  0.43497400  0.67192400  1
  O  O16  1  0.56377500  0.34157900  0.67559300  1
  O  O17  1  0.56519600  0.34146500  0.82437200  1
  O  O18  1  0.66043700  0.43397400  0.82221000  1
  O  O19  1  0.77627800  0.34146500  0.82437200  1
  O  O20  1  0.77354700  0.43397400  0.82221000  1
  O  O21  1  0.56546600  0.22518200  0.82289900  1
  O  O22  1  0.65972600  0.22518200  0.82289900  1
  O  O23  1  0.56514500  0.22445200  0.67641800  1
  O  O24  1  0.65931600  0.22445200  0.67641800  1
  O  O25  1  0.93717700  0.62950200  0.98869900  1
  O  O26  1  0.84583400  0.69568400  0.15487500  1
  O  O27  1  0.71678100  0.50607600  0.03659000  1
  O  O28  1  0.37049800  0.30767500  0.98869900  1
  O  O29  1  0.30431600  0.15015000  0.15487500  1
  O  O30  1  0.49392400  0.21070500  0.03659000  1
  O  O31  1  0.69232500  0.06282300  0.98869900  1
  O  O32  1  0.84985000  0.15416600  0.15487500  1
  O  O33  1  0.78929500  0.28321900  0.03659000  1
  O  O34  1  0.06282300  0.37049800  0.48869900  1
  O  O35  1  0.15416600  0.30431600  0.65487500  1
  O  O36  1  0.28321900  0.49392400  0.53659000  1
  O  O37  1  0.62950200  0.69232500  0.48869900  1
  O  O38  1  0.69568400  0.84985000  0.65487500  1
  O  O39  1  0.50607600  0.78929500  0.53659000  1
  O  O40  1  0.30767500  0.93717700  0.48869900  1
  O  O41  1  0.15015000  0.84583400  0.65487500  1
  O  O42  1  0.21070500  0.71678100  0.53659000  1
