# generated using pymatgen
data_CuH6C9O5
_symmetry_space_group_name_H-M   'P 1'
_cell_length_a   13.07880000
_cell_length_b   13.07880000
_cell_length_c   26.15770000
_cell_angle_alpha   90.00000000
_cell_angle_beta   90.00000000
_cell_angle_gamma   90.00000000
_symmetry_Int_Tables_number   1
_chemical_formula_structural   CuH6C9O5
_chemical_formula_sum   'Cu4 H24 C36 O20'
_cell_volume   4474.40562043
_cell_formula_units_Z   4
loop_
 _symmetry_equiv_pos_site_id
 _symmetry_equiv_pos_as_xyz
  1  'x, y, z'
loop_
 _atom_site_type_symbol
 _atom_site_label
 _atom_site_symmetry_multiplicity
 _atom_site_fract_x
 _atom_site_fract_y
 _atom_site_fract_z
 _atom_site_occupancy
  Cu  Cu1  1  0.89848900  0.00000000  0.00000000  1
  Cu  Cu2  1  0.10151100  0.00000000  0.00000000  1
  Cu  Cu3  1  0.00000000  0.89848900  0.50000000  1
  Cu  Cu4  1  0.00000000  0.10151100  0.50000000  1
  H  H1  1  0.87941400  0.95824700  0.64928700  1
  H  H2  1  0.94944700  0.07782800  0.66123700  1
  H  H3  1  0.13384000  0.86616000  0.74880200  1
  H  H4  1  0.13879300  0.89326400  0.84346100  1
  H  H5  1  0.87760200  0.09413800  0.82173300  1
  H  H6  1  0.87348100  0.06749300  0.73496300  1
  H  H7  1  0.04175300  0.87941400  0.14928700  1
  H  H8  1  0.92217200  0.94944700  0.16123700  1
  H  H9  1  0.13384000  0.13384000  0.24880200  1
  H  H10  1  0.10673600  0.13879300  0.34346100  1
  H  H11  1  0.90586200  0.87760200  0.32173300  1
  H  H12  1  0.93250700  0.87348100  0.23496300  1
  H  H13  1  0.05574300  0.29857400  0.94260400  1
  H  H14  1  0.09077900  0.32247500  0.00964300  1
  H  H15  1  0.81072200  0.49760400  0.00000000  1
  H  H16  1  0.82638500  0.68692100  0.01133400  1
  H  H17  1  0.15311400  0.64346600  0.99000900  1
  H  H18  1  0.13718800  0.46992600  0.97913100  1
  H  H19  1  0.70142600  0.05574300  0.44260400  1
  H  H20  1  0.67752500  0.09077900  0.50964300  1
  H  H21  1  0.50239600  0.81072200  0.50000000  1
  H  H22  1  0.31307900  0.82638500  0.51133400  1
  H  H23  1  0.35653400  0.15311400  0.49000900  1
  H  H24  1  0.53007400  0.13718800  0.47913100  1
  C  C1  1  0.00000000  0.00000000  0.90358600  1
  C  C2  1  0.00000000  0.80717200  0.00000000  1
  C  C3  1  0.00000000  0.00000000  0.09641400  1
  C  C4  1  0.00000000  0.19282800  0.00000000  1
  C  C5  1  0.00000000  0.00000000  0.40358600  1
  C  C6  1  0.19282800  0.00000000  0.50000000  1
  C  C7  1  0.00000000  0.00000000  0.59641400  1
  C  C8  1  0.80717200  0.00000000  0.50000000  1
  C  C9  1  0.94943700  0.99820300  0.64903400  1
  C  C10  1  0.01412700  0.97361400  0.73229400  1
  C  C11  1  0.08430700  0.92508900  0.76535500  1
  C  C12  1  0.08122500  0.93298100  0.81935300  1
  C  C13  1  0.00775500  0.99299600  0.84481700  1
  C  C14  1  0.93827300  0.04538100  0.80932200  1
  C  C15  1  0.93797600  0.03406700  0.75511300  1
  C  C16  1  0.00179700  0.94943700  0.14903400  1
  C  C17  1  0.02638600  0.01412700  0.23229400  1
  C  C18  1  0.07491100  0.08430700  0.26535500  1
  C  C19  1  0.06701900  0.08122500  0.31935300  1
  C  C20  1  0.00700400  0.00775500  0.34481700  1
  C  C21  1  0.95461900  0.93827300  0.30932200  1
  C  C22  1  0.96593300  0.93797600  0.25511300  1
  C  C23  1  0.03448200  0.29806900  0.98148800  1
  C  C24  1  0.97135300  0.46458700  0.99566600  1
  C  C25  1  0.88741600  0.53070900  0.00332200  1
  C  C26  1  0.89517600  0.63870600  0.00502200  1
  C  C27  1  0.98956400  0.68963300  0.00026600  1
  C  C28  1  0.07573700  0.61864300  0.99422100  1
  C  C29  1  0.06794700  0.51022500  0.99011600  1
  C  C30  1  0.70193100  0.03448200  0.48148800  1
  C  C31  1  0.53541300  0.97135300  0.49566600  1
  C  C32  1  0.46929100  0.88741600  0.50332200  1
  C  C33  1  0.36129400  0.89517600  0.50502200  1
  C  C34  1  0.31036700  0.98956400  0.50026600  1
  C  C35  1  0.38135700  0.07573700  0.49422100  1
  C  C36  1  0.48977500  0.06794700  0.49011600  1
  O  O1  1  0.08078300  0.00000000  0.92690600  1
  O  O2  1  0.91921700  0.00000000  0.92690600  1
  O  O3  1  0.08078300  0.85381300  0.00000000  1
  O  O4  1  0.91921700  0.85381300  0.00000000  1
  O  O5  1  0.08078300  0.00000000  0.07309400  1
  O  O6  1  0.91921700  0.00000000  0.07309400  1
  O  O7  1  0.08078300  0.14618700  0.00000000  1
  O  O8  1  0.91921700  0.14618700  0.00000000  1
  O  O9  1  0.00000000  0.08078300  0.42690600  1
  O  O10  1  0.00000000  0.91921700  0.42690600  1
  O  O11  1  0.14618700  0.08078300  0.50000000  1
  O  O12  1  0.14618700  0.91921700  0.50000000  1
  O  O13  1  0.00000000  0.08078300  0.57309400  1
  O  O14  1  0.00000000  0.91921700  0.57309400  1
  O  O15  1  0.85381300  0.08078300  0.50000000  1
  O  O16  1  0.85381300  0.91921700  0.50000000  1
  O  O17  1  0.01878900  0.94319600  0.68237600  1
  O  O18  1  0.05680400  0.01878900  0.18237600  1
  O  O19  1  0.94654800  0.36475200  0.98656000  1
  O  O20  1  0.63524800  0.94654800  0.48656000  1
