# generated using pymatgen
data_CuH8C12SN2O5
_symmetry_space_group_name_H-M   'P 1'
_cell_length_a   25.97180000
_cell_length_b   25.97180000
_cell_length_c   23.88260000
_cell_angle_alpha   90.00000000
_cell_angle_beta   90.00000000
_cell_angle_gamma   90.00000000
_symmetry_Int_Tables_number   1
_chemical_formula_structural   CuH8C12SN2O5
_chemical_formula_sum   'Cu16 H128 C192 S16 N32 O80'
_cell_volume   16109.63514776
_cell_formula_units_Z   16
loop_
 _symmetry_equiv_pos_site_id
 _symmetry_equiv_pos_as_xyz
  1  'x, y, z'
loop_
 _atom_site_type_symbol
 _atom_site_label
 _atom_site_symmetry_multiplicity
 _atom_site_fract_x
 _atom_site_fract_y
 _atom_site_fract_z
 _atom_site_occupancy
  Cu  Cu1  1  0.01005500  0.95379800  0.96069200  1
  Cu  Cu2  1  0.01005500  0.02609100  0.03930800  1
  Cu  Cu3  1  0.51005500  0.02609100  0.46069200  1
  Cu  Cu4  1  0.51005500  0.95379800  0.53930800  1
  Cu  Cu5  1  0.29620200  0.73994500  0.21069200  1
  Cu  Cu6  1  0.22390900  0.73994500  0.28930800  1
  Cu  Cu7  1  0.22390900  0.23994500  0.71069200  1
  Cu  Cu8  1  0.29620200  0.23994500  0.78930800  1
  Cu  Cu9  1  0.72390900  0.23994500  0.78930800  1
  Cu  Cu10  1  0.79620200  0.23994500  0.71069200  1
  Cu  Cu11  1  0.79620200  0.73994500  0.28930800  1
  Cu  Cu12  1  0.72390900  0.73994500  0.21069200  1
  Cu  Cu13  1  0.51005500  0.45379800  0.46069200  1
  Cu  Cu14  1  0.51005500  0.52609100  0.53930800  1
  Cu  Cu15  1  0.01005500  0.52609100  0.96069200  1
  Cu  Cu16  1  0.01005500  0.45379800  0.03930800  1
  H  H1  1  0.94568900  0.89353300  0.30181600  1
  H  H2  1  0.97736300  0.90483100  0.24075900  1
  H  H3  1  0.91977400  0.94335100  0.25370000  1
  H  H4  1  0.94837600  0.92768200  0.16127200  1
  H  H5  1  0.81051700  0.81208500  0.09163900  1
  H  H6  1  0.94582000  0.84725200  0.98076300  1
  H  H7  1  0.78636800  0.78636800  0.86871800  1
  H  H8  1  0.75514200  0.78375300  0.92817700  1
  H  H9  1  0.57442200  0.08635700  0.80181600  1
  H  H10  1  0.54274800  0.07505800  0.74075900  1
  H  H11  1  0.60033600  0.03653900  0.75370000  1
  H  H12  1  0.57173500  0.05220700  0.66127200  1
  H  H13  1  0.70959400  0.16780400  0.59163900  1
  H  H14  1  0.57429100  0.13263700  0.48076300  1
  H  H15  1  0.73374300  0.19352200  0.36871800  1
  H  H16  1  0.76496900  0.19613600  0.42817700  1
  H  H17  1  0.35646700  0.67557800  0.55181600  1
  H  H18  1  0.34516900  0.70725200  0.49075900  1
  H  H19  1  0.30664900  0.64966400  0.50370000  1
  H  H20  1  0.32231800  0.67826500  0.41127200  1
  H  H21  1  0.43791500  0.54040600  0.34163900  1
  H  H22  1  0.40274800  0.67570900  0.23076300  1
  H  H23  1  0.46363200  0.51625700  0.11871800  1
  H  H24  1  0.46624700  0.48503100  0.17817700  1
  H  H25  1  0.16364300  0.30431100  0.05181600  1
  H  H26  1  0.17494200  0.27263700  0.99075900  1
  H  H27  1  0.21346100  0.33022600  0.00370000  1
  H  H28  1  0.19779300  0.30162400  0.91127200  1
  H  H29  1  0.08219600  0.43948300  0.84163900  1
  H  H30  1  0.11736300  0.30418000  0.73076300  1
  H  H31  1  0.05647800  0.46363200  0.61871800  1
  H  H32  1  0.05386400  0.49485800  0.67817700  1
  H  H33  1  0.57442200  0.89353300  0.19818400  1
  H  H34  1  0.54274800  0.90483100  0.25924100  1
  H  H35  1  0.60033600  0.94335100  0.24630000  1
  H  H36  1  0.57173500  0.92768200  0.33872800  1
  H  H37  1  0.70959400  0.81208500  0.40836100  1
  H  H38  1  0.57429100  0.84725200  0.51923700  1
  H  H39  1  0.73374300  0.78636800  0.63128200  1
  H  H40  1  0.76496900  0.78375300  0.57182300  1
  H  H41  1  0.94568900  0.08635700  0.69818400  1
  H  H42  1  0.97736300  0.07505800  0.75924100  1
  H  H43  1  0.91977400  0.03653900  0.74630000  1
  H  H44  1  0.94837600  0.05220700  0.83872800  1
  H  H45  1  0.81051700  0.16780400  0.90836100  1
  H  H46  1  0.94582000  0.13263700  0.01923700  1
  H  H47  1  0.78636800  0.19352200  0.13128200  1
  H  H48  1  0.75514200  0.19613600  0.07182300  1
  H  H49  1  0.16364300  0.67557800  0.94818400  1
  H  H50  1  0.17494200  0.70725200  0.00924100  1
  H  H51  1  0.21346100  0.64966400  0.99630000  1
  H  H52  1  0.19779300  0.67826500  0.08872800  1
  H  H53  1  0.08219600  0.54040600  0.15836100  1
  H  H54  1  0.11736300  0.67570900  0.26923700  1
  H  H55  1  0.05647800  0.51625700  0.38128200  1
  H  H56  1  0.05386400  0.48503100  0.32182300  1
  H  H57  1  0.35646700  0.30431100  0.44818400  1
  H  H58  1  0.34516900  0.27263700  0.50924100  1
  H  H59  1  0.30664900  0.33022600  0.49630000  1
  H  H60  1  0.32231800  0.30162400  0.58872800  1
  H  H61  1  0.43791500  0.43948300  0.65836100  1
  H  H62  1  0.40274800  0.30418000  0.76923700  1
  H  H63  1  0.46363200  0.46363200  0.88128200  1
  H  H64  1  0.46624700  0.49485800  0.82182300  1
  H  H65  1  0.07442200  0.08635700  0.69818400  1
  H  H66  1  0.04274800  0.07505800  0.75924100  1
  H  H67  1  0.10033600  0.03653900  0.74630000  1
  H  H68  1  0.07173500  0.05220700  0.83872800  1
  H  H69  1  0.20959400  0.16780400  0.90836100  1
  H  H70  1  0.07429100  0.13263700  0.01923700  1
  H  H71  1  0.23374300  0.19352200  0.13128200  1
  H  H72  1  0.26496900  0.19613600  0.07182300  1
  H  H73  1  0.44568900  0.89353300  0.19818400  1
  H  H74  1  0.47736300  0.90483100  0.25924100  1
  H  H75  1  0.41977400  0.94335100  0.24630000  1
  H  H76  1  0.44837600  0.92768200  0.33872800  1
  H  H77  1  0.31051700  0.81208500  0.40836100  1
  H  H78  1  0.44582000  0.84725200  0.51923700  1
  H  H79  1  0.28636800  0.78636800  0.63128200  1
  H  H80  1  0.25514200  0.78375300  0.57182300  1
  H  H81  1  0.66364300  0.30431100  0.44818400  1
  H  H82  1  0.67494200  0.27263700  0.50924100  1
  H  H83  1  0.71346100  0.33022600  0.49630000  1
  H  H84  1  0.69779300  0.30162400  0.58872800  1
  H  H85  1  0.58219600  0.43948300  0.65836100  1
  H  H86  1  0.61736300  0.30418000  0.76923700  1
  H  H87  1  0.55647800  0.46363200  0.88128200  1
  H  H88  1  0.55386400  0.49485800  0.82182300  1
  H  H89  1  0.85646700  0.67557800  0.94818400  1
  H  H90  1  0.84516900  0.70725200  0.00924100  1
  H  H91  1  0.80664900  0.64966400  0.99630000  1
  H  H92  1  0.82231800  0.67826500  0.08872800  1
  H  H93  1  0.93791500  0.54040600  0.15836100  1
  H  H94  1  0.90274800  0.67570900  0.26923700  1
  H  H95  1  0.96363200  0.51625700  0.38128200  1
  H  H96  1  0.96624700  0.48503100  0.32182300  1
  H  H97  1  0.44568900  0.08635700  0.80181600  1
  H  H98  1  0.47736300  0.07505800  0.74075900  1
  H  H99  1  0.41977400  0.03653900  0.75370000  1
  H  H100  1  0.44837600  0.05220700  0.66127200  1
  H  H101  1  0.31051700  0.16780400  0.59163900  1
  H  H102  1  0.44582000  0.13263700  0.48076300  1
  H  H103  1  0.28636800  0.19352200  0.36871800  1
  H  H104  1  0.25514200  0.19613600  0.42817700  1
  H  H105  1  0.07442200  0.89353300  0.30181600  1
  H  H106  1  0.04274800  0.90483100  0.24075900  1
  H  H107  1  0.10033600  0.94335100  0.25370000  1
  H  H108  1  0.07173500  0.92768200  0.16127200  1
  H  H109  1  0.20959400  0.81208500  0.09163900  1
  H  H110  1  0.07429100  0.84725200  0.98076300  1
  H  H111  1  0.23374300  0.78636800  0.86871800  1
  H  H112  1  0.26496900  0.78375300  0.92817700  1
  H  H113  1  0.85646700  0.30431100  0.05181600  1
  H  H114  1  0.84516900  0.27263700  0.99075900  1
  H  H115  1  0.80664900  0.33022600  0.00370000  1
  H  H116  1  0.82231800  0.30162400  0.91127200  1
  H  H117  1  0.93791500  0.43948300  0.84163900  1
  H  H118  1  0.90274800  0.30418000  0.73076300  1
  H  H119  1  0.96363200  0.46363200  0.61871800  1
  H  H120  1  0.96624700  0.49485800  0.67817700  1
  H  H121  1  0.66364300  0.67557800  0.55181600  1
  H  H122  1  0.67494200  0.70725200  0.49075900  1
  H  H123  1  0.71346100  0.64966400  0.50370000  1
  H  H124  1  0.69779300  0.67826500  0.41127200  1
  H  H125  1  0.58219600  0.54040600  0.34163900  1
  H  H126  1  0.61736300  0.67570900  0.23076300  1
  H  H127  1  0.55647800  0.51625700  0.11871800  1
  H  H128  1  0.55386400  0.48503100  0.17817700  1
  C  C1  1  0.07871800  0.53849600  0.05279900  1
  C  C2  1  0.07871800  0.44139300  0.94720100  1
  C  C3  1  0.94139300  0.44139300  0.94720100  1
  C  C4  1  0.94139300  0.53849600  0.05279900  1
  C  C5  1  0.07871800  0.94139300  0.05279900  1
  C  C6  1  0.93655000  0.90544800  0.25895200  1
  C  C7  1  0.89070800  0.86724300  0.17910700  1
  C  C8  1  0.91773300  0.89928500  0.14368400  1
  C  C9  1  0.91086500  0.89791700  0.08574900  1
  C  C10  1  0.87408800  0.86210800  0.06564100  1
  C  C11  1  0.84060100  0.83620000  0.10545500  1
  C  C12  1  0.84889100  0.83941600  0.16225900  1
  C  C13  1  0.86433700  0.84453300  0.01074400  1
  C  C14  1  0.90369600  0.84115700  0.97234100  1
  C  C15  1  0.82256700  0.82118400  0.93388000  1
  C  C16  1  0.58356100  0.07444100  0.75895200  1
  C  C17  1  0.62940300  0.11264600  0.67910700  1
  C  C18  1  0.60237800  0.08060400  0.64368400  1
  C  C19  1  0.60924600  0.08197200  0.58574900  1
  C  C20  1  0.64602300  0.11778100  0.56564100  1
  C  C21  1  0.67951000  0.14368900  0.60545500  1
  C  C22  1  0.67122000  0.14047300  0.66225900  1
  C  C23  1  0.65577400  0.13535700  0.51074400  1
  C  C24  1  0.61641500  0.13873200  0.47234100  1
  C  C25  1  0.69754400  0.15870500  0.43388000  1
  C  C26  1  0.34455200  0.66643900  0.50895200  1
  C  C27  1  0.38275700  0.62059700  0.42910700  1
  C  C28  1  0.35071500  0.64762200  0.39368400  1
  C  C29  1  0.57871800  0.03849600  0.55279900  1
  C  C30  1  0.35208300  0.64075400  0.33574900  1
  C  C31  1  0.38789200  0.60397700  0.31564100  1
  C  C32  1  0.41380000  0.57049000  0.35545500  1
  C  C33  1  0.41058400  0.57878000  0.41225900  1
  C  C34  1  0.40546700  0.59422600  0.26074400  1
  C  C35  1  0.40884300  0.63358500  0.22234100  1
  C  C36  1  0.42881600  0.55245600  0.18388000  1
  C  C37  1  0.17555900  0.31345000  0.00895200  1
  C  C38  1  0.13735400  0.35929200  0.92910700  1
  C  C39  1  0.16939600  0.33226700  0.89368400  1
  C  C40  1  0.16802800  0.33913500  0.83574900  1
  C  C41  1  0.13221900  0.37591200  0.81564100  1
  C  C42  1  0.10631100  0.40939900  0.85545500  1
  C  C43  1  0.10952700  0.40110900  0.91225900  1
  C  C44  1  0.11464300  0.38566300  0.76074400  1
  C  C45  1  0.11126800  0.34630400  0.72234100  1
  C  C46  1  0.09129500  0.42743300  0.68388000  1
  C  C47  1  0.57871800  0.94139300  0.44720100  1
  C  C48  1  0.94139300  0.94139300  0.05279900  1
  C  C49  1  0.58356100  0.90544800  0.24104800  1
  C  C50  1  0.62940300  0.86724300  0.32089300  1
  C  C51  1  0.60237800  0.89928500  0.35631600  1
  C  C52  1  0.60924600  0.89791700  0.41425100  1
  C  C53  1  0.64602300  0.86210800  0.43435900  1
  C  C54  1  0.67951000  0.83620000  0.39454500  1
  C  C55  1  0.67122000  0.83941600  0.33774100  1
  C  C56  1  0.65577400  0.84453300  0.48925600  1
  C  C57  1  0.61641500  0.84115700  0.52765900  1
  C  C58  1  0.69754400  0.82118400  0.56612000  1
  C  C59  1  0.44139300  0.94139300  0.44720100  1
  C  C60  1  0.93655000  0.07444100  0.74104800  1
  C  C61  1  0.89070800  0.11264600  0.82089300  1
  C  C62  1  0.91773300  0.08060400  0.85631600  1
  C  C63  1  0.91086500  0.08197200  0.91425100  1
  C  C64  1  0.87408800  0.11778100  0.93435900  1
  C  C65  1  0.84060100  0.14368900  0.89454500  1
  C  C66  1  0.84889100  0.14047300  0.83774100  1
  C  C67  1  0.86433700  0.13535700  0.98925600  1
  C  C68  1  0.90369600  0.13873200  0.02765900  1
  C  C69  1  0.82256700  0.15870500  0.06612000  1
  C  C70  1  0.17555900  0.66643900  0.99104800  1
  C  C71  1  0.13735400  0.62059700  0.07089300  1
  C  C72  1  0.16939600  0.64762200  0.10631600  1
  C  C73  1  0.16802800  0.64075400  0.16425100  1
  C  C74  1  0.13221900  0.60397700  0.18435900  1
  C  C75  1  0.44139300  0.03849600  0.55279900  1
  C  C76  1  0.10631100  0.57049000  0.14454500  1
  C  C77  1  0.10952700  0.57878000  0.08774100  1
  C  C78  1  0.11464300  0.59422600  0.23925600  1
  C  C79  1  0.11126800  0.63358500  0.27765900  1
  C  C80  1  0.09129500  0.55245600  0.31612000  1
  C  C81  1  0.34455200  0.31345000  0.49104800  1
  C  C82  1  0.38275700  0.35929200  0.57089300  1
  C  C83  1  0.35071500  0.33226700  0.60631600  1
  C  C84  1  0.35208300  0.33913500  0.66425100  1
  C  C85  1  0.38789200  0.37591200  0.68435900  1
  C  C86  1  0.41380000  0.40939900  0.64454500  1
  C  C87  1  0.41058400  0.40110900  0.58774100  1
  C  C88  1  0.40546700  0.38566300  0.73925600  1
  C  C89  1  0.40884300  0.34630400  0.77765900  1
  C  C90  1  0.42881600  0.42743300  0.81612000  1
  C  C91  1  0.08356100  0.07444100  0.74104800  1
  C  C92  1  0.12940300  0.11264600  0.82089300  1
  C  C93  1  0.10237800  0.08060400  0.85631600  1
  C  C94  1  0.10924600  0.08197200  0.91425100  1
  C  C95  1  0.14602300  0.11778100  0.93435900  1
  C  C96  1  0.17951000  0.14368900  0.89454500  1
  C  C97  1  0.17122000  0.14047300  0.83774100  1
  C  C98  1  0.15577400  0.13535700  0.98925600  1
  C  C99  1  0.11641500  0.13873200  0.02765900  1
  C  C100  1  0.19754400  0.15870500  0.06612000  1
  C  C101  1  0.30860700  0.67128200  0.30279900  1
  C  C102  1  0.43655000  0.90544800  0.24104800  1
  C  C103  1  0.39070800  0.86724300  0.32089300  1
  C  C104  1  0.41773300  0.89928500  0.35631600  1
  C  C105  1  0.41086500  0.89791700  0.41425100  1
  C  C106  1  0.37408800  0.86210800  0.43435900  1
  C  C107  1  0.34060100  0.83620000  0.39454500  1
  C  C108  1  0.34889100  0.83941600  0.33774100  1
  C  C109  1  0.36433700  0.84453300  0.48925600  1
  C  C110  1  0.40369600  0.84115700  0.52765900  1
  C  C111  1  0.32256700  0.82118400  0.56612000  1
  C  C112  1  0.21150400  0.67128200  0.19720100  1
  C  C113  1  0.67555900  0.31345000  0.49104800  1
  C  C114  1  0.63735400  0.35929200  0.57089300  1
  C  C115  1  0.66939600  0.33226700  0.60631600  1
  C  C116  1  0.66802800  0.33913500  0.66425100  1
  C  C117  1  0.63221900  0.37591200  0.68435900  1
  C  C118  1  0.60631100  0.40939900  0.64454500  1
  C  C119  1  0.60952700  0.40110900  0.58774100  1
  C  C120  1  0.61464300  0.38566300  0.73925600  1
  C  C121  1  0.61126800  0.34630400  0.77765900  1
  C  C122  1  0.59129500  0.42743300  0.81612000  1
  C  C123  1  0.84455200  0.66643900  0.99104800  1
  C  C124  1  0.88275700  0.62059700  0.07089300  1
  C  C125  1  0.85071500  0.64762200  0.10631600  1
  C  C126  1  0.85208300  0.64075400  0.16425100  1
  C  C127  1  0.88789200  0.60397700  0.18435900  1
  C  C128  1  0.21150400  0.80860700  0.19720100  1
  C  C129  1  0.91380000  0.57049000  0.14454500  1
  C  C130  1  0.91058400  0.57878000  0.08774100  1
  C  C131  1  0.90546700  0.59422600  0.23925600  1
  C  C132  1  0.90884300  0.63358500  0.27765900  1
  C  C133  1  0.92881600  0.55245600  0.31612000  1
  C  C134  1  0.43655000  0.07444100  0.75895200  1
  C  C135  1  0.39070800  0.11264600  0.67910700  1
  C  C136  1  0.41773300  0.08060400  0.64368400  1
  C  C137  1  0.41086500  0.08197200  0.58574900  1
  C  C138  1  0.37408800  0.11778100  0.56564100  1
  C  C139  1  0.34060100  0.14368900  0.60545500  1
  C  C140  1  0.34889100  0.14047300  0.66225900  1
  C  C141  1  0.36433700  0.13535700  0.51074400  1
  C  C142  1  0.40369600  0.13873200  0.47234100  1
  C  C143  1  0.32256700  0.15870500  0.43388000  1
  C  C144  1  0.30860700  0.80860700  0.30279900  1
  C  C145  1  0.08356100  0.90544800  0.25895200  1
  C  C146  1  0.12940300  0.86724300  0.17910700  1
  C  C147  1  0.10237800  0.89928500  0.14368400  1
  C  C148  1  0.10924600  0.89791700  0.08574900  1
  C  C149  1  0.14602300  0.86210800  0.06564100  1
  C  C150  1  0.17951000  0.83620000  0.10545500  1
  C  C151  1  0.17122000  0.83941600  0.16225900  1
  C  C152  1  0.15577400  0.84453300  0.01074400  1
  C  C153  1  0.11641500  0.84115700  0.97234100  1
  C  C154  1  0.19754400  0.82118400  0.93388000  1
  C  C155  1  0.84455200  0.31345000  0.00895200  1
  C  C156  1  0.88275700  0.35929200  0.92910700  1
  C  C157  1  0.85071500  0.33226700  0.89368400  1
  C  C158  1  0.85208300  0.33913500  0.83574900  1
  C  C159  1  0.88789200  0.37591200  0.81564100  1
  C  C160  1  0.91380000  0.40939900  0.85545500  1
  C  C161  1  0.91058400  0.40110900  0.91225900  1
  C  C162  1  0.90546700  0.38566300  0.76074400  1
  C  C163  1  0.90884300  0.34630400  0.72234100  1
  C  C164  1  0.92881600  0.42743300  0.68388000  1
  C  C165  1  0.21150400  0.30860700  0.80279900  1
  C  C166  1  0.67555900  0.66643900  0.50895200  1
  C  C167  1  0.63735400  0.62059700  0.42910700  1
  C  C168  1  0.66939600  0.64762200  0.39368400  1
  C  C169  1  0.66802800  0.64075400  0.33574900  1
  C  C170  1  0.63221900  0.60397700  0.31564100  1
  C  C171  1  0.60631100  0.57049000  0.35545500  1
  C  C172  1  0.60952700  0.57878000  0.41225900  1
  C  C173  1  0.61464300  0.59422600  0.26074400  1
  C  C174  1  0.61126800  0.63358500  0.22234100  1
  C  C175  1  0.59129500  0.55245600  0.18388000  1
  C  C176  1  0.30860700  0.30860700  0.69720100  1
  C  C177  1  0.94139300  0.03849600  0.94720100  1
  C  C178  1  0.30860700  0.17128200  0.69720100  1
  C  C179  1  0.21150400  0.17128200  0.80279900  1
  C  C180  1  0.71150400  0.30860700  0.69720100  1
  C  C181  1  0.80860700  0.30860700  0.80279900  1
  C  C182  1  0.80860700  0.17128200  0.80279900  1
  C  C183  1  0.71150400  0.17128200  0.69720100  1
  C  C184  1  0.80860700  0.67128200  0.19720100  1
  C  C185  1  0.71150400  0.67128200  0.30279900  1
  C  C186  1  0.71150400  0.80860700  0.30279900  1
  C  C187  1  0.07871800  0.03849600  0.94720100  1
  C  C188  1  0.80860700  0.80860700  0.19720100  1
  C  C189  1  0.44139300  0.44139300  0.55279900  1
  C  C190  1  0.44139300  0.53849600  0.44720100  1
  C  C191  1  0.57871800  0.53849600  0.44720100  1
  C  C192  1  0.57871800  0.44139300  0.55279900  1
  S  S1  1  0.88086400  0.82930500  0.90593600  1
  S  S2  1  0.63924600  0.15058400  0.40593600  1
  S  S3  1  0.42069500  0.61075400  0.15593600  1
  S  S4  1  0.09941600  0.36913600  0.65593600  1
  S  S5  1  0.63924600  0.82930500  0.59406400  1
  S  S6  1  0.88086400  0.15058400  0.09406400  1
  S  S7  1  0.09941600  0.61075400  0.34406400  1
  S  S8  1  0.42069500  0.36913600  0.84406400  1
  S  S9  1  0.13924600  0.15058400  0.09406400  1
  S  S10  1  0.38086400  0.82930500  0.59406400  1
  S  S11  1  0.59941600  0.36913600  0.84406400  1
  S  S12  1  0.92069500  0.61075400  0.34406400  1
  S  S13  1  0.38086400  0.15058400  0.40593600  1
  S  S14  1  0.13924600  0.82930500  0.90593600  1
  S  S15  1  0.92069500  0.36913600  0.65593600  1
  S  S16  1  0.59941600  0.61075400  0.15593600  1
  N  N1  1  0.78269300  0.80282400  0.90432800  1
  N  N2  1  0.81871300  0.82667800  0.98870000  1
  N  N3  1  0.73741800  0.17706500  0.40432800  1
  N  N4  1  0.70139800  0.15321100  0.48870000  1
  N  N5  1  0.44717600  0.51258200  0.15432800  1
  N  N6  1  0.42332200  0.54860200  0.23870000  1
  N  N7  1  0.07293500  0.46730700  0.65432800  1
  N  N8  1  0.09678900  0.43128700  0.73870000  1
  N  N9  1  0.73741800  0.80282400  0.59567200  1
  N  N10  1  0.70139800  0.82667800  0.51130000  1
  N  N11  1  0.78269300  0.17706500  0.09567200  1
  N  N12  1  0.81871300  0.15321100  0.01130000  1
  N  N13  1  0.07293500  0.51258200  0.34567200  1
  N  N14  1  0.09678900  0.54860200  0.26130000  1
  N  N15  1  0.44717600  0.46730700  0.84567200  1
  N  N16  1  0.42332200  0.43128700  0.76130000  1
  N  N17  1  0.23741800  0.17706500  0.09567200  1
  N  N18  1  0.20139800  0.15321100  0.01130000  1
  N  N19  1  0.28269300  0.80282400  0.59567200  1
  N  N20  1  0.31871300  0.82667800  0.51130000  1
  N  N21  1  0.57293500  0.46730700  0.84567200  1
  N  N22  1  0.59678900  0.43128700  0.76130000  1
  N  N23  1  0.94717600  0.51258200  0.34567200  1
  N  N24  1  0.92332200  0.54860200  0.26130000  1
  N  N25  1  0.28269300  0.17706500  0.40432800  1
  N  N26  1  0.31871300  0.15321100  0.48870000  1
  N  N27  1  0.23741800  0.80282400  0.90432800  1
  N  N28  1  0.20139800  0.82667800  0.98870000  1
  N  N29  1  0.94717600  0.46730700  0.65432800  1
  N  N30  1  0.92332200  0.43128700  0.73870000  1
  N  N31  1  0.57293500  0.51258200  0.15432800  1
  N  N32  1  0.59678900  0.54860200  0.23870000  1
  O  O1  1  0.06211000  0.99798700  0.92869000  1
  O  O2  1  0.06211000  0.49798700  0.07131000  1
  O  O3  1  0.06211000  0.55551800  0.00874600  1
  O  O4  1  0.06211000  0.42437100  0.99125400  1
  O  O5  1  0.06211000  0.48190200  0.92869000  1
  O  O6  1  0.95800100  0.42437100  0.99125400  1
  O  O7  1  0.95800100  0.48190200  0.92869000  1
  O  O8  1  0.95800100  0.49798700  0.07131000  1
  O  O9  1  0.95800100  0.55551800  0.00874600  1
  O  O10  1  0.90339600  0.86763600  0.23474100  1
  O  O11  1  0.06211000  0.98190200  0.07131000  1
  O  O12  1  0.06211000  0.92437100  0.00874600  1
  O  O13  1  0.61671400  0.11225400  0.73474100  1
  O  O14  1  0.38236400  0.63328600  0.48474100  1
  O  O15  1  0.56211000  0.99798700  0.57131000  1
  O  O16  1  0.13774600  0.34660400  0.98474100  1
  O  O17  1  0.56211000  0.05551800  0.50874600  1
  O  O18  1  0.56211000  0.92437100  0.49125400  1
  O  O19  1  0.61671400  0.86763600  0.26525900  1
  O  O20  1  0.56211000  0.98190200  0.42869000  1
  O  O21  1  0.90339600  0.11225400  0.76525900  1
  O  O22  1  0.45800100  0.92437100  0.49125400  1
  O  O23  1  0.45800100  0.98190200  0.42869000  1
  O  O24  1  0.13774600  0.63328600  0.01525900  1
  O  O25  1  0.45800100  0.99798700  0.57131000  1
  O  O26  1  0.38236400  0.34660400  0.51525900  1
  O  O27  1  0.45800100  0.05551800  0.50874600  1
  O  O28  1  0.11671400  0.11225400  0.76525900  1
  O  O29  1  0.95800100  0.98190200  0.07131000  1
  O  O30  1  0.26809800  0.68789000  0.32131000  1
  O  O31  1  0.40339600  0.86763600  0.26525900  1
  O  O32  1  0.32562900  0.68789000  0.25874600  1
  O  O33  1  0.63774600  0.34660400  0.51525900  1
  O  O34  1  0.19448200  0.68789000  0.24125400  1
  O  O35  1  0.25201300  0.68789000  0.17869000  1
  O  O36  1  0.88236400  0.63328600  0.01525900  1
  O  O37  1  0.19448200  0.79199900  0.24125400  1
  O  O38  1  0.40339600  0.11225400  0.73474100  1
  O  O39  1  0.25201300  0.79199900  0.17869000  1
  O  O40  1  0.11671400  0.86763600  0.23474100  1
  O  O41  1  0.95800100  0.92437100  0.00874600  1
  O  O42  1  0.26809800  0.79199900  0.32131000  1
  O  O43  1  0.32562900  0.79199900  0.25874600  1
  O  O44  1  0.88236400  0.34660400  0.98474100  1
  O  O45  1  0.63774600  0.63328600  0.48474100  1
  O  O46  1  0.25201300  0.29199900  0.82131000  1
  O  O47  1  0.19448200  0.29199900  0.75874600  1
  O  O48  1  0.32562900  0.29199900  0.74125400  1
  O  O49  1  0.26809800  0.29199900  0.67869000  1
  O  O50  1  0.32562900  0.18789000  0.74125400  1
  O  O51  1  0.26809800  0.18789000  0.67869000  1
  O  O52  1  0.25201300  0.18789000  0.82131000  1
  O  O53  1  0.19448200  0.18789000  0.75874600  1
  O  O54  1  0.75201300  0.29199900  0.67869000  1
  O  O55  1  0.95800100  0.05551800  0.99125400  1
  O  O56  1  0.69448200  0.29199900  0.74125400  1
  O  O57  1  0.82562900  0.29199900  0.75874600  1
  O  O58  1  0.76809800  0.29199900  0.82131000  1
  O  O59  1  0.82562900  0.18789000  0.75874600  1
  O  O60  1  0.76809800  0.18789000  0.82131000  1
  O  O61  1  0.75201300  0.18789000  0.67869000  1
  O  O62  1  0.69448200  0.18789000  0.74125400  1
  O  O63  1  0.95800100  0.99798700  0.92869000  1
  O  O64  1  0.76809800  0.68789000  0.17869000  1
  O  O65  1  0.82562900  0.68789000  0.24125400  1
  O  O66  1  0.69448200  0.68789000  0.25874600  1
  O  O67  1  0.75201300  0.68789000  0.32131000  1
  O  O68  1  0.69448200  0.79199900  0.25874600  1
  O  O69  1  0.75201300  0.79199900  0.32131000  1
  O  O70  1  0.76809800  0.79199900  0.17869000  1
  O  O71  1  0.82562900  0.79199900  0.24125400  1
  O  O72  1  0.45800100  0.48190200  0.57131000  1
  O  O73  1  0.45800100  0.42437100  0.50874600  1
  O  O74  1  0.06211000  0.05551800  0.99125400  1
  O  O75  1  0.45800100  0.55551800  0.49125400  1
  O  O76  1  0.45800100  0.49798700  0.42869000  1
  O  O77  1  0.56211000  0.55551800  0.49125400  1
  O  O78  1  0.56211000  0.49798700  0.42869000  1
  O  O79  1  0.56211000  0.48190200  0.57131000  1
  O  O80  1  0.56211000  0.42437100  0.50874600  1
