# generated using pymatgen
data_CuH10C16(NO2)2
_symmetry_space_group_name_H-M   'P 1'
_cell_length_a   25.86360000
_cell_length_b   25.86360000
_cell_length_c   23.77440000
_cell_angle_alpha   90.00000000
_cell_angle_beta   90.00000000
_cell_angle_gamma   90.00000000
_symmetry_Int_Tables_number   1
_chemical_formula_structural   CuH10C16(NO2)2
_chemical_formula_sum   'Cu16 H160 C256 N32 O64'
_cell_volume   15903.30965744
_cell_formula_units_Z   16
loop_
 _symmetry_equiv_pos_site_id
 _symmetry_equiv_pos_as_xyz
  1  'x, y, z'
loop_
 _atom_site_type_symbol
 _atom_site_label
 _atom_site_symmetry_multiplicity
 _atom_site_fract_x
 _atom_site_fract_y
 _atom_site_fract_z
 _atom_site_occupancy
  Cu  Cu1  1  0.01009700  0.95360500  0.96051300  1
  Cu  Cu2  1  0.01009700  0.02620000  0.03948700  1
  Cu  Cu3  1  0.51009700  0.02620000  0.46051300  1
  Cu  Cu4  1  0.51009700  0.95360500  0.53948700  1
  Cu  Cu5  1  0.29639500  0.73990300  0.21051300  1
  Cu  Cu6  1  0.22380000  0.73990300  0.28948700  1
  Cu  Cu7  1  0.22380000  0.23990300  0.71051300  1
  Cu  Cu8  1  0.29639500  0.23990300  0.78948700  1
  Cu  Cu9  1  0.72380000  0.23990300  0.78948700  1
  Cu  Cu10  1  0.79639500  0.23990300  0.71051300  1
  Cu  Cu11  1  0.79639500  0.73990300  0.28948700  1
  Cu  Cu12  1  0.72380000  0.73990300  0.21051300  1
  Cu  Cu13  1  0.51009700  0.45360500  0.46051300  1
  Cu  Cu14  1  0.51009700  0.52620000  0.53948700  1
  Cu  Cu15  1  0.01009700  0.52620000  0.96051300  1
  Cu  Cu16  1  0.01009700  0.45360500  0.03948700  1
  H  H1  1  0.91252200  0.85522500  0.96472300  1
  H  H2  1  0.73852900  0.89305600  0.82968900  1
  H  H3  1  0.72250800  0.91769600  0.94104300  1
  H  H4  1  0.76562300  0.91162300  0.03737000  1
  H  H5  1  0.81504700  0.81504700  0.75541300  1
  H  H6  1  0.86217400  0.86594100  0.74259100  1
  H  H7  1  0.78925300  0.87832800  0.74604900  1
  H  H8  1  0.95469300  0.90748600  0.15718800  1
  H  H9  1  0.89809400  0.85757400  0.22173100  1
  H  H10  1  0.80127500  0.82013600  0.08174900  1
  H  H11  1  0.60767300  0.12458000  0.46472300  1
  H  H12  1  0.78166600  0.08674900  0.32968900  1
  H  H13  1  0.79768700  0.06210900  0.44104300  1
  H  H14  1  0.75457200  0.06818200  0.53737000  1
  H  H15  1  0.70514800  0.16475800  0.25541300  1
  H  H16  1  0.65802100  0.11386400  0.24259100  1
  H  H17  1  0.73094200  0.10147700  0.24604900  1
  H  H18  1  0.56550200  0.07231900  0.65718800  1
  H  H19  1  0.62210100  0.12223100  0.72173100  1
  H  H20  1  0.71892000  0.15966900  0.58174900  1
  H  H21  1  0.39477500  0.64232700  0.21472300  1
  H  H22  1  0.35694400  0.46833400  0.07968900  1
  H  H23  1  0.33230400  0.45231300  0.19104300  1
  H  H24  1  0.33837700  0.49542800  0.28737000  1
  H  H25  1  0.43495300  0.54485200  0.00541300  1
  H  H26  1  0.38405900  0.59197900  0.99259100  1
  H  H27  1  0.37167200  0.51905800  0.99604900  1
  H  H28  1  0.34251400  0.68449800  0.40718800  1
  H  H29  1  0.39242600  0.62789900  0.47173100  1
  H  H30  1  0.42986400  0.53108000  0.33174900  1
  H  H31  1  0.12542000  0.33747800  0.71472300  1
  H  H32  1  0.16325100  0.51147100  0.57968900  1
  H  H33  1  0.18789100  0.52749200  0.69104300  1
  H  H34  1  0.18181800  0.48437700  0.78737000  1
  H  H35  1  0.08524200  0.43495300  0.50541300  1
  H  H36  1  0.13613600  0.38782600  0.49259100  1
  H  H37  1  0.14852300  0.46074700  0.49604900  1
  H  H38  1  0.17768100  0.29530700  0.90718800  1
  H  H39  1  0.12776900  0.35190600  0.97173100  1
  H  H40  1  0.09033100  0.44872500  0.83174900  1
  H  H41  1  0.60767300  0.85522500  0.53527700  1
  H  H42  1  0.78166600  0.89305600  0.67031100  1
  H  H43  1  0.79768700  0.91769600  0.55895700  1
  H  H44  1  0.75457200  0.91162300  0.46263000  1
  H  H45  1  0.70514800  0.81504700  0.74458700  1
  H  H46  1  0.65802100  0.86594100  0.75740900  1
  H  H47  1  0.73094200  0.87832800  0.75395100  1
  H  H48  1  0.56550200  0.90748600  0.34281200  1
  H  H49  1  0.62210100  0.85757400  0.27826900  1
  H  H50  1  0.71892000  0.82013600  0.41825100  1
  H  H51  1  0.91252200  0.12458000  0.03527700  1
  H  H52  1  0.73852900  0.08674900  0.17031100  1
  H  H53  1  0.72250800  0.06210900  0.05895700  1
  H  H54  1  0.76562300  0.06818200  0.96263000  1
  H  H55  1  0.81504700  0.16475800  0.24458700  1
  H  H56  1  0.86217400  0.11386400  0.25740900  1
  H  H57  1  0.78925300  0.10147700  0.25395100  1
  H  H58  1  0.95469300  0.07231900  0.84281200  1
  H  H59  1  0.89809400  0.12223100  0.77826900  1
  H  H60  1  0.80127500  0.15966900  0.91825100  1
  H  H61  1  0.12542000  0.64232700  0.28527700  1
  H  H62  1  0.16325100  0.46833400  0.42031100  1
  H  H63  1  0.18789100  0.45231300  0.30895700  1
  H  H64  1  0.18181800  0.49542800  0.21263000  1
  H  H65  1  0.08524200  0.54485200  0.49458700  1
  H  H66  1  0.13613600  0.59197900  0.50740900  1
  H  H67  1  0.14852300  0.51905800  0.50395100  1
  H  H68  1  0.17768100  0.68449800  0.09281200  1
  H  H69  1  0.12776900  0.62789900  0.02826900  1
  H  H70  1  0.09033100  0.53108000  0.16825100  1
  H  H71  1  0.39477500  0.33747800  0.78527700  1
  H  H72  1  0.35694400  0.51147100  0.92031100  1
  H  H73  1  0.33230400  0.52749200  0.80895700  1
  H  H74  1  0.33837700  0.48437700  0.71263000  1
  H  H75  1  0.43495300  0.43495300  0.99458700  1
  H  H76  1  0.38405900  0.38782600  0.00740900  1
  H  H77  1  0.37167200  0.46074700  0.00395100  1
  H  H78  1  0.34251400  0.29530700  0.59281200  1
  H  H79  1  0.39242600  0.35190600  0.52826900  1
  H  H80  1  0.42986400  0.44872500  0.66825100  1
  H  H81  1  0.10767300  0.12458000  0.03527700  1
  H  H82  1  0.28166600  0.08674900  0.17031100  1
  H  H83  1  0.29768700  0.06210900  0.05895700  1
  H  H84  1  0.25457200  0.06818200  0.96263000  1
  H  H85  1  0.20514800  0.16475800  0.24458700  1
  H  H86  1  0.15802100  0.11386400  0.25740900  1
  H  H87  1  0.23094200  0.10147700  0.25395100  1
  H  H88  1  0.06550200  0.07231900  0.84281200  1
  H  H89  1  0.12210100  0.12223100  0.77826900  1
  H  H90  1  0.21892000  0.15966900  0.91825100  1
  H  H91  1  0.41252200  0.85522500  0.53527700  1
  H  H92  1  0.23852900  0.89305600  0.67031100  1
  H  H93  1  0.22250800  0.91769600  0.55895700  1
  H  H94  1  0.26562300  0.91162300  0.46263000  1
  H  H95  1  0.31504700  0.81504700  0.74458700  1
  H  H96  1  0.36217400  0.86594100  0.75740900  1
  H  H97  1  0.28925300  0.87832800  0.75395100  1
  H  H98  1  0.45469300  0.90748600  0.34281200  1
  H  H99  1  0.39809400  0.85757400  0.27826900  1
  H  H100  1  0.30127500  0.82013600  0.41825100  1
  H  H101  1  0.62542000  0.33747800  0.78527700  1
  H  H102  1  0.66325100  0.51147100  0.92031100  1
  H  H103  1  0.68789100  0.52749200  0.80895700  1
  H  H104  1  0.68181800  0.48437700  0.71263000  1
  H  H105  1  0.58524200  0.43495300  0.99458700  1
  H  H106  1  0.63613600  0.38782600  0.00740900  1
  H  H107  1  0.64852300  0.46074700  0.00395100  1
  H  H108  1  0.67768100  0.29530700  0.59281200  1
  H  H109  1  0.62776900  0.35190600  0.52826900  1
  H  H110  1  0.59033100  0.44872500  0.66825100  1
  H  H111  1  0.89477500  0.64232700  0.28527700  1
  H  H112  1  0.85694400  0.46833400  0.42031100  1
  H  H113  1  0.83230400  0.45231300  0.30895700  1
  H  H114  1  0.83837700  0.49542800  0.21263000  1
  H  H115  1  0.93495300  0.54485200  0.49458700  1
  H  H116  1  0.88405900  0.59197900  0.50740900  1
  H  H117  1  0.87167200  0.51905800  0.50395100  1
  H  H118  1  0.84251400  0.68449800  0.09281200  1
  H  H119  1  0.89242600  0.62789900  0.02826900  1
  H  H120  1  0.92986400  0.53108000  0.16825100  1
  H  H121  1  0.41252200  0.12458000  0.46472300  1
  H  H122  1  0.23852900  0.08674900  0.32968900  1
  H  H123  1  0.22250800  0.06210900  0.44104300  1
  H  H124  1  0.26562300  0.06818200  0.53737000  1
  H  H125  1  0.31504700  0.16475800  0.25541300  1
  H  H126  1  0.36217400  0.11386400  0.24259100  1
  H  H127  1  0.28925300  0.10147700  0.24604900  1
  H  H128  1  0.45469300  0.07231900  0.65718800  1
  H  H129  1  0.39809400  0.12223100  0.72173100  1
  H  H130  1  0.30127500  0.15966900  0.58174900  1
  H  H131  1  0.10767300  0.85522500  0.96472300  1
  H  H132  1  0.28166600  0.89305600  0.82968900  1
  H  H133  1  0.29768700  0.91769600  0.94104300  1
  H  H134  1  0.25457200  0.91162300  0.03737000  1
  H  H135  1  0.20514800  0.81504700  0.75541300  1
  H  H136  1  0.15802100  0.86594100  0.74259100  1
  H  H137  1  0.23094200  0.87832800  0.74604900  1
  H  H138  1  0.06550200  0.90748600  0.15718800  1
  H  H139  1  0.12210100  0.85757400  0.22173100  1
  H  H140  1  0.21892000  0.82013600  0.08174900  1
  H  H141  1  0.89477500  0.33747800  0.71472300  1
  H  H142  1  0.85694400  0.51147100  0.57968900  1
  H  H143  1  0.83230400  0.52749200  0.69104300  1
  H  H144  1  0.83837700  0.48437700  0.78737000  1
  H  H145  1  0.93495300  0.43495300  0.50541300  1
  H  H146  1  0.88405900  0.38782600  0.49259100  1
  H  H147  1  0.87167200  0.46074700  0.49604900  1
  H  H148  1  0.84251400  0.29530700  0.90718800  1
  H  H149  1  0.89242600  0.35190600  0.97173100  1
  H  H150  1  0.92986400  0.44872500  0.83174900  1
  H  H151  1  0.62542000  0.64232700  0.21472300  1
  H  H152  1  0.66325100  0.46833400  0.07968900  1
  H  H153  1  0.68789100  0.45231300  0.19104300  1
  H  H154  1  0.68181800  0.49542800  0.28737000  1
  H  H155  1  0.58524200  0.54485200  0.00541300  1
  H  H156  1  0.63613600  0.59197900  0.99259100  1
  H  H157  1  0.64852300  0.51905800  0.99604900  1
  H  H158  1  0.67768100  0.68449800  0.40718800  1
  H  H159  1  0.62776900  0.62789900  0.47173100  1
  H  H160  1  0.59033100  0.53108000  0.33174900  1
  C  C1  1  0.07904700  0.53865700  0.05304000  1
  C  C2  1  0.07904700  0.44114800  0.94696000  1
  C  C3  1  0.94114800  0.44114800  0.94696000  1
  C  C4  1  0.94114800  0.53865700  0.05304000  1
  C  C5  1  0.07904700  0.94114800  0.05304000  1
  C  C6  1  0.83988600  0.88073500  0.00782300  1
  C  C7  1  0.87114400  0.86601100  0.96071900  1
  C  C8  1  0.84702000  0.86701400  0.90767500  1
  C  C9  1  0.77605000  0.88498300  0.84847400  1
  C  C10  1  0.79096700  0.88611200  0.90395300  1
  C  C11  1  0.76043300  0.90177200  0.94793700  1
  C  C12  1  0.78739900  0.89891200  0.99895300  1
  C  C13  1  0.82297600  0.85615700  0.76207600  1
  C  C14  1  0.85779300  0.87871500  0.06268000  1
  C  C15  1  0.90686900  0.90093700  0.08425900  1
  C  C16  1  0.91994600  0.88914900  0.14096300  1
  C  C17  1  0.88793100  0.86312600  0.17959200  1
  C  C18  1  0.84467500  0.84222100  0.15812800  1
  C  C19  1  0.83211800  0.84480800  0.10027600  1
  C  C20  1  0.68030900  0.09907000  0.50782300  1
  C  C21  1  0.64905100  0.11379400  0.46071900  1
  C  C22  1  0.67317500  0.11279100  0.40767500  1
  C  C23  1  0.74414500  0.09482200  0.34847400  1
  C  C24  1  0.72922800  0.09369300  0.40395300  1
  C  C25  1  0.75976200  0.07803300  0.44793700  1
  C  C26  1  0.73279600  0.08089300  0.49895300  1
  C  C27  1  0.69721900  0.12364800  0.26207600  1
  C  C28  1  0.66240200  0.10109000  0.56268000  1
  C  C29  1  0.61332600  0.07886900  0.58425900  1
  C  C30  1  0.60024900  0.09065600  0.64096300  1
  C  C31  1  0.63226400  0.11667900  0.67959200  1
  C  C32  1  0.57904700  0.03865700  0.55304000  1
  C  C33  1  0.67552000  0.13758400  0.65812800  1
  C  C34  1  0.68807700  0.13499700  0.60027600  1
  C  C35  1  0.36926500  0.56969100  0.25782300  1
  C  C36  1  0.38398900  0.60094900  0.21071900  1
  C  C37  1  0.38298600  0.57682500  0.15767500  1
  C  C38  1  0.36501700  0.50585500  0.09847400  1
  C  C39  1  0.36388800  0.52077200  0.15395300  1
  C  C40  1  0.34822800  0.49023800  0.19793700  1
  C  C41  1  0.35108800  0.51720400  0.24895300  1
  C  C42  1  0.39384300  0.55278100  0.01207600  1
  C  C43  1  0.37128500  0.58759800  0.31268000  1
  C  C44  1  0.34906300  0.63667400  0.33425900  1
  C  C45  1  0.36085100  0.64975100  0.39096300  1
  C  C46  1  0.38687400  0.61773600  0.42959200  1
  C  C47  1  0.40777900  0.57448000  0.40812800  1
  C  C48  1  0.40519200  0.56192300  0.35027600  1
  C  C49  1  0.57904700  0.94114800  0.44696000  1
  C  C50  1  0.15093000  0.41011400  0.75782300  1
  C  C51  1  0.13620600  0.37885600  0.71071900  1
  C  C52  1  0.13720900  0.40298000  0.65767500  1
  C  C53  1  0.15517800  0.47395000  0.59847400  1
  C  C54  1  0.15630700  0.45903300  0.65395300  1
  C  C55  1  0.17196700  0.48956700  0.69793700  1
  C  C56  1  0.16910700  0.46260100  0.74895300  1
  C  C57  1  0.12635200  0.42702400  0.51207600  1
  C  C58  1  0.94114800  0.94114800  0.05304000  1
  C  C59  1  0.14891000  0.39220700  0.81268000  1
  C  C60  1  0.17113100  0.34313100  0.83425900  1
  C  C61  1  0.15934400  0.33005400  0.89096300  1
  C  C62  1  0.13332100  0.36206900  0.92959200  1
  C  C63  1  0.11241600  0.40532500  0.90812800  1
  C  C64  1  0.11500300  0.41788200  0.85027600  1
  C  C65  1  0.68030900  0.88073500  0.49217700  1
  C  C66  1  0.64905100  0.86601100  0.53928100  1
  C  C67  1  0.67317500  0.86701400  0.59232500  1
  C  C68  1  0.44114800  0.94114800  0.44696000  1
  C  C69  1  0.74414500  0.88498300  0.65152600  1
  C  C70  1  0.72922800  0.88611200  0.59604700  1
  C  C71  1  0.75976200  0.90177200  0.55206300  1
  C  C72  1  0.73279600  0.89891200  0.50104700  1
  C  C73  1  0.69721900  0.85615700  0.73792400  1
  C  C74  1  0.66240200  0.87871500  0.43732000  1
  C  C75  1  0.61332600  0.90093700  0.41574100  1
  C  C76  1  0.60024900  0.88914900  0.35903700  1
  C  C77  1  0.63226400  0.86312600  0.32040800  1
  C  C78  1  0.67552000  0.84222100  0.34187200  1
  C  C79  1  0.68807700  0.84480800  0.39972400  1
  C  C80  1  0.83988600  0.09907000  0.99217700  1
  C  C81  1  0.87114400  0.11379400  0.03928100  1
  C  C82  1  0.84702000  0.11279100  0.09232500  1
  C  C83  1  0.77605000  0.09482200  0.15152600  1
  C  C84  1  0.79096700  0.09369300  0.09604700  1
  C  C85  1  0.76043300  0.07803300  0.05206300  1
  C  C86  1  0.44114800  0.03865700  0.55304000  1
  C  C87  1  0.78739900  0.08089300  0.00104700  1
  C  C88  1  0.82297600  0.12364800  0.23792400  1
  C  C89  1  0.85779300  0.10109000  0.93732000  1
  C  C90  1  0.90686900  0.07886900  0.91574100  1
  C  C91  1  0.91994600  0.09065600  0.85903700  1
  C  C92  1  0.88793100  0.11667900  0.82040800  1
  C  C93  1  0.84467500  0.13758400  0.84187200  1
  C  C94  1  0.83211800  0.13499700  0.89972400  1
  C  C95  1  0.15093000  0.56969100  0.24217700  1
  C  C96  1  0.13620600  0.60094900  0.28928100  1
  C  C97  1  0.13720900  0.57682500  0.34232500  1
  C  C98  1  0.15517800  0.50585500  0.40152600  1
  C  C99  1  0.15630700  0.52077200  0.34604700  1
  C  C100  1  0.17196700  0.49023800  0.30206300  1
  C  C101  1  0.16910700  0.51720400  0.25104700  1
  C  C102  1  0.12635200  0.55278100  0.48792400  1
  C  C103  1  0.14891000  0.58759800  0.18732000  1
  C  C104  1  0.17113100  0.63667400  0.16574100  1
  C  C105  1  0.15934400  0.64975100  0.10903700  1
  C  C106  1  0.13332100  0.61773600  0.07040800  1
  C  C107  1  0.11241600  0.57448000  0.09187200  1
  C  C108  1  0.11500300  0.56192300  0.14972400  1
  C  C109  1  0.36926500  0.41011400  0.74217700  1
  C  C110  1  0.38398900  0.37885600  0.78928100  1
  C  C111  1  0.38298600  0.40298000  0.84232500  1
  C  C112  1  0.36501700  0.47395000  0.90152600  1
  C  C113  1  0.30885200  0.67095300  0.30304000  1
  C  C114  1  0.36388800  0.45903300  0.84604700  1
  C  C115  1  0.34822800  0.48956700  0.80206300  1
  C  C116  1  0.35108800  0.46260100  0.75104700  1
  C  C117  1  0.39384300  0.42702400  0.98792400  1
  C  C118  1  0.37128500  0.39220700  0.68732000  1
  C  C119  1  0.34906300  0.34313100  0.66574100  1
  C  C120  1  0.36085100  0.33005400  0.60903700  1
  C  C121  1  0.38687400  0.36206900  0.57040800  1
  C  C122  1  0.40777900  0.40532500  0.59187200  1
  C  C123  1  0.40519200  0.41788200  0.64972400  1
  C  C124  1  0.18030900  0.09907000  0.99217700  1
  C  C125  1  0.14905100  0.11379400  0.03928100  1
  C  C126  1  0.17317500  0.11279100  0.09232500  1
  C  C127  1  0.24414500  0.09482200  0.15152600  1
  C  C128  1  0.22922800  0.09369300  0.09604700  1
  C  C129  1  0.25976200  0.07803300  0.05206300  1
  C  C130  1  0.23279600  0.08089300  0.00104700  1
  C  C131  1  0.19721900  0.12364800  0.23792400  1
  C  C132  1  0.21134300  0.67095300  0.19696000  1
  C  C133  1  0.16240200  0.10109000  0.93732000  1
  C  C134  1  0.11332600  0.07886900  0.91574100  1
  C  C135  1  0.10024900  0.09065600  0.85903700  1
  C  C136  1  0.13226400  0.11667900  0.82040800  1
  C  C137  1  0.17552000  0.13758400  0.84187200  1
  C  C138  1  0.18807700  0.13499700  0.89972400  1
  C  C139  1  0.33988600  0.88073500  0.49217700  1
  C  C140  1  0.37114400  0.86601100  0.53928100  1
  C  C141  1  0.34702000  0.86701400  0.59232500  1
  C  C142  1  0.27605000  0.88498300  0.65152600  1
  C  C143  1  0.29096700  0.88611200  0.59604700  1
  C  C144  1  0.26043300  0.90177200  0.55206300  1
  C  C145  1  0.28739900  0.89891200  0.50104700  1
  C  C146  1  0.32297600  0.85615700  0.73792400  1
  C  C147  1  0.21134300  0.80885200  0.19696000  1
  C  C148  1  0.35779300  0.87871500  0.43732000  1
  C  C149  1  0.40686900  0.90093700  0.41574100  1
  C  C150  1  0.41994600  0.88914900  0.35903700  1
  C  C151  1  0.38793100  0.86312600  0.32040800  1
  C  C152  1  0.34467500  0.84222100  0.34187200  1
  C  C153  1  0.33211800  0.84480800  0.39972400  1
  C  C154  1  0.65093000  0.41011400  0.74217700  1
  C  C155  1  0.63620600  0.37885600  0.78928100  1
  C  C156  1  0.63720900  0.40298000  0.84232500  1
  C  C157  1  0.65517800  0.47395000  0.90152600  1
  C  C158  1  0.65630700  0.45903300  0.84604700  1
  C  C159  1  0.67196700  0.48956700  0.80206300  1
  C  C160  1  0.66910700  0.46260100  0.75104700  1
  C  C161  1  0.62635200  0.42702400  0.98792400  1
  C  C162  1  0.64891000  0.39220700  0.68732000  1
  C  C163  1  0.30885200  0.80885200  0.30304000  1
  C  C164  1  0.67113100  0.34313100  0.66574100  1
  C  C165  1  0.65934400  0.33005400  0.60903700  1
  C  C166  1  0.63332100  0.36206900  0.57040800  1
  C  C167  1  0.61241600  0.40532500  0.59187200  1
  C  C168  1  0.61500300  0.41788200  0.64972400  1
  C  C169  1  0.86926500  0.56969100  0.24217700  1
  C  C170  1  0.88398900  0.60094900  0.28928100  1
  C  C171  1  0.88298600  0.57682500  0.34232500  1
  C  C172  1  0.86501700  0.50585500  0.40152600  1
  C  C173  1  0.86388800  0.52077200  0.34604700  1
  C  C174  1  0.84822800  0.49023800  0.30206300  1
  C  C175  1  0.85108800  0.51720400  0.25104700  1
  C  C176  1  0.89384300  0.55278100  0.48792400  1
  C  C177  1  0.87128500  0.58759800  0.18732000  1
  C  C178  1  0.84906300  0.63667400  0.16574100  1
  C  C179  1  0.86085100  0.64975100  0.10903700  1
  C  C180  1  0.88687400  0.61773600  0.07040800  1
  C  C181  1  0.90777900  0.57448000  0.09187200  1
  C  C182  1  0.90519200  0.56192300  0.14972400  1
  C  C183  1  0.33988600  0.09907000  0.50782300  1
  C  C184  1  0.37114400  0.11379400  0.46071900  1
  C  C185  1  0.34702000  0.11279100  0.40767500  1
  C  C186  1  0.27605000  0.09482200  0.34847400  1
  C  C187  1  0.29096700  0.09369300  0.40395300  1
  C  C188  1  0.26043300  0.07803300  0.44793700  1
  C  C189  1  0.28739900  0.08089300  0.49895300  1
  C  C190  1  0.32297600  0.12364800  0.26207600  1
  C  C191  1  0.21134300  0.30885200  0.80304000  1
  C  C192  1  0.35779300  0.10109000  0.56268000  1
  C  C193  1  0.40686900  0.07886900  0.58425900  1
  C  C194  1  0.41994600  0.09065600  0.64096300  1
  C  C195  1  0.38793100  0.11667900  0.67959200  1
  C  C196  1  0.34467500  0.13758400  0.65812800  1
  C  C197  1  0.33211800  0.13499700  0.60027600  1
  C  C198  1  0.18030900  0.88073500  0.00782300  1
  C  C199  1  0.14905100  0.86601100  0.96071900  1
  C  C200  1  0.17317500  0.86701400  0.90767500  1
  C  C201  1  0.24414500  0.88498300  0.84847400  1
  C  C202  1  0.22922800  0.88611200  0.90395300  1
  C  C203  1  0.25976200  0.90177200  0.94793700  1
  C  C204  1  0.23279600  0.89891200  0.99895300  1
  C  C205  1  0.19721900  0.85615700  0.76207600  1
  C  C206  1  0.16240200  0.87871500  0.06268000  1
  C  C207  1  0.11332600  0.90093700  0.08425900  1
  C  C208  1  0.10024900  0.88914900  0.14096300  1
  C  C209  1  0.30885200  0.30885200  0.69696000  1
  C  C210  1  0.13226400  0.86312600  0.17959200  1
  C  C211  1  0.17552000  0.84222100  0.15812800  1
  C  C212  1  0.18807700  0.84480800  0.10027600  1
  C  C213  1  0.86926500  0.41011400  0.75782300  1
  C  C214  1  0.88398900  0.37885600  0.71071900  1
  C  C215  1  0.88298600  0.40298000  0.65767500  1
  C  C216  1  0.86501700  0.47395000  0.59847400  1
  C  C217  1  0.86388800  0.45903300  0.65395300  1
  C  C218  1  0.84822800  0.48956700  0.69793700  1
  C  C219  1  0.85108800  0.46260100  0.74895300  1
  C  C220  1  0.89384300  0.42702400  0.51207600  1
  C  C221  1  0.87128500  0.39220700  0.81268000  1
  C  C222  1  0.84906300  0.34313100  0.83425900  1
  C  C223  1  0.86085100  0.33005400  0.89096300  1
  C  C224  1  0.88687400  0.36206900  0.92959200  1
  C  C225  1  0.90777900  0.40532500  0.90812800  1
  C  C226  1  0.94114800  0.03865700  0.94696000  1
  C  C227  1  0.30885200  0.17095300  0.69696000  1
  C  C228  1  0.90519200  0.41788200  0.85027600  1
  C  C229  1  0.65093000  0.56969100  0.25782300  1
  C  C230  1  0.63620600  0.60094900  0.21071900  1
  C  C231  1  0.63720900  0.57682500  0.15767500  1
  C  C232  1  0.65517800  0.50585500  0.09847400  1
  C  C233  1  0.65630700  0.52077200  0.15395300  1
  C  C234  1  0.67196700  0.49023800  0.19793700  1
  C  C235  1  0.66910700  0.51720400  0.24895300  1
  C  C236  1  0.62635200  0.55278100  0.01207600  1
  C  C237  1  0.64891000  0.58759800  0.31268000  1
  C  C238  1  0.67113100  0.63667400  0.33425900  1
  C  C239  1  0.65934400  0.64975100  0.39096300  1
  C  C240  1  0.63332100  0.61773600  0.42959200  1
  C  C241  1  0.61241600  0.57448000  0.40812800  1
  C  C242  1  0.61500300  0.56192300  0.35027600  1
  C  C243  1  0.21134300  0.17095300  0.80304000  1
  C  C244  1  0.71134300  0.30885200  0.69696000  1
  C  C245  1  0.80885200  0.30885200  0.80304000  1
  C  C246  1  0.80885200  0.17095300  0.80304000  1
  C  C247  1  0.71134300  0.17095300  0.69696000  1
  C  C248  1  0.80885200  0.67095300  0.19696000  1
  C  C249  1  0.71134300  0.67095300  0.30304000  1
  C  C250  1  0.71134300  0.80885200  0.30304000  1
  C  C251  1  0.07904700  0.03865700  0.94696000  1
  C  C252  1  0.80885200  0.80885200  0.19696000  1
  C  C253  1  0.44114800  0.44114800  0.55304000  1
  C  C254  1  0.44114800  0.53865700  0.44696000  1
  C  C255  1  0.57904700  0.53865700  0.44696000  1
  C  C256  1  0.57904700  0.44114800  0.55304000  1
  N  N1  1  0.86105100  0.85780000  0.85503800  1
  N  N2  1  0.81950900  0.86776600  0.82285200  1
  N  N3  1  0.65914400  0.12200500  0.35503800  1
  N  N4  1  0.70068600  0.11203900  0.32285200  1
  N  N5  1  0.39220000  0.59085600  0.10503800  1
  N  N6  1  0.38223400  0.54931400  0.07285200  1
  N  N7  1  0.12799500  0.38894900  0.60503800  1
  N  N8  1  0.13796100  0.43049100  0.57285200  1
  N  N9  1  0.65914400  0.85780000  0.64496200  1
  N  N10  1  0.70068600  0.86776600  0.67714800  1
  N  N11  1  0.86105100  0.12200500  0.14496200  1
  N  N12  1  0.81950900  0.11203900  0.17714800  1
  N  N13  1  0.12799500  0.59085600  0.39496200  1
  N  N14  1  0.13796100  0.54931400  0.42714800  1
  N  N15  1  0.39220000  0.38894900  0.89496200  1
  N  N16  1  0.38223400  0.43049100  0.92714800  1
  N  N17  1  0.15914400  0.12200500  0.14496200  1
  N  N18  1  0.20068600  0.11203900  0.17714800  1
  N  N19  1  0.36105100  0.85780000  0.64496200  1
  N  N20  1  0.31950900  0.86776600  0.67714800  1
  N  N21  1  0.62799500  0.38894900  0.89496200  1
  N  N22  1  0.63796100  0.43049100  0.92714800  1
  N  N23  1  0.89220000  0.59085600  0.39496200  1
  N  N24  1  0.88223400  0.54931400  0.42714800  1
  N  N25  1  0.36105100  0.12200500  0.35503800  1
  N  N26  1  0.31950900  0.11203900  0.32285200  1
  N  N27  1  0.15914400  0.85780000  0.85503800  1
  N  N28  1  0.20068600  0.86776600  0.82285200  1
  N  N29  1  0.89220000  0.38894900  0.60503800  1
  N  N30  1  0.88223400  0.43049100  0.57285200  1
  N  N31  1  0.62799500  0.59085600  0.10503800  1
  N  N32  1  0.63796100  0.54931400  0.07285200  1
  O  O1  1  0.06237000  0.99797900  0.92836500  1
  O  O2  1  0.06237000  0.49797900  0.07163500  1
  O  O3  1  0.06237000  0.55575100  0.00878600  1
  O  O4  1  0.06237000  0.42405400  0.99121400  1
  O  O5  1  0.06237000  0.48182600  0.92836500  1
  O  O6  1  0.95782500  0.42405400  0.99121400  1
  O  O7  1  0.95782500  0.48182600  0.92836500  1
  O  O8  1  0.95782500  0.49797900  0.07163500  1
  O  O9  1  0.95782500  0.55575100  0.00878600  1
  O  O10  1  0.06237000  0.98182600  0.07163500  1
  O  O11  1  0.06237000  0.92405400  0.00878600  1
  O  O12  1  0.56237000  0.99797900  0.57163500  1
  O  O13  1  0.56237000  0.05575100  0.50878600  1
  O  O14  1  0.56237000  0.92405400  0.49121400  1
  O  O15  1  0.56237000  0.98182600  0.42836500  1
  O  O16  1  0.45782500  0.92405400  0.49121400  1
  O  O17  1  0.45782500  0.98182600  0.42836500  1
  O  O18  1  0.45782500  0.99797900  0.57163500  1
  O  O19  1  0.45782500  0.05575100  0.50878600  1
  O  O20  1  0.95782500  0.98182600  0.07163500  1
  O  O21  1  0.26817400  0.68763000  0.32163500  1
  O  O22  1  0.32594600  0.68763000  0.25878600  1
  O  O23  1  0.19424900  0.68763000  0.24121400  1
  O  O24  1  0.25202100  0.68763000  0.17836500  1
  O  O25  1  0.19424900  0.79217500  0.24121400  1
  O  O26  1  0.25202100  0.79217500  0.17836500  1
  O  O27  1  0.95782500  0.92405400  0.00878600  1
  O  O28  1  0.26817400  0.79217500  0.32163500  1
  O  O29  1  0.32594600  0.79217500  0.25878600  1
  O  O30  1  0.25202100  0.29217500  0.82163500  1
  O  O31  1  0.19424900  0.29217500  0.75878600  1
  O  O32  1  0.32594600  0.29217500  0.74121400  1
  O  O33  1  0.26817400  0.29217500  0.67836500  1
  O  O34  1  0.32594600  0.18763000  0.74121400  1
  O  O35  1  0.26817400  0.18763000  0.67836500  1
  O  O36  1  0.25202100  0.18763000  0.82163500  1
  O  O37  1  0.19424900  0.18763000  0.75878600  1
  O  O38  1  0.75202100  0.29217500  0.67836500  1
  O  O39  1  0.95782500  0.05575100  0.99121400  1
  O  O40  1  0.69424900  0.29217500  0.74121400  1
  O  O41  1  0.82594600  0.29217500  0.75878600  1
  O  O42  1  0.76817400  0.29217500  0.82163500  1
  O  O43  1  0.82594600  0.18763000  0.75878600  1
  O  O44  1  0.76817400  0.18763000  0.82163500  1
  O  O45  1  0.75202100  0.18763000  0.67836500  1
  O  O46  1  0.69424900  0.18763000  0.74121400  1
  O  O47  1  0.95782500  0.99797900  0.92836500  1
  O  O48  1  0.76817400  0.68763000  0.17836500  1
  O  O49  1  0.82594600  0.68763000  0.24121400  1
  O  O50  1  0.69424900  0.68763000  0.25878600  1
  O  O51  1  0.75202100  0.68763000  0.32163500  1
  O  O52  1  0.69424900  0.79217500  0.25878600  1
  O  O53  1  0.75202100  0.79217500  0.32163500  1
  O  O54  1  0.76817400  0.79217500  0.17836500  1
  O  O55  1  0.82594600  0.79217500  0.24121400  1
  O  O56  1  0.45782500  0.48182600  0.57163500  1
  O  O57  1  0.45782500  0.42405400  0.50878600  1
  O  O58  1  0.06237000  0.05575100  0.99121400  1
  O  O59  1  0.45782500  0.55575100  0.49121400  1
  O  O60  1  0.45782500  0.49797900  0.42836500  1
  O  O61  1  0.56237000  0.55575100  0.49121400  1
  O  O62  1  0.56237000  0.49797900  0.42836500  1
  O  O63  1  0.56237000  0.48182600  0.57163500  1
  O  O64  1  0.56237000  0.42405400  0.50878600  1
