# generated using pymatgen
data_CuH13C18ClO7
_symmetry_space_group_name_H-M   'P 1'
_cell_length_a   12.65800000
_cell_length_b   12.65800000
_cell_length_c   25.31610000
_cell_angle_alpha   90.00000000
_cell_angle_beta   90.00000000
_cell_angle_gamma   90.00000000
_symmetry_Int_Tables_number   1
_chemical_formula_structural   CuH13C18ClO7
_chemical_formula_sum   'Cu4 H52 C72 Cl4 O28'
_cell_volume   4056.27121112
_cell_formula_units_Z   4
loop_
 _symmetry_equiv_pos_site_id
 _symmetry_equiv_pos_as_xyz
  1  'x, y, z'
loop_
 _atom_site_type_symbol
 _atom_site_label
 _atom_site_symmetry_multiplicity
 _atom_site_fract_x
 _atom_site_fract_y
 _atom_site_fract_z
 _atom_site_occupancy
  Cu  Cu1  1  0.89511500  0.00000000  0.00000000  1
  Cu  Cu2  1  0.10488500  0.00000000  0.00000000  1
  Cu  Cu3  1  0.00000000  0.89511500  0.50000000  1
  Cu  Cu4  1  0.00000000  0.10488500  0.50000000  1
  H  H1  1  0.17653900  0.82289200  0.73331500  1
  H  H2  1  0.21805100  0.65317100  0.73749500  1
  H  H3  1  0.18479500  0.65714700  0.80493100  1
  H  H4  1  0.39085800  0.60914200  0.77749300  1
  H  H5  1  0.35452800  0.69431900  0.83322200  1
  H  H6  1  0.42279400  0.77012400  0.72707600  1
  H  H7  1  0.47564500  0.79971200  0.79026900  1
  H  H8  1  0.51236100  0.97267000  0.76060000  1
  H  H9  1  0.46358100  0.07316200  0.71761300  1
  H  H10  1  0.43090900  0.08568900  0.78128800  1
  H  H11  1  0.33285000  0.89805700  0.82045300  1
  H  H12  1  0.80862300  0.05929000  0.64169900  1
  H  H13  1  0.10011400  0.92355700  0.68669400  1
  H  H14  1  0.17710800  0.17653900  0.23331500  1
  H  H15  1  0.34682900  0.21805100  0.23749500  1
  H  H16  1  0.34285300  0.18479500  0.30493100  1
  H  H17  1  0.39085800  0.39085800  0.27749300  1
  H  H18  1  0.30568100  0.35452800  0.33322200  1
  H  H19  1  0.22987600  0.42279400  0.22707600  1
  H  H20  1  0.20028800  0.47564500  0.29026900  1
  H  H21  1  0.02733000  0.51236100  0.26060000  1
  H  H22  1  0.92683800  0.46358100  0.21761300  1
  H  H23  1  0.91431100  0.43090900  0.28128800  1
  H  H24  1  0.10194300  0.33285000  0.32045300  1
  H  H25  1  0.94071000  0.80862300  0.14169900  1
  H  H26  1  0.07644300  0.10011400  0.18669400  1
  H  H27  1  0.74993400  0.46663100  0.99979900  1
  H  H28  1  0.60057000  0.47499000  0.95447000  1
  H  H29  1  0.62689600  0.60986300  0.94411800  1
  H  H30  1  0.44724300  0.55498600  0.00000000  1
  H  H31  1  0.53316200  0.66644500  0.01727000  1
  H  H32  1  0.53849300  0.45415200  0.06820700  1
  H  H33  1  0.52204400  0.58053800  0.09735300  1
  H  H34  1  0.61838100  0.52120100  0.17148400  1
  H  H35  1  0.72393200  0.43522700  0.18976700  1
  H  H36  1  0.75589200  0.56257700  0.18264500  1
  H  H37  1  0.69255500  0.64090700  0.08163800  1
  H  H38  1  0.17724900  0.28339900  0.95330000  1
  H  H39  1  0.87515500  0.37338800  0.00836900  1
  H  H40  1  0.53336900  0.74993400  0.49979900  1
  H  H41  1  0.52501000  0.60057000  0.45447000  1
  H  H42  1  0.39013700  0.62689600  0.44411800  1
  H  H43  1  0.44501400  0.44724300  0.50000000  1
  H  H44  1  0.33355500  0.53316200  0.51727000  1
  H  H45  1  0.54584800  0.53849300  0.56820700  1
  H  H46  1  0.41946200  0.52204400  0.59735300  1
  H  H47  1  0.47879900  0.61838100  0.67148400  1
  H  H48  1  0.56477300  0.72393200  0.68976700  1
  H  H49  1  0.43742300  0.75589200  0.68264500  1
  H  H50  1  0.35909300  0.69255500  0.58163800  1
  H  H51  1  0.71660100  0.17724900  0.45330000  1
  H  H52  1  0.62661200  0.87515500  0.50836900  1
  C  C1  1  0.00000000  0.00000000  0.90038100  1
  C  C2  1  0.00000000  0.80076200  0.00000000  1
  C  C3  1  0.00000000  0.00000000  0.09961900  1
  C  C4  1  0.00000000  0.19923800  0.00000000  1
  C  C5  1  0.00000000  0.00000000  0.40038100  1
  C  C6  1  0.19923800  0.00000000  0.50000000  1
  C  C7  1  0.00000000  0.00000000  0.59961900  1
  C  C8  1  0.80076200  0.00000000  0.50000000  1
  C  C9  1  0.34880500  0.96187700  0.73952400  1
  C  C10  1  0.32014700  0.87197000  0.77762600  1
  C  C11  1  0.21294800  0.81822000  0.77030300  1
  C  C12  1  0.23371500  0.69500700  0.77402300  1
  C  C13  1  0.35192000  0.68450800  0.79049500  1
  C  C14  1  0.40218000  0.78339300  0.76887100  1
  C  C15  1  0.44537700  0.02644300  0.75299800  1
  C  C16  1  0.95767800  0.99376000  0.65863000  1
  C  C17  1  0.85782800  0.03057200  0.67423200  1
  C  C18  1  0.82513200  0.04456300  0.72634400  1
  C  C19  1  0.90174000  0.00867500  0.76407100  1
  C  C20  1  0.98363700  0.97652700  0.84173300  1
  C  C21  1  0.04268900  0.93178400  0.80081400  1
  C  C22  1  0.14020800  0.86048400  0.81209400  1
  C  C23  1  0.99855900  0.96034900  0.75051300  1
  C  C24  1  0.02108400  0.94816200  0.69668200  1
  C  C25  1  0.03812300  0.34880500  0.23952400  1
  C  C26  1  0.12803000  0.32014700  0.27762600  1
  C  C27  1  0.18178000  0.21294800  0.27030300  1
  C  C28  1  0.30499300  0.23371500  0.27402300  1
  C  C29  1  0.31549200  0.35192000  0.29049500  1
  C  C30  1  0.21660700  0.40218000  0.26887100  1
  C  C31  1  0.97355700  0.44537700  0.25299800  1
  C  C32  1  0.00624000  0.95767800  0.15863000  1
  C  C33  1  0.96942800  0.85782800  0.17423200  1
  C  C34  1  0.95543700  0.82513200  0.22634400  1
  C  C35  1  0.99132500  0.90174000  0.26407100  1
  C  C36  1  0.02347300  0.98363700  0.34173300  1
  C  C37  1  0.06821600  0.04268900  0.30081400  1
  C  C38  1  0.13951600  0.14020800  0.31209400  1
  C  C39  1  0.03965100  0.99855900  0.25051300  1
  C  C40  1  0.05183800  0.02108400  0.19668200  1
  C  C41  1  0.72640100  0.47904800  0.10984300  1
  C  C42  1  0.68309100  0.55525300  0.06792400  1
  C  C43  1  0.72088500  0.54060500  0.01101900  1
  C  C44  1  0.61907600  0.54804600  0.97480000  1
  C  C45  1  0.52806800  0.58098900  0.01287900  1
  C  C46  1  0.56245100  0.53774100  0.06561000  1
  C  C47  1  0.70376900  0.50599500  0.16681400  1
  C  C48  1  0.02551300  0.31726100  0.98283100  1
  C  C49  1  0.12214800  0.34846500  0.96054300  1
  C  C50  1  0.15516100  0.45268800  0.95393000  1
  C  C51  1  0.07561500  0.52814200  0.96832700  1
  C  C52  1  0.99497200  0.68346500  0.98591600  1
  C  C53  1  0.92157800  0.60162800  0.99097500  1
  C  C54  1  0.80220500  0.62418800  0.00024500  1
  C  C55  1  0.97298200  0.50102600  0.98547200  1
  C  C56  1  0.94843700  0.39336400  0.98912700  1
  C  C57  1  0.52095200  0.72640100  0.60984300  1
  C  C58  1  0.44474700  0.68309100  0.56792400  1
  C  C59  1  0.45939500  0.72088500  0.51101900  1
  C  C60  1  0.45195400  0.61907600  0.47480000  1
  C  C61  1  0.41901100  0.52806800  0.51287900  1
  C  C62  1  0.46225900  0.56245100  0.56561000  1
  C  C63  1  0.49400500  0.70376900  0.66681400  1
  C  C64  1  0.68273900  0.02551300  0.48283100  1
  C  C65  1  0.65153500  0.12214800  0.46054300  1
  C  C66  1  0.54731200  0.15516100  0.45393000  1
  C  C67  1  0.47185800  0.07561500  0.46832700  1
  C  C68  1  0.31653500  0.99497200  0.48591600  1
  C  C69  1  0.39837200  0.92157800  0.49097500  1
  C  C70  1  0.37581200  0.80220500  0.50024500  1
  C  C71  1  0.49897400  0.97298200  0.48547200  1
  C  C72  1  0.60663600  0.94843700  0.48912700  1
  Cl  Cl1  1  0.70325800  0.09026500  0.74326000  1
  Cl  Cl2  1  0.90973500  0.70325800  0.24326000  1
  Cl  Cl3  1  0.27365500  0.48651900  0.92699900  1
  Cl  Cl4  1  0.51348100  0.27365500  0.42699900  1
  O  O1  1  0.08346900  0.00000000  0.92447600  1
  O  O2  1  0.91653100  0.00000000  0.92447600  1
  O  O3  1  0.08346900  0.84895300  0.00000000  1
  O  O4  1  0.91653100  0.84895300  0.00000000  1
  O  O5  1  0.08346900  0.00000000  0.07552400  1
  O  O6  1  0.91653100  0.00000000  0.07552400  1
  O  O7  1  0.08346900  0.15104700  0.00000000  1
  O  O8  1  0.91653100  0.15104700  0.00000000  1
  O  O9  1  0.00000000  0.08346900  0.42447600  1
  O  O10  1  0.00000000  0.91653100  0.42447600  1
  O  O11  1  0.15104700  0.08346900  0.50000000  1
  O  O12  1  0.15104700  0.91653100  0.50000000  1
  O  O13  1  0.00000000  0.08346900  0.57552400  1
  O  O14  1  0.00000000  0.91653100  0.57552400  1
  O  O15  1  0.84895300  0.08346900  0.50000000  1
  O  O16  1  0.84895300  0.91653100  0.50000000  1
  O  O17  1  0.29965900  0.98366500  0.69831600  1
  O  O18  1  0.89456400  0.01423400  0.81735000  1
  O  O19  1  0.15579500  0.83538900  0.85830900  1
  O  O20  1  0.01633500  0.29965900  0.19831600  1
  O  O21  1  0.98576600  0.89456400  0.31735000  1
  O  O22  1  0.16461100  0.15579500  0.35830900  1
  O  O23  1  0.77655900  0.39663300  0.10017000  1
  O  O24  1  0.08461900  0.63470100  0.96775500  1
  O  O25  1  0.77343900  0.71661800  0.99688300  1
  O  O26  1  0.60336700  0.77655900  0.60017000  1
  O  O27  1  0.36529900  0.08461900  0.46775500  1
  O  O28  1  0.28338200  0.77343900  0.49688300  1
