# generated using pymatgen
data_CuH3C14Br(O3F)2
_symmetry_space_group_name_H-M   'P 1'
_cell_length_a   22.28000000
_cell_length_b   22.28000000
_cell_length_c   22.28000000
_cell_angle_alpha   90.00000000
_cell_angle_beta   90.00000000
_cell_angle_gamma   90.00000000
_symmetry_Int_Tables_number   1
_chemical_formula_structural   CuH3C14Br(O3F)2
_chemical_formula_sum   'Cu12 H36 C168 Br12 O72 F24'
_cell_volume   11059.75635200
_cell_formula_units_Z   12
loop_
 _symmetry_equiv_pos_site_id
 _symmetry_equiv_pos_as_xyz
  1  'x, y, z'
loop_
 _atom_site_type_symbol
 _atom_site_label
 _atom_site_symmetry_multiplicity
 _atom_site_fract_x
 _atom_site_fract_y
 _atom_site_fract_z
 _atom_site_occupancy
  Cu  Cu1  1  0.94041100  0.50000000  0.50000000  1
  Cu  Cu2  1  0.05958900  0.50000000  0.50000000  1
  Cu  Cu3  1  0.50000000  0.94041100  0.50000000  1
  Cu  Cu4  1  0.50000000  0.05958900  0.50000000  1
  Cu  Cu5  1  0.50000000  0.50000000  0.94041100  1
  Cu  Cu6  1  0.50000000  0.50000000  0.05958900  1
  Cu  Cu7  1  0.44041100  0.00000000  0.00000000  1
  Cu  Cu8  1  0.55958900  0.00000000  0.00000000  1
  Cu  Cu9  1  0.00000000  0.44041100  0.00000000  1
  Cu  Cu10  1  0.00000000  0.55958900  0.00000000  1
  Cu  Cu11  1  0.00000000  0.00000000  0.44041100  1
  Cu  Cu12  1  0.00000000  0.00000000  0.55958900  1
  H  H1  1  0.08224400  0.55873300  0.30513200  1
  H  H2  1  0.10254600  0.32709300  0.94955900  1
  H  H3  1  0.03159000  0.38897000  0.90063500  1
  H  H4  1  0.91775600  0.55873300  0.69486800  1
  H  H5  1  0.05044100  0.89745400  0.32709300  1
  H  H6  1  0.09936500  0.96841000  0.38897000  1
  H  H7  1  0.30513200  0.08224400  0.55873300  1
  H  H8  1  0.94955900  0.10254600  0.32709300  1
  H  H9  1  0.90063500  0.03159000  0.38897000  1
  H  H10  1  0.69486800  0.91775600  0.55873300  1
  H  H11  1  0.32709300  0.05044100  0.89745400  1
  H  H12  1  0.38897000  0.09936500  0.96841000  1
  H  H13  1  0.55873300  0.30513200  0.08224400  1
  H  H14  1  0.32709300  0.94955900  0.10254600  1
  H  H15  1  0.38897000  0.90063500  0.03159000  1
  H  H16  1  0.55873300  0.69486800  0.91775600  1
  H  H17  1  0.32709300  0.89745400  0.94955900  1
  H  H18  1  0.38897000  0.96841000  0.90063500  1
  H  H19  1  0.55873300  0.08224400  0.69486800  1
  H  H20  1  0.32709300  0.10254600  0.05044100  1
  H  H21  1  0.38897000  0.03159000  0.09936500  1
  H  H22  1  0.55873300  0.91775600  0.30513200  1
  H  H23  1  0.89745400  0.05044100  0.67290700  1
  H  H24  1  0.96841000  0.09936500  0.61103000  1
  H  H25  1  0.08224400  0.30513200  0.44126700  1
  H  H26  1  0.10254600  0.94955900  0.67290700  1
  H  H27  1  0.03159000  0.90063500  0.61103000  1
  H  H28  1  0.91775600  0.69486800  0.44126700  1
  H  H29  1  0.05044100  0.32709300  0.10254600  1
  H  H30  1  0.09936500  0.38897000  0.03159000  1
  H  H31  1  0.30513200  0.55873300  0.91775600  1
  H  H32  1  0.94955900  0.32709300  0.89745400  1
  H  H33  1  0.90063500  0.38897000  0.96841000  1
  H  H34  1  0.69486800  0.55873300  0.08224400  1
  H  H35  1  0.89745400  0.32709300  0.05044100  1
  H  H36  1  0.96841000  0.38897000  0.09936500  1
  C  C1  1  0.00610000  0.49608100  0.32109700  1
  C  C2  1  0.96075100  0.45506500  0.28100500  1
  C  C3  1  0.08684300  0.40624900  0.81972800  1
  C  C4  1  0.14084200  0.39135500  0.79421000  1
  C  C5  1  0.18385500  0.35960400  0.82681600  1
  C  C6  1  0.16794200  0.32963000  0.88062600  1
  C  C7  1  0.11127900  0.34194200  0.90464900  1
  C  C8  1  0.07268800  0.37999600  0.87467800  1
  C  C9  1  0.00000000  0.61319400  0.50000000  1
  C  C10  1  0.04350900  0.45344900  0.78917400  1
  C  C11  1  0.00175600  0.48795300  0.81723800  1
  C  C12  1  0.95867800  0.52427900  0.77840000  1
  C  C13  1  0.95490200  0.52844000  0.71039300  1
  C  C14  1  0.99390000  0.49608100  0.67890300  1
  C  C15  1  0.03924900  0.45506500  0.71899500  1
  C  C16  1  0.18027200  0.91315700  0.40624900  1
  C  C17  1  0.20579000  0.85915800  0.39135500  1
  C  C18  1  0.17318400  0.81614500  0.35960400  1
  C  C19  1  0.11937400  0.83205800  0.32963000  1
  C  C20  1  0.09535100  0.88872100  0.34194200  1
  C  C21  1  0.12532200  0.92731200  0.37999600  1
  C  C22  1  0.21082600  0.95649100  0.45344900  1
  C  C23  1  0.18276200  0.99824400  0.48795300  1
  C  C24  1  0.22160000  0.04132200  0.52427900  1
  C  C25  1  0.28960700  0.04509800  0.52844000  1
  C  C26  1  0.32109700  0.00610000  0.49608100  1
  C  C27  1  0.28100500  0.96075100  0.45506500  1
  C  C28  1  0.81972800  0.08684300  0.40624900  1
  C  C29  1  0.79421000  0.14084200  0.39135500  1
  C  C30  1  0.82681600  0.18385500  0.35960400  1
  C  C31  1  0.88062600  0.16794200  0.32963000  1
  C  C32  1  0.90464900  0.11127900  0.34194200  1
  C  C33  1  0.87467800  0.07268800  0.37999600  1
  C  C34  1  0.78917400  0.04350900  0.45344900  1
  C  C35  1  0.81723800  0.00175600  0.48795300  1
  C  C36  1  0.77840000  0.95867800  0.52427900  1
  C  C37  1  0.71039300  0.95490200  0.52844000  1
  C  C38  1  0.38680600  0.00000000  0.50000000  1
  C  C39  1  0.67890300  0.99390000  0.49608100  1
  C  C40  1  0.71899500  0.03924900  0.45506500  1
  C  C41  1  0.40624900  0.18027200  0.91315700  1
  C  C42  1  0.39135500  0.20579000  0.85915800  1
  C  C43  1  0.35960400  0.17318400  0.81614500  1
  C  C44  1  0.32963000  0.11937400  0.83205800  1
  C  C45  1  0.34194200  0.09535100  0.88872100  1
  C  C46  1  0.37999600  0.12532200  0.92731200  1
  C  C47  1  0.45344900  0.21082600  0.95649100  1
  C  C48  1  0.48795300  0.18276200  0.99824400  1
  C  C49  1  0.52427900  0.22160000  0.04132200  1
  C  C50  1  0.52844000  0.28960700  0.04509800  1
  C  C51  1  0.49608100  0.32109700  0.00610000  1
  C  C52  1  0.45506500  0.28100500  0.96075100  1
  C  C53  1  0.40624900  0.81972800  0.08684300  1
  C  C54  1  0.39135500  0.79421000  0.14084200  1
  C  C55  1  0.35960400  0.82681600  0.18385500  1
  C  C56  1  0.32963000  0.88062600  0.16794200  1
  C  C57  1  0.34194200  0.90464900  0.11127900  1
  C  C58  1  0.37999600  0.87467800  0.07268800  1
  C  C59  1  0.50000000  0.00000000  0.38680600  1
  C  C60  1  0.45344900  0.78917400  0.04350900  1
  C  C61  1  0.48795300  0.81723800  0.00175600  1
  C  C62  1  0.52427900  0.77840000  0.95867800  1
  C  C63  1  0.52844000  0.71039300  0.95490200  1
  C  C64  1  0.00000000  0.50000000  0.38680600  1
  C  C65  1  0.49608100  0.67890300  0.99390000  1
  C  C66  1  0.45506500  0.71899500  0.03924900  1
  C  C67  1  0.40624900  0.91315700  0.81972800  1
  C  C68  1  0.39135500  0.85915800  0.79421000  1
  C  C69  1  0.35960400  0.81614500  0.82681600  1
  C  C70  1  0.32963000  0.83205800  0.88062600  1
  C  C71  1  0.34194200  0.88872100  0.90464900  1
  C  C72  1  0.37999600  0.92731200  0.87467800  1
  C  C73  1  0.45344900  0.95649100  0.78917400  1
  C  C74  1  0.48795300  0.99824400  0.81723800  1
  C  C75  1  0.52427900  0.04132200  0.77840000  1
  C  C76  1  0.52844000  0.04509800  0.71039300  1
  C  C77  1  0.61319400  0.00000000  0.50000000  1
  C  C78  1  0.49608100  0.00610000  0.67890300  1
  C  C79  1  0.45506500  0.96075100  0.71899500  1
  C  C80  1  0.40624900  0.08684300  0.18027200  1
  C  C81  1  0.39135500  0.14084200  0.20579000  1
  C  C82  1  0.35960400  0.18385500  0.17318400  1
  C  C83  1  0.32963000  0.16794200  0.11937400  1
  C  C84  1  0.34194200  0.11127900  0.09535100  1
  C  C85  1  0.37999600  0.07268800  0.12532200  1
  C  C86  1  0.45344900  0.04350900  0.21082600  1
  C  C87  1  0.48795300  0.00175600  0.18276200  1
  C  C88  1  0.52427900  0.95867800  0.22160000  1
  C  C89  1  0.52844000  0.95490200  0.28960700  1
  C  C90  1  0.49608100  0.99390000  0.32109700  1
  C  C91  1  0.45506500  0.03924900  0.28100500  1
  C  C92  1  0.91315700  0.18027200  0.59375100  1
  C  C93  1  0.85915800  0.20579000  0.60864500  1
  C  C94  1  0.81614500  0.17318400  0.64039600  1
  C  C95  1  0.83205800  0.11937400  0.67037000  1
  C  C96  1  0.88872100  0.09535100  0.65805800  1
  C  C97  1  0.92731200  0.12532200  0.62000400  1
  C  C98  1  0.50000000  0.00000000  0.61319400  1
  C  C99  1  0.95649100  0.21082600  0.54655100  1
  C  C100  1  0.99824400  0.18276200  0.51204700  1
  C  C101  1  0.04132200  0.22160000  0.47572100  1
  C  C102  1  0.04509800  0.28960700  0.47156000  1
  C  C103  1  0.00610000  0.32109700  0.50391900  1
  C  C104  1  0.96075100  0.28100500  0.54493500  1
  C  C105  1  0.08684300  0.81972800  0.59375100  1
  C  C106  1  0.14084200  0.79421000  0.60864500  1
  C  C107  1  0.18385500  0.82681600  0.64039600  1
  C  C108  1  0.16794200  0.88062600  0.67037000  1
  C  C109  1  0.11127900  0.90464900  0.65805800  1
  C  C110  1  0.07268800  0.87467800  0.62000400  1
  C  C111  1  0.04350900  0.78917400  0.54655100  1
  C  C112  1  0.00175600  0.81723800  0.51204700  1
  C  C113  1  0.95867800  0.77840000  0.47572100  1
  C  C114  1  0.95490200  0.71039300  0.47156000  1
  C  C115  1  0.99390000  0.67890300  0.50391900  1
  C  C116  1  0.03924900  0.71899500  0.54493500  1
  C  C117  1  0.18027200  0.40624900  0.08684300  1
  C  C118  1  0.20579000  0.39135500  0.14084200  1
  C  C119  1  0.17318400  0.35960400  0.18385500  1
  C  C120  1  0.11937400  0.32963000  0.16794200  1
  C  C121  1  0.09535100  0.34194200  0.11127900  1
  C  C122  1  0.12532200  0.37999600  0.07268800  1
  C  C123  1  0.21082600  0.45344900  0.04350900  1
  C  C124  1  0.18276200  0.48795300  0.00175600  1
  C  C125  1  0.22160000  0.52427900  0.95867800  1
  C  C126  1  0.28960700  0.52844000  0.95490200  1
  C  C127  1  0.50000000  0.38680600  0.00000000  1
  C  C128  1  0.32109700  0.49608100  0.99390000  1
  C  C129  1  0.28100500  0.45506500  0.03924900  1
  C  C130  1  0.81972800  0.40624900  0.91315700  1
  C  C131  1  0.79421000  0.39135500  0.85915800  1
  C  C132  1  0.82681600  0.35960400  0.81614500  1
  C  C133  1  0.88062600  0.32963000  0.83205800  1
  C  C134  1  0.90464900  0.34194200  0.88872100  1
  C  C135  1  0.87467800  0.37999600  0.92731200  1
  C  C136  1  0.78917400  0.45344900  0.95649100  1
  C  C137  1  0.81723800  0.48795300  0.99824400  1
  C  C138  1  0.77840000  0.52427900  0.04132200  1
  C  C139  1  0.71039300  0.52844000  0.04509800  1
  C  C140  1  0.67890300  0.49608100  0.00610000  1
  C  C141  1  0.71899500  0.45506500  0.96075100  1
  C  C142  1  0.38680600  0.50000000  0.00000000  1
  C  C143  1  0.50000000  0.61319400  0.00000000  1
  C  C144  1  0.61319400  0.50000000  0.00000000  1
  C  C145  1  0.50000000  0.00000000  0.88680600  1
  C  C146  1  0.50000000  0.88680600  0.00000000  1
  C  C147  1  0.00000000  0.38680600  0.50000000  1
  C  C148  1  0.50000000  0.00000000  0.11319400  1
  C  C149  1  0.50000000  0.11319400  0.00000000  1
  C  C150  1  0.88680600  0.50000000  0.00000000  1
  C  C151  1  0.00000000  0.50000000  0.88680600  1
  C  C152  1  0.11319400  0.50000000  0.00000000  1
  C  C153  1  0.00000000  0.50000000  0.11319400  1
  C  C154  1  0.00000000  0.88680600  0.50000000  1
  C  C155  1  0.88680600  0.00000000  0.50000000  1
  C  C156  1  0.00000000  0.11319400  0.50000000  1
  C  C157  1  0.00000000  0.50000000  0.61319400  1
  C  C158  1  0.11319400  0.00000000  0.50000000  1
  C  C159  1  0.91315700  0.40624900  0.18027200  1
  C  C160  1  0.85915800  0.39135500  0.20579000  1
  C  C161  1  0.81614500  0.35960400  0.17318400  1
  C  C162  1  0.83205800  0.32963000  0.11937400  1
  C  C163  1  0.88872100  0.34194200  0.09535100  1
  C  C164  1  0.92731200  0.37999600  0.12532200  1
  C  C165  1  0.95649100  0.45344900  0.21082600  1
  C  C166  1  0.99824400  0.48795300  0.18276200  1
  C  C167  1  0.04132200  0.52427900  0.22160000  1
  C  C168  1  0.04509800  0.52844000  0.28960700  1
  Br  Br1  1  0.22185800  0.27814200  0.92020200  1
  Br  Br2  1  0.07979800  0.77814200  0.27814200  1
  Br  Br3  1  0.92020200  0.22185800  0.27814200  1
  Br  Br4  1  0.27814200  0.07979800  0.77814200  1
  Br  Br5  1  0.27814200  0.92020200  0.22185800  1
  Br  Br6  1  0.27814200  0.77814200  0.92020200  1
  Br  Br7  1  0.27814200  0.22185800  0.07979800  1
  Br  Br8  1  0.77814200  0.07979800  0.72185800  1
  Br  Br9  1  0.22185800  0.92020200  0.72185800  1
  Br  Br10  1  0.07979800  0.27814200  0.22185800  1
  Br  Br11  1  0.92020200  0.27814200  0.77814200  1
  Br  Br12  1  0.77814200  0.27814200  0.07979800  1
  O  O1  1  0.95257900  0.50000000  0.58581500  1
  O  O2  1  0.93069900  0.41665000  0.30795100  1
  O  O3  1  0.91960400  0.55585700  0.80064600  1
  O  O4  1  0.04742100  0.58581500  0.50000000  1
  O  O5  1  0.06930100  0.41665000  0.69204900  1
  O  O6  1  0.95257900  0.58581500  0.50000000  1
  O  O7  1  0.19935400  0.08039600  0.55585700  1
  O  O8  1  0.30795100  0.93069900  0.41665000  1
  O  O9  1  0.80064600  0.91960400  0.55585700  1
  O  O10  1  0.69204900  0.06930100  0.41665000  1
  O  O11  1  0.41418500  0.04742100  0.50000000  1
  O  O12  1  0.55585700  0.19935400  0.08039600  1
  O  O13  1  0.41418500  0.95257900  0.50000000  1
  O  O14  1  0.41665000  0.30795100  0.93069900  1
  O  O15  1  0.55585700  0.80064600  0.91960400  1
  O  O16  1  0.50000000  0.04742100  0.41418500  1
  O  O17  1  0.41665000  0.69204900  0.06930100  1
  O  O18  1  0.50000000  0.95257900  0.41418500  1
  O  O19  1  0.55585700  0.08039600  0.80064600  1
  O  O20  1  0.41665000  0.93069900  0.69204900  1
  O  O21  1  0.58581500  0.04742100  0.50000000  1
  O  O22  1  0.55585700  0.91960400  0.19935400  1
  O  O23  1  0.58581500  0.95257900  0.50000000  1
  O  O24  1  0.41665000  0.06930100  0.30795100  1
  O  O25  1  0.08039600  0.19935400  0.44414300  1
  O  O26  1  0.50000000  0.04742100  0.58581500  1
  O  O27  1  0.93069900  0.30795100  0.58335000  1
  O  O28  1  0.50000000  0.95257900  0.58581500  1
  O  O29  1  0.91960400  0.80064600  0.44414300  1
  O  O30  1  0.06930100  0.69204900  0.58335000  1
  O  O31  1  0.19935400  0.55585700  0.91960400  1
  O  O32  1  0.04742100  0.50000000  0.41418500  1
  O  O33  1  0.30795100  0.41665000  0.06930100  1
  O  O34  1  0.50000000  0.41418500  0.04742100  1
  O  O35  1  0.80064600  0.55585700  0.08039600  1
  O  O36  1  0.50000000  0.41418500  0.95257900  1
  O  O37  1  0.69204900  0.41665000  0.93069900  1
  O  O38  1  0.41418500  0.50000000  0.04742100  1
  O  O39  1  0.41418500  0.50000000  0.95257900  1
  O  O40  1  0.50000000  0.58581500  0.04742100  1
  O  O41  1  0.50000000  0.58581500  0.95257900  1
  O  O42  1  0.95257900  0.50000000  0.41418500  1
  O  O43  1  0.58581500  0.50000000  0.04742100  1
  O  O44  1  0.58581500  0.50000000  0.95257900  1
  O  O45  1  0.54742100  0.00000000  0.91418500  1
  O  O46  1  0.45257900  0.00000000  0.91418500  1
  O  O47  1  0.54742100  0.91418500  0.00000000  1
  O  O48  1  0.45257900  0.91418500  0.00000000  1
  O  O49  1  0.54742100  0.00000000  0.08581500  1
  O  O50  1  0.45257900  0.00000000  0.08581500  1
  O  O51  1  0.54742100  0.08581500  0.00000000  1
  O  O52  1  0.45257900  0.08581500  0.00000000  1
  O  O53  1  0.91418500  0.54742100  0.00000000  1
  O  O54  1  0.04742100  0.41418500  0.50000000  1
  O  O55  1  0.91418500  0.45257900  0.00000000  1
  O  O56  1  0.00000000  0.54742100  0.91418500  1
  O  O57  1  0.00000000  0.45257900  0.91418500  1
  O  O58  1  0.08581500  0.54742100  0.00000000  1
  O  O59  1  0.08581500  0.45257900  0.00000000  1
  O  O60  1  0.00000000  0.54742100  0.08581500  1
  O  O61  1  0.00000000  0.45257900  0.08581500  1
  O  O62  1  0.95257900  0.41418500  0.50000000  1
  O  O63  1  0.00000000  0.91418500  0.54742100  1
  O  O64  1  0.00000000  0.91418500  0.45257900  1
  O  O65  1  0.91418500  0.00000000  0.54742100  1
  O  O66  1  0.91418500  0.00000000  0.45257900  1
  O  O67  1  0.00000000  0.08581500  0.54742100  1
  O  O68  1  0.00000000  0.08581500  0.45257900  1
  O  O69  1  0.08581500  0.00000000  0.54742100  1
  O  O70  1  0.08581500  0.00000000  0.45257900  1
  O  O71  1  0.04742100  0.50000000  0.58581500  1
  O  O72  1  0.08039600  0.55585700  0.19935400  1
  F  F1  1  0.23895800  0.34745500  0.80699600  1
  F  F2  1  0.16583500  0.42548600  0.75180400  1
  F  F3  1  0.19300400  0.76104200  0.34745500  1
  F  F4  1  0.24819600  0.83416500  0.42548600  1
  F  F5  1  0.80699600  0.23895800  0.34745500  1
  F  F6  1  0.75180400  0.16583500  0.42548600  1
  F  F7  1  0.34745500  0.19300400  0.76104200  1
  F  F8  1  0.42548600  0.24819600  0.83416500  1
  F  F9  1  0.34745500  0.80699600  0.23895800  1
  F  F10  1  0.42548600  0.75180400  0.16583500  1
  F  F11  1  0.34745500  0.76104200  0.80699600  1
  F  F12  1  0.42548600  0.83416500  0.75180400  1
  F  F13  1  0.34745500  0.23895800  0.19300400  1
  F  F14  1  0.42548600  0.16583500  0.24819600  1
  F  F15  1  0.76104200  0.19300400  0.65254500  1
  F  F16  1  0.83416500  0.24819600  0.57451400  1
  F  F17  1  0.23895800  0.80699600  0.65254500  1
  F  F18  1  0.16583500  0.75180400  0.57451400  1
  F  F19  1  0.19300400  0.34745500  0.23895800  1
  F  F20  1  0.24819600  0.42548600  0.16583500  1
  F  F21  1  0.80699600  0.34745500  0.76104200  1
  F  F22  1  0.75180400  0.42548600  0.83416500  1
  F  F23  1  0.76104200  0.34745500  0.19300400  1
  F  F24  1  0.83416500  0.42548600  0.24819600  1
