# generated using pymatgen
data_H11PdC17N2ClO5
_symmetry_space_group_name_H-M   'P 1'
_cell_length_a   22.70790000
_cell_length_b   22.70790000
_cell_length_c   18.54110000
_cell_angle_alpha   90.00000000
_cell_angle_beta   90.00000000
_cell_angle_gamma   120.00000000
_symmetry_Int_Tables_number   1
_chemical_formula_structural   H11PdC17N2ClO5
_chemical_formula_sum   'H66 Pd6 C102 N12 Cl6 O30'
_cell_volume   8279.80433827
_cell_formula_units_Z   6
loop_
 _symmetry_equiv_pos_site_id
 _symmetry_equiv_pos_as_xyz
  1  'x, y, z'
loop_
 _atom_site_type_symbol
 _atom_site_label
 _atom_site_symmetry_multiplicity
 _atom_site_fract_x
 _atom_site_fract_y
 _atom_site_fract_z
 _atom_site_occupancy
  H  H1  1  0.16404400  0.38968300  0.06062900  1
  H  H2  1  0.19957200  0.44249500  0.13578400  1
  H  H3  1  0.11092400  0.39610800  0.11888100  1
  H  H4  1  0.07767800  0.42753600  0.97915900  1
  H  H5  1  0.99222100  0.46437600  0.95646300  1
  H  H6  1  0.09726800  0.61944700  0.12734500  1
  H  H7  1  0.93309700  0.73713700  0.04673400  1
  H  H8  1  0.98713000  0.74013400  0.11901300  1
  H  H9  1  0.85270800  0.63228900  0.99283700  1
  H  H10  1  0.78277000  0.51612800  0.89878700  1
  H  H11  1  0.02060900  0.64441900  0.10441300  1
  H  H12  1  0.61031700  0.77436100  0.06062900  1
  H  H13  1  0.55750500  0.75707700  0.13578400  1
  H  H14  1  0.60389200  0.71481600  0.11888100  1
  H  H15  1  0.57246400  0.65014200  0.97915900  1
  H  H16  1  0.53562400  0.52784500  0.95646300  1
  H  H17  1  0.38055300  0.47782100  0.12734500  1
  H  H18  1  0.26286300  0.19596000  0.04673400  1
  H  H19  1  0.25986600  0.24699600  0.11901300  1
  H  H20  1  0.36771100  0.22041900  0.99283700  1
  H  H21  1  0.48387200  0.26664200  0.89878700  1
  H  H22  1  0.35558100  0.37619000  0.10441300  1
  H  H23  1  0.22563900  0.83595600  0.06062900  1
  H  H24  1  0.24292300  0.80042800  0.13578400  1
  H  H25  1  0.28518400  0.88907600  0.11888100  1
  H  H26  1  0.34985800  0.92232200  0.97915900  1
  H  H27  1  0.47215500  0.00777900  0.95646300  1
  H  H28  1  0.52217900  0.90273200  0.12734500  1
  H  H29  1  0.80404000  0.06690300  0.04673400  1
  H  H30  1  0.75300400  0.01287000  0.11901300  1
  H  H31  1  0.77958100  0.14729200  0.99283700  1
  H  H32  1  0.73335800  0.21723000  0.89878700  1
  H  H33  1  0.62381000  0.97939100  0.10441300  1
  H  H34  1  0.83595600  0.61031700  0.56062900  1
  H  H35  1  0.80042800  0.55750500  0.63578400  1
  H  H36  1  0.88907600  0.60389200  0.61888100  1
  H  H37  1  0.92232200  0.57246400  0.47915900  1
  H  H38  1  0.00777900  0.53562400  0.45646300  1
  H  H39  1  0.90273200  0.38055300  0.62734500  1
  H  H40  1  0.06690300  0.26286300  0.54673400  1
  H  H41  1  0.01287000  0.25986600  0.61901300  1
  H  H42  1  0.14729200  0.36771100  0.49283700  1
  H  H43  1  0.21723000  0.48387200  0.39878700  1
  H  H44  1  0.97939100  0.35558100  0.60441300  1
  H  H45  1  0.38968300  0.22563900  0.56062900  1
  H  H46  1  0.44249500  0.24292300  0.63578400  1
  H  H47  1  0.39610800  0.28518400  0.61888100  1
  H  H48  1  0.42753600  0.34985800  0.47915900  1
  H  H49  1  0.46437600  0.47215500  0.45646300  1
  H  H50  1  0.61944700  0.52217900  0.62734500  1
  H  H51  1  0.73713700  0.80404000  0.54673400  1
  H  H52  1  0.74013400  0.75300400  0.61901300  1
  H  H53  1  0.63228900  0.77958100  0.49283700  1
  H  H54  1  0.51612800  0.73335800  0.39878700  1
  H  H55  1  0.64441900  0.62381000  0.60441300  1
  H  H56  1  0.77436100  0.16404400  0.56062900  1
  H  H57  1  0.75707700  0.19957200  0.63578400  1
  H  H58  1  0.71481600  0.11092400  0.61888100  1
  H  H59  1  0.65014200  0.07767800  0.47915900  1
  H  H60  1  0.52784500  0.99222100  0.45646300  1
  H  H61  1  0.47782100  0.09726800  0.62734500  1
  H  H62  1  0.19596000  0.93309700  0.54673400  1
  H  H63  1  0.24699600  0.98713000  0.61901300  1
  H  H64  1  0.22041900  0.85270800  0.49283700  1
  H  H65  1  0.26664200  0.78277000  0.39878700  1
  H  H66  1  0.37619000  0.02060900  0.60441300  1
  Pd  Pd1  1  0.42650100  0.71211200  0.24937800  1
  Pd  Pd2  1  0.28560100  0.71211200  0.24937800  1
  Pd  Pd3  1  0.28701300  0.57403700  0.24638100  1
  Pd  Pd4  1  0.57349900  0.28788800  0.74937800  1
  Pd  Pd5  1  0.71439900  0.28788800  0.74937800  1
  Pd  Pd6  1  0.71298700  0.42596300  0.74638100  1
  C  C1  1  0.19818400  0.59909100  0.15044800  1
  C  C2  1  0.40089700  0.59909100  0.15044800  1
  C  C3  1  0.39767700  0.59986500  0.34946500  1
  C  C4  1  0.20217700  0.59986500  0.34946500  1
  C  C5  1  0.40022200  0.80045400  0.34592900  1
  C  C6  1  0.40082300  0.80165600  0.15424400  1
  C  C7  1  0.80181600  0.40090900  0.65044800  1
  C  C8  1  0.59910300  0.40090900  0.65044800  1
  C  C9  1  0.60232300  0.40013500  0.84946500  1
  C  C10  1  0.79782300  0.40013500  0.84946500  1
  C  C11  1  0.59977800  0.19954600  0.84592900  1
  C  C12  1  0.59917700  0.19834400  0.65424400  1
  C  C13  1  0.16234900  0.42657300  0.09610300  1
  C  C14  1  0.13173400  0.50429400  0.05647500  1
  C  C15  1  0.07728000  0.46895100  0.00570300  1
  C  C16  1  0.02800000  0.48960100  0.99783800  1
  C  C17  1  0.03096600  0.54232100  0.04569000  1
  C  C18  1  0.08591400  0.57441700  0.09421500  1
  C  C19  1  0.13854000  0.55763700  0.09872300  1
  C  C20  1  0.94256200  0.70541100  0.08610500  1
  C  C21  1  0.93950000  0.64574900  0.04842700  1
  C  C22  1  0.88868900  0.61289200  0.00085600  1
  C  C23  1  0.82558000  0.51134300  0.91509700  1
  C  C24  1  0.83889400  0.45741500  0.90194900  1
  C  C25  1  0.91764100  0.52905900  0.97779600  1
  C  C26  1  0.97559700  0.56605700  0.03230200  1
  C  C27  1  0.98058600  0.61967200  0.06335000  1
  C  C28  1  0.57342700  0.73577600  0.09610300  1
  C  C29  1  0.49570600  0.62744000  0.05647500  1
  C  C30  1  0.53104900  0.60832900  0.00570300  1
  C  C31  1  0.51039900  0.53839800  0.99783800  1
  C  C32  1  0.45767900  0.48864400  0.04569000  1
  C  C33  1  0.42558300  0.51149800  0.09421500  1
  C  C34  1  0.44236300  0.58090300  0.09872300  1
  C  C35  1  0.29458900  0.23715200  0.08610500  1
  C  C36  1  0.35425100  0.29375100  0.04842700  1
  C  C37  1  0.38710800  0.27579700  0.00085600  1
  C  C38  1  0.48865700  0.31423700  0.91509700  1
  C  C39  1  0.54258500  0.38148000  0.90194900  1
  C  C40  1  0.47094100  0.38858200  0.97779600  1
  C  C41  1  0.43394300  0.40954000  0.03230200  1
  C  C42  1  0.38032800  0.36091400  0.06335000  1
  C  C43  1  0.26422400  0.83765100  0.09610300  1
  C  C44  1  0.37256000  0.86826600  0.05647500  1
  C  C45  1  0.39167100  0.92272000  0.00570300  1
  C  C46  1  0.46160200  0.97200000  0.99783800  1
  C  C47  1  0.51135600  0.96903400  0.04569000  1
  C  C48  1  0.48850200  0.91408600  0.09421500  1
  C  C49  1  0.41909700  0.86146000  0.09872300  1
  C  C50  1  0.76284800  0.05743800  0.08610500  1
  C  C51  1  0.70624900  0.06050000  0.04842700  1
  C  C52  1  0.72420300  0.11131100  0.00085600  1
  C  C53  1  0.68576300  0.17442000  0.91509700  1
  C  C54  1  0.61852000  0.16110600  0.90194900  1
  C  C55  1  0.61141800  0.08235900  0.97779600  1
  C  C56  1  0.59046000  0.02440300  0.03230200  1
  C  C57  1  0.63908600  0.01941400  0.06335000  1
  C  C58  1  0.83765100  0.57342700  0.59610300  1
  C  C59  1  0.86826600  0.49570600  0.55647500  1
  C  C60  1  0.92272000  0.53104900  0.50570300  1
  C  C61  1  0.97200000  0.51039900  0.49783800  1
  C  C62  1  0.96903400  0.45767900  0.54569000  1
  C  C63  1  0.91408600  0.42558300  0.59421500  1
  C  C64  1  0.86146000  0.44236300  0.59872300  1
  C  C65  1  0.05743800  0.29458900  0.58610500  1
  C  C66  1  0.06050000  0.35425100  0.54842700  1
  C  C67  1  0.11131100  0.38710800  0.50085600  1
  C  C68  1  0.17442000  0.48865700  0.41509700  1
  C  C69  1  0.16110600  0.54258500  0.40194900  1
  C  C70  1  0.08235900  0.47094100  0.47779600  1
  C  C71  1  0.02440300  0.43394300  0.53230200  1
  C  C72  1  0.01941400  0.38032800  0.56335000  1
  C  C73  1  0.42657300  0.26422400  0.59610300  1
  C  C74  1  0.50429400  0.37256000  0.55647500  1
  C  C75  1  0.46895100  0.39167100  0.50570300  1
  C  C76  1  0.48960100  0.46160200  0.49783800  1
  C  C77  1  0.54232100  0.51135600  0.54569000  1
  C  C78  1  0.57441700  0.48850200  0.59421500  1
  C  C79  1  0.55763700  0.41909700  0.59872300  1
  C  C80  1  0.70541100  0.76284800  0.58610500  1
  C  C81  1  0.64574900  0.70624900  0.54842700  1
  C  C82  1  0.61289200  0.72420300  0.50085600  1
  C  C83  1  0.51134300  0.68576300  0.41509700  1
  C  C84  1  0.45741500  0.61852000  0.40194900  1
  C  C85  1  0.52905900  0.61141800  0.47779600  1
  C  C86  1  0.56605700  0.59046000  0.53230200  1
  C  C87  1  0.61967200  0.63908600  0.56335000  1
  C  C88  1  0.73577600  0.16234900  0.59610300  1
  C  C89  1  0.62744000  0.13173400  0.55647500  1
  C  C90  1  0.60832900  0.07728000  0.50570300  1
  C  C91  1  0.53839800  0.02800000  0.49783800  1
  C  C92  1  0.48864400  0.03096600  0.54569000  1
  C  C93  1  0.51149800  0.08591400  0.59421500  1
  C  C94  1  0.58090300  0.13854000  0.59872300  1
  C  C95  1  0.23715200  0.94256200  0.58610500  1
  C  C96  1  0.29375100  0.93950000  0.54842700  1
  C  C97  1  0.27579700  0.88868900  0.50085600  1
  C  C98  1  0.31423700  0.82558000  0.41509700  1
  C  C99  1  0.38148000  0.83889400  0.40194900  1
  C  C100  1  0.38858200  0.91764100  0.47779600  1
  C  C101  1  0.40954000  0.97559700  0.53230200  1
  C  C102  1  0.36091400  0.98058600  0.56335000  1
  N  N1  1  0.87507400  0.55119300  0.96325700  1
  N  N2  1  0.90155000  0.47557100  0.93775100  1
  N  N3  1  0.44880700  0.32388100  0.96325700  1
  N  N4  1  0.52442900  0.42597900  0.93775100  1
  N  N5  1  0.67611900  0.12492600  0.96325700  1
  N  N6  1  0.57402100  0.09845000  0.93775100  1
  N  N7  1  0.12492600  0.44880700  0.46325700  1
  N  N8  1  0.09845000  0.52442900  0.43775100  1
  N  N9  1  0.55119300  0.67611900  0.46325700  1
  N  N10  1  0.47557100  0.57402100  0.43775100  1
  N  N11  1  0.32388100  0.87507400  0.46325700  1
  N  N12  1  0.42597900  0.90155000  0.43775100  1
  Cl  Cl1  1  0.87709600  0.66965700  0.15773800  1
  Cl  Cl2  1  0.33034300  0.20743900  0.15773800  1
  Cl  Cl3  1  0.79256100  0.12290400  0.15773800  1
  Cl  Cl4  1  0.12290400  0.33034300  0.65773800  1
  Cl  Cl5  1  0.66965700  0.79256100  0.65773800  1
  Cl  Cl6  1  0.20743900  0.87709600  0.65773800  1
  O  O1  1  0.22025100  0.56119600  0.16898200  1
  O  O2  1  0.21799900  0.65811000  0.17278900  1
  O  O3  1  0.34093600  0.56119600  0.16898200  1
  O  O4  1  0.44010200  0.65811000  0.17278900  1
  O  O5  1  0.43862700  0.65822900  0.32717500  1
  O  O6  1  0.33979700  0.56223400  0.32493000  1
  O  O7  1  0.21959200  0.65822900  0.32717500  1
  O  O8  1  0.22242600  0.56223400  0.32493000  1
  O  O9  1  0.43834700  0.77889300  0.32564600  1
  O  O10  1  0.34053600  0.77889300  0.32564600  1
  O  O11  1  0.43868000  0.77965100  0.17364500  1
  O  O12  1  0.34096100  0.77965100  0.17364500  1
  O  O13  1  0.77974900  0.43880400  0.66898200  1
  O  O14  1  0.78200100  0.34189000  0.67278900  1
  O  O15  1  0.65906400  0.43880400  0.66898200  1
  O  O16  1  0.55989800  0.34189000  0.67278900  1
  O  O17  1  0.56137300  0.34177100  0.82717500  1
  O  O18  1  0.66020300  0.43776600  0.82493000  1
  O  O19  1  0.78040800  0.34177100  0.82717500  1
  O  O20  1  0.77757400  0.43776600  0.82493000  1
  O  O21  1  0.56165300  0.22110700  0.82564600  1
  O  O22  1  0.65946400  0.22110700  0.82564600  1
  O  O23  1  0.56132000  0.22034900  0.67364500  1
  O  O24  1  0.65903900  0.22034900  0.67364500  1
  O  O25  1  0.18100300  0.48740300  0.05433300  1
  O  O26  1  0.51259700  0.69360000  0.05433300  1
  O  O27  1  0.30640000  0.81899700  0.05433300  1
  O  O28  1  0.81899700  0.51259700  0.55433300  1
  O  O29  1  0.48740300  0.30640000  0.55433300  1
  O  O30  1  0.69360000  0.18100300  0.55433300  1
