# Generated by REPEAT Assigner based on pymatgen
data_DB13-hxg-Syn033191
_audit_creation_date              2022-05-24
_audit_creation_method            REPEAT_Assigner
_cell_length_a                    20.605000
_cell_length_b                    20.605000
_cell_length_c                    20.605000
_cell_angle_alpha                 90.000000
_cell_angle_beta                  90.000000
_cell_angle_gamma                 90.000000
_cell_volume                      8748.182945
_symmetry_space_group_name_H-M    P1
_symmetry_Int_Tables_number       1
loop_
    _symmetry_equiv_pos_site_id
    _symmetry_equiv_pos_as_xyz
    1  x,y,z
loop_
    _atom_site_type_symbol
    _atom_site_label
    _atom_site_fract_x
    _atom_site_fract_y
    _atom_site_fract_z
    _atom_type_partial_charge
    C   C1    0.849715  0.502183  0.352515  0.656380
    C   C2    0.150285  0.497817  0.647485  0.656609
    C   C3    0.000938  0.647072  0.348883  0.732949
    C   C4    0.999064  0.352929  0.651119  0.733711
    C   C5    0.852717  0.349597  0.498136  0.962157
    C   C6    0.147281  0.650402  0.501862  0.962404
    C   C7    0.770570  0.902621  0.355932  -0.570572
    C   C8    0.778470  0.832759  0.344044  0.649534
    C   C9    0.792424  0.790774  0.397792  -0.459203
    C   C10   0.787047  0.815142  0.461545  0.121587
    C   C11   0.777103  0.881488  0.469540  -0.041841
    C   C12   0.768789  0.924677  0.418157  0.104837
    C   C13   0.819417  0.748968  0.272530  0.434471
    C   C14   0.820608  0.736594  0.200706  0.165167
    C   C15   0.847441  0.672391  0.178367  -0.160737
    C   C16   0.849715  0.997817  0.147485  1.009369
    C   C17   0.762198  0.951415  0.305048  0.516673
    C   C18   0.712149  0.000015  0.306582  -0.333802
    C   C19   0.714869  0.055386  0.267255  -0.148970
    C   C20   0.762594  0.054275  0.218060  0.034761
    C   C21   0.805200  0.001126  0.207724  -0.397711
    C   C22   0.802416  0.950637  0.250229  -0.077537
    C   C23   0.729430  0.597379  0.355932  -0.514196
    C   C24   0.721530  0.667241  0.344044  0.652083
    C   C25   0.707576  0.709226  0.397792  -0.535334
    C   C26   0.712953  0.684858  0.461545  0.180172
    C   C27   0.722897  0.618512  0.469540  -0.091573
    C   C28   0.731211  0.575323  0.418157  0.133200
    C   C29   0.680583  0.751032  0.272530  0.271491
    C   C30   0.679392  0.763406  0.200706  0.184578
    C   C31   0.652559  0.827609  0.178367  -0.405913
    C   C32   0.150285  0.002183  0.852515  1.009627
    C   C33   0.737802  0.548585  0.305048  0.410755
    C   C34   0.787851  0.499985  0.306582  -0.338758
    C   C35   0.785131  0.444614  0.267255  -0.221940
    C   C36   0.737406  0.445725  0.218060  0.257867
    C   C37   0.694800  0.498874  0.207724  -0.483496
    C   C38   0.697584  0.549363  0.250229  -0.007240
    C   C39   0.355932  0.770570  0.902621  -0.592237
    C   C40   0.344044  0.778470  0.832759  0.664685
    C   C41   0.397792  0.792424  0.790774  -0.462497
    C   C42   0.461545  0.787047  0.815142  0.120037
    C   C43   0.469540  0.777103  0.881488  -0.034721
    C   C44   0.418157  0.768789  0.924677  0.117406
    C   C45   0.272530  0.819417  0.748968  0.424033
    C   C46   0.200706  0.820608  0.736594  0.199323
    C   C47   0.178367  0.847441  0.672391  -0.183007
    C   C48   0.000938  0.852928  0.151117  1.013952
    C   C49   0.305048  0.762198  0.951415  0.531394
    C   C50   0.306582  0.712149  0.000015  -0.354168
    C   C51   0.267255  0.714869  0.055386  -0.139640
    C   C52   0.218060  0.762594  0.054275  0.047715
    C   C53   0.207724  0.805200  0.001126  -0.435829
    C   C54   0.250229  0.802416  0.950637  -0.048558
    C   C55   0.355932  0.729430  0.597379  -0.553597
    C   C56   0.344044  0.721530  0.667241  0.670676
    C   C57   0.397792  0.707576  0.709226  -0.534443
    C   C58   0.461545  0.712953  0.684858  0.182104
    C   C59   0.469540  0.722897  0.618512  -0.089394
    C   C60   0.418157  0.731211  0.575323  0.153796
    C   C61   0.272530  0.680583  0.751032  0.268092
    C   C62   0.200706  0.679392  0.763406  0.182572
    C   C63   0.178367  0.652559  0.827609  -0.424506
    C   C64   0.999064  0.147071  0.848881  1.014718
    C   C65   0.305048  0.737802  0.548585  0.441294
    C   C66   0.306582  0.787851  0.499985  -0.382232
    C   C67   0.267255  0.785131  0.444614  -0.195830
    C   C68   0.218060  0.737406  0.445725  0.275184
    C   C69   0.207724  0.694800  0.498874  -0.529649
    C   C70   0.250229  0.697584  0.549363  0.012268
    C   C71   0.902621  0.355932  0.770570  -0.597399
    C   C72   0.832759  0.344044  0.778470  0.662050
    C   C73   0.790774  0.397792  0.792424  -0.462352
    C   C74   0.815142  0.461545  0.787047  0.115795
    C   C75   0.881488  0.469540  0.777103  -0.038701
    C   C76   0.924677  0.418157  0.768789  0.127027
    C   C77   0.748968  0.272530  0.819417  0.444011
    C   C78   0.736594  0.200706  0.820608  0.157420
    C   C79   0.672391  0.178367  0.847441  -0.166385
    C   C80   0.852717  0.150403  0.001864  0.993833
    C   C81   0.951415  0.305048  0.762198  0.520051
    C   C82   0.000015  0.306582  0.712149  -0.336198
    C   C83   0.055386  0.267255  0.714869  -0.168763
    C   C84   0.054275  0.218060  0.762594  0.069389
    C   C85   0.001126  0.207724  0.805200  -0.446903
    C   C86   0.950637  0.250229  0.802416  -0.042052
    C   C87   0.597379  0.355932  0.729430  -0.554196
    C   C88   0.667241  0.344044  0.721530  0.669688
    C   C89   0.709226  0.397792  0.707576  -0.538963
    C   C90   0.684858  0.461545  0.712953  0.180973
    C   C91   0.618512  0.469540  0.722897  -0.096346
    C   C92   0.575323  0.418157  0.731211  0.160862
    C   C93   0.751032  0.272530  0.680583  0.251435
    C   C94   0.763406  0.200706  0.679392  0.192329
    C   C95   0.827609  0.178367  0.652559  -0.404397
    C   C96   0.147281  0.849598  0.998138  0.994156
    C   C97   0.548585  0.305048  0.737802  0.432361
    C   C98   0.499985  0.306582  0.787851  -0.368643
    C   C99   0.444614  0.267255  0.785131  -0.212363
    C   C100  0.445725  0.218060  0.737406  0.271044
    C   C101  0.498874  0.207724  0.694800  -0.515300
    C   C102  0.549363  0.250229  0.697584  0.007070
    C   C103  0.229430  0.097379  0.644068  -0.570912
    C   C104  0.221530  0.167241  0.655956  0.649756
    C   C105  0.207576  0.209226  0.602208  -0.459338
    C   C106  0.212953  0.184858  0.538455  0.121673
    C   C107  0.222897  0.118512  0.530460  -0.041962
    C   C108  0.231211  0.075323  0.581843  0.105052
    C   C109  0.180583  0.251032  0.727470  0.434819
    C   C110  0.179392  0.263406  0.799294  0.165097
    C   C111  0.152559  0.327609  0.821633  -0.160780
    C   C112  0.237802  0.048585  0.694952  0.517044
    C   C113  0.287851  0.999985  0.693418  -0.334063
    C   C114  0.285131  0.944614  0.732745  -0.148794
    C   C115  0.237406  0.945725  0.781940  0.034640
    C   C116  0.194800  0.998874  0.792276  -0.397489
    C   C117  0.197584  0.049363  0.749771  -0.077795
    C   C118  0.270570  0.402621  0.644068  -0.514243
    C   C119  0.278470  0.332759  0.655956  0.652066
    C   C120  0.292424  0.290774  0.602208  -0.535374
    C   C121  0.287047  0.315142  0.538455  0.180238
    C   C122  0.277103  0.381488  0.530460  -0.091643
    C   C123  0.268789  0.424677  0.581843  0.133245
    C   C124  0.319417  0.248968  0.727470  0.271367
    C   C125  0.320608  0.236594  0.799294  0.184095
    C   C126  0.347441  0.172391  0.821633  -0.405369
    C   C127  0.262198  0.451415  0.694952  0.410979
    C   C128  0.212149  0.500015  0.693418  -0.338948
    C   C129  0.214869  0.555386  0.732745  -0.221758
    C   C130  0.262594  0.554275  0.781940  0.257795
    C   C131  0.305200  0.501126  0.792276  -0.483264
    C   C132  0.302416  0.450637  0.749771  -0.007566
    C   C133  0.644068  0.229430  0.097379  -0.592008
    C   C134  0.655956  0.221530  0.167241  0.664380
    C   C135  0.602208  0.207576  0.209226  -0.462341
    C   C136  0.538455  0.212953  0.184858  0.120002
    C   C137  0.530460  0.222897  0.118512  -0.034683
    C   C138  0.581843  0.231211  0.075323  0.117322
    C   C139  0.727470  0.180583  0.251032  0.423730
    C   C140  0.799294  0.179392  0.263406  0.199322
    C   C141  0.821633  0.152559  0.327609  -0.182984
    C   C142  0.694952  0.237802  0.048585  0.530854
    C   C143  0.693418  0.287851  0.999985  -0.353325
    C   C144  0.732745  0.285131  0.944614  -0.139888
    C   C145  0.781940  0.237406  0.945725  0.047471
    C   C146  0.792276  0.194800  0.998874  -0.435381
    C   C147  0.749771  0.197584  0.049363  -0.048608
    C   C148  0.644068  0.270570  0.402621  -0.553426
    C   C149  0.655956  0.278470  0.332759  0.670509
    C   C150  0.602208  0.292424  0.290774  -0.534393
    C   C151  0.538455  0.287047  0.315142  0.182103
    C   C152  0.530460  0.277103  0.381488  -0.089381
    C   C153  0.581843  0.268789  0.424677  0.153776
    C   C154  0.727470  0.319417  0.248968  0.267899
    C   C155  0.799294  0.320608  0.236594  0.182610
    C   C156  0.821633  0.347441  0.172391  -0.424117
    C   C157  0.694952  0.262198  0.451415  0.440804
    C   C158  0.693418  0.212149  0.500015  -0.381487
    C   C159  0.732745  0.214869  0.555386  -0.196011
    C   C160  0.781940  0.262594  0.554275  0.274989
    C   C161  0.792276  0.305200  0.501126  -0.529217
    C   C162  0.749771  0.302416  0.450637  0.012198
    C   C163  0.097379  0.644068  0.229430  -0.597003
    C   C164  0.167241  0.655956  0.221530  0.661831
    C   C165  0.209226  0.602208  0.207576  -0.462356
    C   C166  0.184858  0.538455  0.212953  0.115819
    C   C167  0.118512  0.530460  0.222897  -0.038654
    C   C168  0.075323  0.581843  0.231211  0.126751
    C   C169  0.251032  0.727470  0.180583  0.444165
    C   C170  0.263406  0.799294  0.179392  0.157393
    C   C171  0.327609  0.821633  0.152559  -0.166512
    C   C172  0.650285  0.502183  0.147485  0.939187
    C   C173  0.048585  0.694952  0.237802  0.519502
    C   C174  0.999985  0.693418  0.287851  -0.335384
    C   C175  0.944614  0.732745  0.285131  -0.169084
    C   C176  0.945725  0.781940  0.237406  0.069270
    C   C177  0.998874  0.792276  0.194800  -0.446593
    C   C178  0.049363  0.749771  0.197584  -0.042038
    C   C179  0.402621  0.644068  0.270570  -0.553727
    C   C180  0.332759  0.655956  0.278470  0.669410
    C   C181  0.290774  0.602208  0.292424  -0.538888
    C   C182  0.315142  0.538455  0.287047  0.180963
    C   C183  0.381488  0.530460  0.277103  -0.096261
    C   C184  0.424677  0.581843  0.268789  0.160497
    C   C185  0.248968  0.727470  0.319417  0.251146
    C   C186  0.236594  0.799294  0.320608  0.191935
    C   C187  0.172391  0.821633  0.347441  -0.404114
    C   C188  0.349715  0.497817  0.852515  0.939549
    C   C189  0.451415  0.694952  0.262198  0.431926
    C   C190  0.500015  0.693418  0.212149  -0.368107
    C   C191  0.555386  0.732745  0.214869  -0.212539
    C   C192  0.554275  0.781940  0.262594  0.270911
    C   C193  0.501126  0.792276  0.305200  -0.514987
    C   C194  0.450637  0.749771  0.302416  0.007030
    C   C195  0.499062  0.647072  0.151117  0.742302
    C   C196  0.500936  0.352929  0.848881  0.743077
    C   C197  0.647283  0.349597  0.001864  0.714940
    C   C198  0.352719  0.650402  0.998138  0.714946
    C   C199  0.650285  0.997817  0.352515  0.693352
    C   C200  0.349715  0.002183  0.647485  0.693758
    C   C201  0.499062  0.852928  0.348883  0.959950
    C   C202  0.500936  0.147071  0.651119  0.960454
    C   C203  0.647283  0.150403  0.498136  0.727266
    C   C204  0.352719  0.849598  0.501862  0.727302
    Cl  Cl1   0.773474  0.913673  0.548506  -0.178725
    Cl  Cl2   0.726526  0.586327  0.548506  -0.188759
    Cl  Cl3   0.548506  0.773474  0.913673  -0.182714
    Cl  Cl4   0.548506  0.726526  0.586327  -0.188461
    Cl  Cl5   0.913673  0.548506  0.773474  -0.174686
    Cl  Cl6   0.586327  0.548506  0.726526  -0.180028
    Cl  Cl7   0.226526  0.086327  0.451494  -0.178700
    Cl  Cl8   0.273474  0.413673  0.451494  -0.188742
    Cl  Cl9   0.451494  0.226526  0.086327  -0.182716
    Cl  Cl10  0.451494  0.273474  0.413673  -0.188468
    Cl  Cl11  0.086327  0.451494  0.226526  -0.174685
    Cl  Cl12  0.413673  0.451494  0.273474  -0.180035
    H   H1    0.801666  0.736226  0.395378  0.150512
    H   H2    0.788529  0.786825  0.502316  0.005326
    H   H3    0.764369  0.977504  0.427885  0.073862
    H   H4    0.870000  0.754524  0.288954  -0.073097
    H   H5    0.792029  0.706948  0.295158  -0.122491
    H   H6    0.770712  0.741988  0.178855  -0.011571
    H   H7    0.845949  0.777435  0.178410  -0.065127
    H   H8    0.810672  0.636757  0.189328  0.009519
    H   H9    0.853302  0.672839  0.125641  0.018330
    H   H10   0.891257  0.649502  0.201294  0.034406
    H   H11   0.683729  0.097524  0.275002  0.132245
    H   H12   0.767142  0.100111  0.194076  0.101807
    H   H13   0.842686  0.915089  0.251492  0.043167
    H   H14   0.698334  0.763774  0.395378  0.137801
    H   H15   0.711471  0.713175  0.502316  0.125721
    H   H16   0.735631  0.522496  0.427885  0.061152
    H   H17   0.630000  0.745476  0.288954  -0.007151
    H   H18   0.707971  0.793052  0.295158  -0.027166
    H   H19   0.729288  0.758012  0.178855  0.027136
    H   H20   0.654051  0.722565  0.178410  -0.049706
    H   H21   0.689328  0.863243  0.189328  0.085372
    H   H22   0.646698  0.827161  0.125641  0.104320
    H   H23   0.608743  0.850498  0.201294  0.069786
    H   H24   0.816271  0.402476  0.275002  0.218111
    H   H25   0.732858  0.399889  0.194076  -0.010176
    H   H26   0.657314  0.584911  0.251492  0.040801
    H   H27   0.395378  0.801666  0.736226  0.155410
    H   H28   0.502316  0.788529  0.786825  0.010956
    H   H29   0.427885  0.764369  0.977504  0.065081
    H   H30   0.288954  0.870000  0.754524  -0.079020
    H   H31   0.295158  0.792029  0.706948  -0.120294
    H   H32   0.178855  0.770712  0.741988  -0.025406
    H   H33   0.178410  0.845949  0.777435  -0.071569
    H   H34   0.189328  0.810672  0.636757  0.011680
    H   H35   0.125641  0.853302  0.672839  0.024613
    H   H36   0.201294  0.891257  0.649502  0.039317
    H   H37   0.275002  0.683729  0.097524  0.125975
    H   H38   0.194076  0.767142  0.100111  0.102392
    H   H39   0.251492  0.842686  0.915089  0.039232
    H   H40   0.395378  0.698334  0.763774  0.142294
    H   H41   0.502316  0.711471  0.713175  0.123132
    H   H42   0.427885  0.735631  0.522496  0.052949
    H   H43   0.288954  0.630000  0.745476  -0.008568
    H   H44   0.295158  0.707971  0.793052  -0.027021
    H   H45   0.178855  0.729288  0.758012  0.038735
    H   H46   0.178410  0.654051  0.722565  -0.052961
    H   H47   0.189328  0.689328  0.863243  0.089966
    H   H48   0.125641  0.646698  0.827161  0.106638
    H   H49   0.201294  0.608743  0.850498  0.074128
    H   H50   0.275002  0.816271  0.402476  0.189047
    H   H51   0.194076  0.732858  0.399889  -0.016903
    H   H52   0.251492  0.657314  0.584911  0.045987
    H   H53   0.736226  0.395378  0.801666  0.157680
    H   H54   0.786825  0.502316  0.788529  0.006394
    H   H55   0.977504  0.427885  0.764369  0.066721
    H   H56   0.754524  0.288954  0.870000  -0.086905
    H   H57   0.706948  0.295158  0.792029  -0.121952
    H   H58   0.741988  0.178855  0.770712  -0.006732
    H   H59   0.777435  0.178410  0.845949  -0.060445
    H   H60   0.636757  0.189328  0.810672  0.010061
    H   H61   0.672839  0.125641  0.853302  0.022225
    H   H62   0.649502  0.201294  0.891257  0.035627
    H   H63   0.097524  0.275002  0.683729  0.129836
    H   H64   0.100111  0.194076  0.767142  0.086856
    H   H65   0.915089  0.251492  0.842686  0.036506
    H   H66   0.763774  0.395378  0.698334  0.143072
    H   H67   0.713175  0.502316  0.711471  0.125221
    H   H68   0.522496  0.427885  0.735631  0.056786
    H   H69   0.745476  0.288954  0.630000  -0.005748
    H   H70   0.793052  0.295158  0.707971  -0.019300
    H   H71   0.758012  0.178855  0.729288  0.022973
    H   H72   0.722565  0.178410  0.654051  -0.045537
    H   H73   0.863243  0.189328  0.689328  0.085473
    H   H74   0.827161  0.125641  0.646698  0.104572
    H   H75   0.850498  0.201294  0.608743  0.066264
    H   H76   0.402476  0.275002  0.816271  0.197143
    H   H77   0.399889  0.194076  0.732858  -0.017732
    H   H78   0.584911  0.251492  0.657314  0.044573
    H   H79   0.198334  0.263774  0.604622  0.150556
    H   H80   0.211471  0.213175  0.497684  0.005308
    H   H81   0.235631  0.022496  0.572115  0.073823
    H   H82   0.130000  0.245476  0.711046  -0.073490
    H   H83   0.207971  0.293052  0.704842  -0.122613
    H   H84   0.229288  0.258012  0.821145  -0.011576
    H   H85   0.154051  0.222565  0.821590  -0.065076
    H   H86   0.189328  0.363243  0.810672  0.009515
    H   H87   0.146698  0.327161  0.874359  0.018335
    H   H88   0.108743  0.350498  0.798706  0.034467
    H   H89   0.316271  0.902476  0.724998  0.132352
    H   H90   0.232858  0.899889  0.805924  0.101930
    H   H91   0.157314  0.084911  0.748508  0.043153
    H   H92   0.301666  0.236226  0.604622  0.137829
    H   H93   0.288529  0.286825  0.497684  0.125701
    H   H94   0.264369  0.477504  0.572115  0.061155
    H   H95   0.370000  0.254524  0.711046  -0.007087
    H   H96   0.292029  0.206948  0.704842  -0.027186
    H   H97   0.270712  0.241988  0.821145  0.027230
    H   H98   0.345949  0.277435  0.821590  -0.049578
    H   H99   0.310672  0.136757  0.810672  0.085212
    H   H100  0.353302  0.172839  0.874359  0.104227
    H   H101  0.391257  0.149502  0.798706  0.069596
    H   H102  0.183729  0.597524  0.724998  0.218218
    H   H103  0.267142  0.600111  0.805924  -0.010181
    H   H104  0.342686  0.415089  0.748508  0.040866
    H   H105  0.604622  0.198334  0.263774  0.155353
    H   H106  0.497684  0.211471  0.213175  0.010957
    H   H107  0.572115  0.235631  0.022496  0.065149
    H   H108  0.711046  0.130000  0.245476  -0.078776
    H   H109  0.704842  0.207971  0.293052  -0.120075
    H   H110  0.821145  0.229288  0.258012  -0.025360
    H   H111  0.821590  0.154051  0.222565  -0.071558
    H   H112  0.810672  0.189328  0.363243  0.011644
    H   H113  0.874359  0.146698  0.327161  0.024593
    H   H114  0.798706  0.108743  0.350498  0.039366
    H   H115  0.724998  0.316271  0.902476  0.125826
    H   H116  0.805924  0.232858  0.899889  0.102521
    H   H117  0.748508  0.157314  0.084911  0.039440
    H   H118  0.604622  0.301666  0.236226  0.142260
    H   H119  0.497684  0.288529  0.286825  0.123136
    H   H120  0.572115  0.264369  0.477504  0.052978
    H   H121  0.711046  0.370000  0.254524  -0.008493
    H   H122  0.704842  0.292029  0.206948  -0.026884
    H   H123  0.821145  0.270712  0.241988  0.038668
    H   H124  0.821590  0.345949  0.277435  -0.052932
    H   H125  0.810672  0.310672  0.136757  0.089780
    H   H126  0.874359  0.353302  0.172839  0.106546
    H   H127  0.798706  0.391257  0.149502  0.074095
    H   H128  0.724998  0.183729  0.597524  0.188977
    H   H129  0.805924  0.267142  0.600111  -0.016907
    H   H130  0.748508  0.342686  0.415089  0.046187
    H   H131  0.263774  0.604622  0.198334  0.157710
    H   H132  0.213175  0.497684  0.211471  0.006380
    H   H133  0.022496  0.572115  0.235631  0.066841
    H   H134  0.245476  0.711046  0.130000  -0.087181
    H   H135  0.293052  0.704842  0.207971  -0.121920
    H   H136  0.258012  0.821145  0.229288  -0.006769
    H   H137  0.222565  0.821590  0.154051  -0.060370
    H   H138  0.363243  0.810672  0.189328  0.010087
    H   H139  0.327161  0.874359  0.146698  0.022242
    H   H140  0.350498  0.798706  0.108743  0.035725
    H   H141  0.902476  0.724998  0.316271  0.129699
    H   H142  0.899889  0.805924  0.232858  0.086897
    H   H143  0.084911  0.748508  0.157314  0.036613
    H   H144  0.236226  0.604622  0.301666  0.143077
    H   H145  0.286825  0.497684  0.288529  0.125208
    H   H146  0.477504  0.572115  0.264369  0.056919
    H   H147  0.254524  0.711046  0.370000  -0.005656
    H   H148  0.206948  0.704842  0.292029  -0.019132
    H   H149  0.241988  0.821145  0.270712  0.023099
    H   H150  0.277435  0.821590  0.345949  -0.045422
    H   H151  0.136757  0.810672  0.310672  0.085380
    H   H152  0.172839  0.874359  0.353302  0.104513
    H   H153  0.149502  0.798706  0.391257  0.066187
    H   H154  0.597524  0.724998  0.183729  0.197129
    H   H155  0.600111  0.805924  0.267142  -0.017761
    H   H156  0.415089  0.748508  0.342686  0.044680
    O   O1    0.061263  0.959621  0.060983  -1.044330
    O   O2    0.061263  0.540379  0.439017  -1.007943
    O   O3    0.938736  0.459620  0.560981  -1.007918
    O   O4    0.908462  0.498097  0.332908  -0.544804
    O   O5    0.830784  0.501076  0.409523  -0.288701
    O   O6    0.091540  0.501904  0.667093  -0.544838
    O   O7    0.169217  0.498925  0.590478  -0.288744
    O   O8    0.997140  0.587794  0.331074  -0.369739
    O   O9    0.004352  0.665071  0.405802  -0.494688
    O   O10   0.938736  0.040380  0.939019  -1.044254
    O   O11   0.002859  0.412205  0.668924  -0.370010
    O   O12   0.995650  0.334930  0.594200  -0.494871
    O   O13   0.833915  0.408763  0.494201  -0.543857
    O   O14   0.910947  0.333146  0.502402  -0.607870
    O   O15   0.166083  0.591236  0.505797  -0.543787
    O   O16   0.089055  0.666854  0.497600  -0.607721
    O   O17   0.908462  0.001903  0.167092  -0.538948
    O   O18   0.783655  0.806922  0.281034  -0.483048
    O   O19   0.830784  0.998924  0.090477  -0.634496
    O   O20   0.091540  0.998096  0.832907  -0.538986
    O   O21   0.716345  0.693078  0.281034  -0.431108
    O   O22   0.169217  0.001075  0.909522  -0.634597
    O   O23   0.997140  0.912206  0.168926  -0.659312
    O   O24   0.281034  0.783655  0.806922  -0.493128
    O   O25   0.004352  0.834929  0.094198  -0.507243
    O   O26   0.002859  0.087795  0.831076  -0.659716
    O   O27   0.281034  0.716345  0.693078  -0.441954
    O   O28   0.995650  0.165070  0.905800  -0.507344
    O   O29   0.833915  0.091237  0.005799  -0.524102
    O   O30   0.806922  0.281034  0.783655  -0.493592
    O   O31   0.910947  0.166854  0.997598  -0.628624
    O   O32   0.166083  0.908764  0.994203  -0.524058
    O   O33   0.693078  0.281034  0.716345  -0.434443
    O   O34   0.089055  0.833146  0.002400  -0.628496
    O   O35   0.216345  0.193078  0.718966  -0.482993
    O   O36   0.283655  0.306922  0.718966  -0.431009
    O   O37   0.560101  0.559965  0.043854  -0.993861
    O   O38   0.718966  0.216345  0.193078  -0.492995
    O   O39   0.439897  0.440036  0.956144  -0.993800
    O   O40   0.539971  0.438202  0.059390  -1.008192
    O   O41   0.460027  0.561799  0.940608  -1.007825
    O   O42   0.718966  0.283655  0.306922  -0.441950
    O   O43   0.438737  0.540379  0.060983  -1.066498
    O   O44   0.561264  0.459620  0.939019  -1.066467
    O   O45   0.591538  0.498097  0.167092  -0.547943
    O   O46   0.193078  0.718966  0.216345  -0.493512
    O   O47   0.669216  0.501076  0.090477  -0.598781
    O   O48   0.408460  0.501904  0.832907  -0.548023
    O   O49   0.306922  0.718966  0.283655  -0.434344
    O   O50   0.330783  0.498925  0.909522  -0.598920
    O   O51   0.502860  0.587794  0.168926  -0.357370
    O   O52   0.495648  0.665071  0.094198  -0.545583
    O   O53   0.497141  0.412205  0.831076  -0.357728
    O   O54   0.504350  0.334930  0.905800  -0.545827
    O   O55   0.666085  0.408763  0.005799  -0.511671
    O   O56   0.589053  0.333146  0.997598  -0.332448
    O   O57   0.333917  0.591236  0.994203  -0.511627
    O   O58   0.410945  0.666854  0.002400  -0.332010
    O   O59   0.939899  0.940035  0.043854  -1.041812
    O   O60   0.560101  0.940035  0.456146  -1.010854
    O   O61   0.439897  0.059964  0.543856  -1.010805
    O   O62   0.539971  0.061798  0.440610  -1.056926
    O   O63   0.460027  0.938201  0.559392  -1.056606
    O   O64   0.060103  0.059964  0.956144  -1.041726
    O   O65   0.438737  0.959621  0.439017  -0.995365
    O   O66   0.561264  0.040380  0.560981  -0.995362
    O   O67   0.591538  0.001903  0.332908  -0.512687
    O   O68   0.669216  0.998924  0.409523  -0.320589
    O   O69   0.408460  0.998096  0.667093  -0.512793
    O   O70   0.330783  0.001075  0.590478  -0.320705
    O   O71   0.502860  0.912206  0.331074  -0.632502
    O   O72   0.495648  0.834929  0.405802  -0.525341
    O   O73   0.960029  0.061798  0.059390  -1.032572
    O   O74   0.497141  0.087795  0.668924  -0.632725
    O   O75   0.504350  0.165070  0.594200  -0.525318
    O   O76   0.666085  0.091237  0.494201  -0.557655
    O   O77   0.589053  0.166854  0.502402  -0.319902
    O   O78   0.333917  0.908764  0.505797  -0.557649
    O   O79   0.410945  0.833146  0.497600  -0.319455
    O   O80   0.039973  0.938201  0.940608  -1.032228
    O   O81   0.939899  0.559965  0.456146  -1.062949
    O   O82   0.060103  0.440036  0.543856  -1.062812
    O   O83   0.960029  0.438202  0.440610  -0.976782
    O   O84   0.039973  0.561799  0.559392  -0.976402
    Ti  Ti1   0.994646  0.994311  0.113159  1.468540
    Ti  Ti2   0.005352  0.005689  0.886842  1.468326
    Ti  Ti3   0.887257  0.006661  0.009011  1.443880
    Ti  Ti4   0.112745  0.993338  0.990988  1.443877
    Ti  Ti5   0.505354  0.505689  0.113159  1.399978
    Ti  Ti6   0.494648  0.494311  0.886842  1.399793
    Ti  Ti7   0.612743  0.493339  0.009011  1.449685
    Ti  Ti8   0.387255  0.506662  0.990988  1.449682
    Ti  Ti9   0.492500  0.613039  0.008765  1.382449
    Ti  Ti10  0.507498  0.386962  0.991233  1.382612
    Ti  Ti11  0.007500  0.886961  0.008765  1.433464
    Ti  Ti12  0.992502  0.113038  0.991233  1.433498
    Ti  Ti13  0.505354  0.994311  0.386841  1.472954
    Ti  Ti14  0.494648  0.005689  0.613158  1.472772
    Ti  Ti15  0.612743  0.006661  0.490989  1.380525
    Ti  Ti16  0.387255  0.993338  0.509012  1.380519
    Ti  Ti17  0.492500  0.886961  0.491235  1.371946
    Ti  Ti18  0.507498  0.113038  0.508767  1.372020
    Ti  Ti19  0.994646  0.505689  0.386841  1.400152
    Ti  Ti20  0.005352  0.494311  0.613158  1.399923
    Ti  Ti21  0.887257  0.493339  0.490989  1.367839
    Ti  Ti22  0.112745  0.506662  0.509012  1.367748
    Ti  Ti23  0.007500  0.613039  0.491235  1.439645
    Ti  Ti24  0.992502  0.386962  0.508767  1.439697
