# generated using pymatgen
data_CuH8C19SO8
_symmetry_space_group_name_H-M   'P 1'
_cell_length_a   22.76820000
_cell_length_b   22.76820000
_cell_length_c   22.76820000
_cell_angle_alpha   90.00000000
_cell_angle_beta   90.00000000
_cell_angle_gamma   90.00000000
_symmetry_Int_Tables_number   1
_chemical_formula_structural   CuH8C19SO8
_chemical_formula_sum   'Cu12 H96 C228 S12 O96'
_cell_volume   11802.82840066
_cell_formula_units_Z   12
loop_
 _symmetry_equiv_pos_site_id
 _symmetry_equiv_pos_as_xyz
  1  'x, y, z'
loop_
 _atom_site_type_symbol
 _atom_site_label
 _atom_site_symmetry_multiplicity
 _atom_site_fract_x
 _atom_site_fract_y
 _atom_site_fract_z
 _atom_site_occupancy
  Cu  Cu1  1  0.94168900  0.50000000  0.50000000  1
  Cu  Cu2  1  0.05831100  0.50000000  0.50000000  1
  Cu  Cu3  1  0.50000000  0.94168900  0.50000000  1
  Cu  Cu4  1  0.50000000  0.05831100  0.50000000  1
  Cu  Cu5  1  0.50000000  0.50000000  0.94168900  1
  Cu  Cu6  1  0.50000000  0.50000000  0.05831100  1
  Cu  Cu7  1  0.44168900  0.00000000  0.00000000  1
  Cu  Cu8  1  0.55831100  0.00000000  0.00000000  1
  Cu  Cu9  1  0.00000000  0.44168900  0.00000000  1
  Cu  Cu10  1  0.00000000  0.55831100  0.00000000  1
  Cu  Cu11  1  0.00000000  0.00000000  0.44168900  1
  Cu  Cu12  1  0.00000000  0.00000000  0.55831100  1
  H  H1  1  0.96204600  0.38267700  0.38061900  1
  H  H2  1  0.79435900  0.29435900  0.37198800  1
  H  H3  1  0.77497900  0.34638700  0.27907400  1
  H  H4  1  0.84041700  0.41921200  0.24124500  1
  H  H5  1  0.91814200  0.33961600  0.45978700  1
  H  H6  1  0.88557200  0.70983000  0.89745900  1
  H  H7  1  0.80638800  0.68521600  0.81256800  1
  H  H8  1  0.84187900  0.53202300  0.73725600  1
  H  H9  1  0.03795400  0.38267700  0.61938100  1
  H  H10  1  0.20564100  0.29435900  0.62801200  1
  H  H11  1  0.22502100  0.34638700  0.72092600  1
  H  H12  1  0.15958300  0.41921200  0.75875500  1
  H  H13  1  0.08185800  0.33961600  0.54021300  1
  H  H14  1  0.10254100  0.11442800  0.70983000  1
  H  H15  1  0.18743200  0.19361200  0.68521600  1
  H  H16  1  0.26274400  0.15812100  0.53202300  1
  H  H17  1  0.38061900  0.96204600  0.38267700  1
  H  H18  1  0.37198800  0.79435900  0.29435900  1
  H  H19  1  0.27907400  0.77497900  0.34638700  1
  H  H20  1  0.24124500  0.84041700  0.41921200  1
  H  H21  1  0.45978700  0.91814200  0.33961600  1
  H  H22  1  0.89745900  0.88557200  0.70983000  1
  H  H23  1  0.81256800  0.80638800  0.68521600  1
  H  H24  1  0.73725600  0.84187900  0.53202300  1
  H  H25  1  0.61938100  0.03795400  0.38267700  1
  H  H26  1  0.62801200  0.20564100  0.29435900  1
  H  H27  1  0.72092600  0.22502100  0.34638700  1
  H  H28  1  0.75875500  0.15958300  0.41921200  1
  H  H29  1  0.54021300  0.08185800  0.33961600  1
  H  H30  1  0.70983000  0.10254100  0.11442800  1
  H  H31  1  0.68521600  0.18743200  0.19361200  1
  H  H32  1  0.53202300  0.26274400  0.15812100  1
  H  H33  1  0.38267700  0.38061900  0.96204600  1
  H  H34  1  0.29435900  0.37198800  0.79435900  1
  H  H35  1  0.34638700  0.27907400  0.77497900  1
  H  H36  1  0.41921200  0.24124500  0.84041700  1
  H  H37  1  0.33961600  0.45978700  0.91814200  1
  H  H38  1  0.70983000  0.89745900  0.88557200  1
  H  H39  1  0.68521600  0.81256800  0.80638800  1
  H  H40  1  0.53202300  0.73725600  0.84187900  1
  H  H41  1  0.38267700  0.61938100  0.03795400  1
  H  H42  1  0.29435900  0.62801200  0.20564100  1
  H  H43  1  0.34638700  0.72092600  0.22502100  1
  H  H44  1  0.41921200  0.75875500  0.15958300  1
  H  H45  1  0.33961600  0.54021300  0.08185800  1
  H  H46  1  0.70983000  0.11442800  0.89745900  1
  H  H47  1  0.68521600  0.19361200  0.81256800  1
  H  H48  1  0.53202300  0.15812100  0.73725600  1
  H  H49  1  0.38267700  0.96204600  0.61938100  1
  H  H50  1  0.29435900  0.79435900  0.62801200  1
  H  H51  1  0.34638700  0.77497900  0.72092600  1
  H  H52  1  0.41921200  0.84041700  0.75875500  1
  H  H53  1  0.33961600  0.91814200  0.54021300  1
  H  H54  1  0.70983000  0.88557200  0.10254100  1
  H  H55  1  0.68521600  0.80638800  0.18743200  1
  H  H56  1  0.53202300  0.84187900  0.26274400  1
  H  H57  1  0.38267700  0.03795400  0.38061900  1
  H  H58  1  0.29435900  0.20564100  0.37198800  1
  H  H59  1  0.34638700  0.22502100  0.27907400  1
  H  H60  1  0.41921200  0.15958300  0.24124500  1
  H  H61  1  0.33961600  0.08185800  0.45978700  1
  H  H62  1  0.11442800  0.10254100  0.29017000  1
  H  H63  1  0.19361200  0.18743200  0.31478400  1
  H  H64  1  0.15812100  0.26274400  0.46797700  1
  H  H65  1  0.96204600  0.38061900  0.61732300  1
  H  H66  1  0.79435900  0.37198800  0.70564100  1
  H  H67  1  0.77497900  0.27907400  0.65361300  1
  H  H68  1  0.84041700  0.24124500  0.58078800  1
  H  H69  1  0.91814200  0.45978700  0.66038400  1
  H  H70  1  0.88557200  0.89745900  0.29017000  1
  H  H71  1  0.80638800  0.81256800  0.31478400  1
  H  H72  1  0.84187900  0.73725600  0.46797700  1
  H  H73  1  0.03795400  0.61938100  0.61732300  1
  H  H74  1  0.20564100  0.62801200  0.70564100  1
  H  H75  1  0.22502100  0.72092600  0.65361300  1
  H  H76  1  0.15958300  0.75875500  0.58078800  1
  H  H77  1  0.08185800  0.54021300  0.66038400  1
  H  H78  1  0.10254100  0.70983000  0.88557200  1
  H  H79  1  0.18743200  0.68521600  0.80638800  1
  H  H80  1  0.26274400  0.53202300  0.84187900  1
  H  H81  1  0.38061900  0.38267700  0.03795400  1
  H  H82  1  0.37198800  0.29435900  0.20564100  1
  H  H83  1  0.27907400  0.34638700  0.22502100  1
  H  H84  1  0.24124500  0.41921200  0.15958300  1
  H  H85  1  0.45978700  0.33961600  0.08185800  1
  H  H86  1  0.89745900  0.70983000  0.11442800  1
  H  H87  1  0.81256800  0.68521600  0.19361200  1
  H  H88  1  0.73725600  0.53202300  0.15812100  1
  H  H89  1  0.61938100  0.38267700  0.96204600  1
  H  H90  1  0.62801200  0.29435900  0.79435900  1
  H  H91  1  0.72092600  0.34638700  0.77497900  1
  H  H92  1  0.75875500  0.41921200  0.84041700  1
  H  H93  1  0.54021300  0.33961600  0.91814200  1
  H  H94  1  0.11442800  0.70983000  0.10254100  1
  H  H95  1  0.19361200  0.68521600  0.18743200  1
  H  H96  1  0.15812100  0.53202300  0.26274400  1
  C  C1  1  0.95184900  0.46188600  0.28734900  1
  C  C2  1  0.99234900  0.49382200  0.31725000  1
  C  C3  1  0.03647800  0.53156300  0.27947500  1
  C  C4  1  0.00000000  0.61076700  0.50000000  1
  C  C5  1  0.04003700  0.53752400  0.21149200  1
  C  C6  1  0.00163400  0.50252900  0.17926900  1
  C  C7  1  0.95545000  0.46674700  0.21722100  1
  C  C8  1  0.91950100  0.59082400  0.81304200  1
  C  C9  1  0.88474100  0.67503100  0.86617600  1
  C  C10  1  0.84530400  0.65966100  0.82350300  1
  C  C11  1  0.86519200  0.60775200  0.79495700  1
  C  C12  1  0.82199800  0.57335000  0.75392500  1
  C  C13  1  0.09377300  0.41569400  0.68533900  1
  C  C14  1  0.08040000  0.38185000  0.63666500  1
  C  C15  1  0.12204500  0.34058500  0.61394500  1
  C  C16  1  0.17356600  0.32669200  0.64275800  1
  C  C17  1  0.18388300  0.35529300  0.69582600  1
  C  C18  1  0.14498300  0.39743900  0.71774600  1
  C  C19  1  0.04815100  0.46188600  0.71265100  1
  C  C20  1  0.00765100  0.49382200  0.68275000  1
  C  C21  1  0.96352200  0.53156300  0.72052500  1
  C  C22  1  0.95996300  0.53752400  0.78850800  1
  C  C23  1  0.99836600  0.50252900  0.82073100  1
  C  C24  1  0.04455000  0.46674700  0.78277900  1
  C  C25  1  0.18695800  0.08049900  0.59082400  1
  C  C26  1  0.13382400  0.11525900  0.67503100  1
  C  C27  1  0.17649700  0.15469600  0.65966100  1
  C  C28  1  0.20504300  0.13480800  0.60775200  1
  C  C29  1  0.24607500  0.17800200  0.57335000  1
  C  C30  1  0.31466100  0.90622700  0.41569400  1
  C  C31  1  0.36333500  0.91960000  0.38185000  1
  C  C32  1  0.38605500  0.87795500  0.34058500  1
  C  C33  1  0.35724200  0.82643400  0.32669200  1
  C  C34  1  0.30417400  0.81611700  0.35529300  1
  C  C35  1  0.28225400  0.85501700  0.39743900  1
  C  C36  1  0.38923300  0.00000000  0.50000000  1
  C  C37  1  0.28734900  0.95184900  0.46188600  1
  C  C38  1  0.31725000  0.99234900  0.49382200  1
  C  C39  1  0.27947500  0.03647800  0.53156300  1
  C  C40  1  0.21149200  0.04003700  0.53752400  1
  C  C41  1  0.17926900  0.00163400  0.50252900  1
  C  C42  1  0.21722100  0.95545000  0.46674700  1
  C  C43  1  0.81304200  0.91950100  0.59082400  1
  C  C44  1  0.86617600  0.88474100  0.67503100  1
  C  C45  1  0.82350300  0.84530400  0.65966100  1
  C  C46  1  0.79495700  0.86519200  0.60775200  1
  C  C47  1  0.75392500  0.82199800  0.57335000  1
  C  C48  1  0.68533900  0.09377300  0.41569400  1
  C  C49  1  0.63666500  0.08040000  0.38185000  1
  C  C50  1  0.61394500  0.12204500  0.34058500  1
  C  C51  1  0.64275800  0.17356600  0.32669200  1
  C  C52  1  0.69582600  0.18388300  0.35529300  1
  C  C53  1  0.71774600  0.14498300  0.39743900  1
  C  C54  1  0.50000000  0.00000000  0.38923300  1
  C  C55  1  0.71265100  0.04815100  0.46188600  1
  C  C56  1  0.68275000  0.00765100  0.49382200  1
  C  C57  1  0.72052500  0.96352200  0.53156300  1
  C  C58  1  0.00000000  0.50000000  0.38923300  1
  C  C59  1  0.78850800  0.95996300  0.53752400  1
  C  C60  1  0.82073100  0.99836600  0.50252900  1
  C  C61  1  0.78277900  0.04455000  0.46674700  1
  C  C62  1  0.59082400  0.18695800  0.08049900  1
  C  C63  1  0.67503100  0.13382400  0.11525900  1
  C  C64  1  0.65966100  0.17649700  0.15469600  1
  C  C65  1  0.60775200  0.20504300  0.13480800  1
  C  C66  1  0.57335000  0.24607500  0.17800200  1
  C  C67  1  0.41569400  0.31466100  0.90622700  1
  C  C68  1  0.38185000  0.36333500  0.91960000  1
  C  C69  1  0.34058500  0.38605500  0.87795500  1
  C  C70  1  0.32669200  0.35724200  0.82643400  1
  C  C71  1  0.35529300  0.30417400  0.81611700  1
  C  C72  1  0.39743900  0.28225400  0.85501700  1
  C  C73  1  0.61076700  0.00000000  0.50000000  1
  C  C74  1  0.46188600  0.28734900  0.95184900  1
  C  C75  1  0.49382200  0.31725000  0.99234900  1
  C  C76  1  0.53156300  0.27947500  0.03647800  1
  C  C77  1  0.53752400  0.21149200  0.04003700  1
  C  C78  1  0.50252900  0.17926900  0.00163400  1
  C  C79  1  0.46674700  0.21722100  0.95545000  1
  C  C80  1  0.59082400  0.81304200  0.91950100  1
  C  C81  1  0.67503100  0.86617600  0.88474100  1
  C  C82  1  0.65966100  0.82350300  0.84530400  1
  C  C83  1  0.60775200  0.79495700  0.86519200  1
  C  C84  1  0.57335000  0.75392500  0.82199800  1
  C  C85  1  0.41569400  0.68533900  0.09377300  1
  C  C86  1  0.38185000  0.63666500  0.08040000  1
  C  C87  1  0.34058500  0.61394500  0.12204500  1
  C  C88  1  0.32669200  0.64275800  0.17356600  1
  C  C89  1  0.35529300  0.69582600  0.18388300  1
  C  C90  1  0.39743900  0.71774600  0.14498300  1
  C  C91  1  0.50000000  0.00000000  0.61076700  1
  C  C92  1  0.46188600  0.71265100  0.04815100  1
  C  C93  1  0.49382200  0.68275000  0.00765100  1
  C  C94  1  0.53156300  0.72052500  0.96352200  1
  C  C95  1  0.53752400  0.78850800  0.95996300  1
  C  C96  1  0.50252900  0.82073100  0.99836600  1
  C  C97  1  0.46674700  0.78277900  0.04455000  1
  C  C98  1  0.59082400  0.08049900  0.81304200  1
  C  C99  1  0.67503100  0.11525900  0.86617600  1
  C  C100  1  0.65966100  0.15469600  0.82350300  1
  C  C101  1  0.60775200  0.13480800  0.79495700  1
  C  C102  1  0.57335000  0.17800200  0.75392500  1
  C  C103  1  0.41569400  0.90622700  0.68533900  1
  C  C104  1  0.38185000  0.91960000  0.63666500  1
  C  C105  1  0.34058500  0.87795500  0.61394500  1
  C  C106  1  0.32669200  0.82643400  0.64275800  1
  C  C107  1  0.35529300  0.81611700  0.69582600  1
  C  C108  1  0.39743900  0.85501700  0.71774600  1
  C  C109  1  0.46188600  0.95184900  0.71265100  1
  C  C110  1  0.49382200  0.99234900  0.68275000  1
  C  C111  1  0.53156300  0.03647800  0.72052500  1
  C  C112  1  0.53752400  0.04003700  0.78850800  1
  C  C113  1  0.50252900  0.00163400  0.82073100  1
  C  C114  1  0.46674700  0.95545000  0.78277900  1
  C  C115  1  0.59082400  0.91950100  0.18695800  1
  C  C116  1  0.67503100  0.88474100  0.13382400  1
  C  C117  1  0.65966100  0.84530400  0.17649700  1
  C  C118  1  0.60775200  0.86519200  0.20504300  1
  C  C119  1  0.57335000  0.82199800  0.24607500  1
  C  C120  1  0.50000000  0.38923300  0.00000000  1
  C  C121  1  0.41569400  0.09377300  0.31466100  1
  C  C122  1  0.38185000  0.08040000  0.36333500  1
  C  C123  1  0.34058500  0.12204500  0.38605500  1
  C  C124  1  0.32669200  0.17356600  0.35724200  1
  C  C125  1  0.35529300  0.18388300  0.30417400  1
  C  C126  1  0.39743900  0.14498300  0.28225400  1
  C  C127  1  0.46188600  0.04815100  0.28734900  1
  C  C128  1  0.49382200  0.00765100  0.31725000  1
  C  C129  1  0.53156300  0.96352200  0.27947500  1
  C  C130  1  0.53752400  0.95996300  0.21149200  1
  C  C131  1  0.50252900  0.99836600  0.17926900  1
  C  C132  1  0.46674700  0.04455000  0.21722100  1
  C  C133  1  0.08049900  0.18695800  0.40917600  1
  C  C134  1  0.11525900  0.13382400  0.32496900  1
  C  C135  1  0.15469600  0.17649700  0.34033900  1
  C  C136  1  0.13480800  0.20504300  0.39224800  1
  C  C137  1  0.17800200  0.24607500  0.42665000  1
  C  C138  1  0.38923300  0.50000000  0.00000000  1
  C  C139  1  0.90622700  0.31466100  0.58430600  1
  C  C140  1  0.91960000  0.36333500  0.61815000  1
  C  C141  1  0.87795500  0.38605500  0.65941500  1
  C  C142  1  0.82643400  0.35724200  0.67330800  1
  C  C143  1  0.81611700  0.30417400  0.64470700  1
  C  C144  1  0.85501700  0.28225400  0.60256100  1
  C  C145  1  0.95184900  0.28734900  0.53811400  1
  C  C146  1  0.99234900  0.31725000  0.50617800  1
  C  C147  1  0.03647800  0.27947500  0.46843700  1
  C  C148  1  0.04003700  0.21149200  0.46247600  1
  C  C149  1  0.00163400  0.17926900  0.49747100  1
  C  C150  1  0.95545000  0.21722100  0.53325300  1
  C  C151  1  0.91950100  0.81304200  0.40917600  1
  C  C152  1  0.88474100  0.86617600  0.32496900  1
  C  C153  1  0.84530400  0.82350300  0.34033900  1
  C  C154  1  0.86519200  0.79495700  0.39224800  1
  C  C155  1  0.82199800  0.75392500  0.42665000  1
  C  C156  1  0.50000000  0.61076700  0.00000000  1
  C  C157  1  0.09377300  0.68533900  0.58430600  1
  C  C158  1  0.08040000  0.63666500  0.61815000  1
  C  C159  1  0.12204500  0.61394500  0.65941500  1
  C  C160  1  0.17356600  0.64275800  0.67330800  1
  C  C161  1  0.18388300  0.69582600  0.64470700  1
  C  C162  1  0.14498300  0.71774600  0.60256100  1
  C  C163  1  0.04815100  0.71265100  0.53811400  1
  C  C164  1  0.00765100  0.68275000  0.50617800  1
  C  C165  1  0.96352200  0.72052500  0.46843700  1
  C  C166  1  0.95996300  0.78850800  0.46247600  1
  C  C167  1  0.99836600  0.82073100  0.49747100  1
  C  C168  1  0.04455000  0.78277900  0.53325300  1
  C  C169  1  0.18695800  0.59082400  0.91950100  1
  C  C170  1  0.13382400  0.67503100  0.88474100  1
  C  C171  1  0.17649700  0.65966100  0.84530400  1
  C  C172  1  0.20504300  0.60775200  0.86519200  1
  C  C173  1  0.24607500  0.57335000  0.82199800  1
  C  C174  1  0.61076700  0.50000000  0.00000000  1
  C  C175  1  0.31466100  0.41569400  0.09377300  1
  C  C176  1  0.36333500  0.38185000  0.08040000  1
  C  C177  1  0.38605500  0.34058500  0.12204500  1
  C  C178  1  0.35724200  0.32669200  0.17356600  1
  C  C179  1  0.30417400  0.35529300  0.18388300  1
  C  C180  1  0.28225400  0.39743900  0.14498300  1
  C  C181  1  0.28734900  0.46188600  0.04815100  1
  C  C182  1  0.31725000  0.49382200  0.00765100  1
  C  C183  1  0.27947500  0.53156300  0.96352200  1
  C  C184  1  0.21149200  0.53752400  0.95996300  1
  C  C185  1  0.17926900  0.50252900  0.99836600  1
  C  C186  1  0.21722100  0.46674700  0.04455000  1
  C  C187  1  0.81304200  0.59082400  0.08049900  1
  C  C188  1  0.86617600  0.67503100  0.11525900  1
  C  C189  1  0.82350300  0.65966100  0.15469600  1
  C  C190  1  0.79495700  0.60775200  0.13480800  1
  C  C191  1  0.75392500  0.57335000  0.17800200  1
  C  C192  1  0.68533900  0.41569400  0.90622700  1
  C  C193  1  0.63666500  0.38185000  0.91960000  1
  C  C194  1  0.61394500  0.34058500  0.87795500  1
  C  C195  1  0.64275800  0.32669200  0.82643400  1
  C  C196  1  0.69582600  0.35529300  0.81611700  1
  C  C197  1  0.71774600  0.39743900  0.85501700  1
  C  C198  1  0.71265100  0.46188600  0.95184900  1
  C  C199  1  0.68275000  0.49382200  0.99234900  1
  C  C200  1  0.72052500  0.53156300  0.03647800  1
  C  C201  1  0.50000000  0.00000000  0.88923300  1
  C  C202  1  0.78850800  0.53752400  0.04003700  1
  C  C203  1  0.82073100  0.50252900  0.00163400  1
  C  C204  1  0.78277900  0.46674700  0.95545000  1
  C  C205  1  0.50000000  0.88923300  0.00000000  1
  C  C206  1  0.00000000  0.38923300  0.50000000  1
  C  C207  1  0.50000000  0.00000000  0.11076700  1
  C  C208  1  0.50000000  0.11076700  0.00000000  1
  C  C209  1  0.88923300  0.50000000  0.00000000  1
  C  C210  1  0.00000000  0.50000000  0.88923300  1
  C  C211  1  0.11076700  0.50000000  0.00000000  1
  C  C212  1  0.00000000  0.50000000  0.11076700  1
  C  C213  1  0.00000000  0.88923300  0.50000000  1
  C  C214  1  0.88923300  0.00000000  0.50000000  1
  C  C215  1  0.00000000  0.11076700  0.50000000  1
  C  C216  1  0.00000000  0.50000000  0.61076700  1
  C  C217  1  0.11076700  0.00000000  0.50000000  1
  C  C218  1  0.08049900  0.59082400  0.18695800  1
  C  C219  1  0.11525900  0.67503100  0.13382400  1
  C  C220  1  0.15469600  0.65966100  0.17649700  1
  C  C221  1  0.13480800  0.60775200  0.20504300  1
  C  C222  1  0.17800200  0.57335000  0.24607500  1
  C  C223  1  0.90622700  0.41569400  0.31466100  1
  C  C224  1  0.91960000  0.38185000  0.36333500  1
  C  C225  1  0.87795500  0.34058500  0.38605500  1
  C  C226  1  0.82643400  0.32669200  0.35724200  1
  C  C227  1  0.81611700  0.35529300  0.30417400  1
  C  C228  1  0.85501700  0.39743900  0.28225400  1
  S  S1  1  0.94809200  0.63591700  0.86513400  1
  S  S2  1  0.13486600  0.05190800  0.63591700  1
  S  S3  1  0.86513400  0.94809200  0.63591700  1
  S  S4  1  0.63591700  0.13486600  0.05190800  1
  S  S5  1  0.63591700  0.86513400  0.94809200  1
  S  S6  1  0.63591700  0.05190800  0.86513400  1
  S  S7  1  0.63591700  0.94809200  0.13486600  1
  S  S8  1  0.05190800  0.13486600  0.36408300  1
  S  S9  1  0.94809200  0.86513400  0.36408300  1
  S  S10  1  0.13486600  0.63591700  0.94809200  1
  S  S11  1  0.86513400  0.63591700  0.05190800  1
  S  S12  1  0.05190800  0.63591700  0.13486600  1
  O  O1  1  0.95359500  0.50000000  0.58397500  1
  O  O2  1  0.89262300  0.31196000  0.43446500  1
  O  O3  1  0.06468700  0.56537800  0.30953500  1
  O  O4  1  0.91686300  0.44299600  0.19144100  1
  O  O5  1  0.04640500  0.58397500  0.50000000  1
  O  O6  1  0.77358200  0.59670000  0.74828600  1
  O  O7  1  0.95359500  0.58397500  0.50000000  1
  O  O8  1  0.10737700  0.31196000  0.56553500  1
  O  O9  1  0.93531300  0.56537800  0.69046500  1
  O  O10  1  0.08313700  0.44299600  0.80855900  1
  O  O11  1  0.25171400  0.22641800  0.59670000  1
  O  O12  1  0.43446500  0.89262300  0.31196000  1
  O  O13  1  0.30953500  0.06468700  0.56537800  1
  O  O14  1  0.41602500  0.04640500  0.50000000  1
  O  O15  1  0.19144100  0.91686300  0.44299600  1
  O  O16  1  0.41602500  0.95359500  0.50000000  1
  O  O17  1  0.74828600  0.77358200  0.59670000  1
  O  O18  1  0.56553500  0.10737700  0.31196000  1
  O  O19  1  0.69046500  0.93531300  0.56537800  1
  O  O20  1  0.50000000  0.04640500  0.41602500  1
  O  O21  1  0.80855900  0.08313700  0.44299600  1
  O  O22  1  0.50000000  0.95359500  0.41602500  1
  O  O23  1  0.59670000  0.25171400  0.22641800  1
  O  O24  1  0.31196000  0.43446500  0.89262300  1
  O  O25  1  0.56537800  0.30953500  0.06468700  1
  O  O26  1  0.58397500  0.04640500  0.50000000  1
  O  O27  1  0.44299600  0.19144100  0.91686300  1
  O  O28  1  0.58397500  0.95359500  0.50000000  1
  O  O29  1  0.59670000  0.74828600  0.77358200  1
  O  O30  1  0.31196000  0.56553500  0.10737700  1
  O  O31  1  0.56537800  0.69046500  0.93531300  1
  O  O32  1  0.50000000  0.04640500  0.58397500  1
  O  O33  1  0.44299600  0.80855900  0.08313700  1
  O  O34  1  0.50000000  0.95359500  0.58397500  1
  O  O35  1  0.59670000  0.22641800  0.74828600  1
  O  O36  1  0.31196000  0.89262300  0.56553500  1
  O  O37  1  0.56537800  0.06468700  0.69046500  1
  O  O38  1  0.44299600  0.91686300  0.80855900  1
  O  O39  1  0.04640500  0.50000000  0.41602500  1
  O  O40  1  0.59670000  0.77358200  0.25171400  1
  O  O41  1  0.50000000  0.41602500  0.04640500  1
  O  O42  1  0.31196000  0.10737700  0.43446500  1
  O  O43  1  0.56537800  0.93531300  0.30953500  1
  O  O44  1  0.50000000  0.41602500  0.95359500  1
  O  O45  1  0.44299600  0.08313700  0.19144100  1
  O  O46  1  0.22641800  0.25171400  0.40330000  1
  O  O47  1  0.41602500  0.50000000  0.04640500  1
  O  O48  1  0.89262300  0.43446500  0.68804000  1
  O  O49  1  0.06468700  0.30953500  0.43462200  1
  O  O50  1  0.41602500  0.50000000  0.95359500  1
  O  O51  1  0.91686300  0.19144100  0.55700400  1
  O  O52  1  0.77358200  0.74828600  0.40330000  1
  O  O53  1  0.50000000  0.58397500  0.04640500  1
  O  O54  1  0.10737700  0.56553500  0.68804000  1
  O  O55  1  0.93531300  0.69046500  0.43462200  1
  O  O56  1  0.50000000  0.58397500  0.95359500  1
  O  O57  1  0.08313700  0.80855900  0.55700400  1
  O  O58  1  0.25171400  0.59670000  0.77358200  1
  O  O59  1  0.95359500  0.50000000  0.41602500  1
  O  O60  1  0.58397500  0.50000000  0.04640500  1
  O  O61  1  0.43446500  0.31196000  0.10737700  1
  O  O62  1  0.30953500  0.56537800  0.93531300  1
  O  O63  1  0.58397500  0.50000000  0.95359500  1
  O  O64  1  0.19144100  0.44299600  0.08313700  1
  O  O65  1  0.74828600  0.59670000  0.22641800  1
  O  O66  1  0.56553500  0.31196000  0.89262300  1
  O  O67  1  0.69046500  0.56537800  0.06468700  1
  O  O68  1  0.80855900  0.44299600  0.91686300  1
  O  O69  1  0.54640500  0.00000000  0.91602500  1
  O  O70  1  0.45359500  0.00000000  0.91602500  1
  O  O71  1  0.54640500  0.91602500  0.00000000  1
  O  O72  1  0.45359500  0.91602500  0.00000000  1
  O  O73  1  0.54640500  0.00000000  0.08397500  1
  O  O74  1  0.45359500  0.00000000  0.08397500  1
  O  O75  1  0.54640500  0.08397500  0.00000000  1
  O  O76  1  0.45359500  0.08397500  0.00000000  1
  O  O77  1  0.91602500  0.54640500  0.00000000  1
  O  O78  1  0.04640500  0.41602500  0.50000000  1
  O  O79  1  0.91602500  0.45359500  0.00000000  1
  O  O80  1  0.00000000  0.54640500  0.91602500  1
  O  O81  1  0.00000000  0.45359500  0.91602500  1
  O  O82  1  0.08397500  0.54640500  0.00000000  1
  O  O83  1  0.08397500  0.45359500  0.00000000  1
  O  O84  1  0.00000000  0.54640500  0.08397500  1
  O  O85  1  0.00000000  0.45359500  0.08397500  1
  O  O86  1  0.95359500  0.41602500  0.50000000  1
  O  O87  1  0.00000000  0.91602500  0.54640500  1
  O  O88  1  0.00000000  0.91602500  0.45359500  1
  O  O89  1  0.91602500  0.00000000  0.54640500  1
  O  O90  1  0.91602500  0.00000000  0.45359500  1
  O  O91  1  0.00000000  0.08397500  0.54640500  1
  O  O92  1  0.00000000  0.08397500  0.45359500  1
  O  O93  1  0.08397500  0.00000000  0.54640500  1
  O  O94  1  0.08397500  0.00000000  0.45359500  1
  O  O95  1  0.04640500  0.50000000  0.58397500  1
  O  O96  1  0.22641800  0.59670000  0.25171400  1
