# generated using pymatgen
data_Ti2H6C12NClO6
_symmetry_space_group_name_H-M   'P 1'
_cell_length_a   23.69840000
_cell_length_b   23.69840000
_cell_length_c   23.69840000
_cell_angle_alpha   90.00000000
_cell_angle_beta   90.00000000
_cell_angle_gamma   90.00000000
_symmetry_Int_Tables_number   1
_chemical_formula_structural   Ti2H6C12NClO6
_chemical_formula_sum   'Ti24 H72 C144 N12 Cl12 O72'
_cell_volume   13309.35707001
_cell_formula_units_Z   12
loop_
 _symmetry_equiv_pos_site_id
 _symmetry_equiv_pos_as_xyz
  1  'x, y, z'
loop_
 _atom_site_type_symbol
 _atom_site_label
 _atom_site_symmetry_multiplicity
 _atom_site_fract_x
 _atom_site_fract_y
 _atom_site_fract_z
 _atom_site_occupancy
  Ti  Ti1  1  0.99534500  0.99505400  0.09838800  1
  Ti  Ti2  1  0.00465400  0.00494700  0.90161300  1
  Ti  Ti3  1  0.90197400  0.00579200  0.00783500  1
  Ti  Ti4  1  0.09802800  0.99420800  0.99216400  1
  Ti  Ti5  1  0.00652100  0.90171600  0.00762100  1
  Ti  Ti6  1  0.99348100  0.09828300  0.99237800  1
  Ti  Ti7  1  0.50465500  0.50494600  0.09838800  1
  Ti  Ti8  1  0.49534600  0.49505300  0.90161300  1
  Ti  Ti9  1  0.59802600  0.49420800  0.00783500  1
  Ti  Ti10  1  0.40197200  0.50579200  0.99216400  1
  Ti  Ti11  1  0.49347900  0.59828400  0.00762100  1
  Ti  Ti12  1  0.50651900  0.40171700  0.99237800  1
  Ti  Ti13  1  0.50465500  0.99505400  0.40161200  1
  Ti  Ti14  1  0.49534600  0.00494700  0.59838700  1
  Ti  Ti15  1  0.59802600  0.00579200  0.49216500  1
  Ti  Ti16  1  0.40197200  0.99420800  0.50783600  1
  Ti  Ti17  1  0.49347900  0.90171600  0.49237900  1
  Ti  Ti18  1  0.50651900  0.09828300  0.50762200  1
  Ti  Ti19  1  0.99534500  0.50494600  0.40161200  1
  Ti  Ti20  1  0.00465400  0.49505300  0.59838700  1
  Ti  Ti21  1  0.90197400  0.49420800  0.49216500  1
  Ti  Ti22  1  0.09802800  0.50579200  0.50783600  1
  Ti  Ti23  1  0.00652100  0.59828400  0.49237900  1
  Ti  Ti24  1  0.99348100  0.40171700  0.50762200  1
  H  H1  1  0.65935800  0.89658100  0.33012200  1
  H  H2  1  0.78024300  0.84656400  0.25728900  1
  H  H3  1  0.71558700  0.82824700  0.28441300  1
  H  H4  1  0.71938800  0.84422000  0.21186000  1
  H  H5  1  0.80508100  0.92197400  0.17585400  1
  H  H6  1  0.69239800  0.07411100  0.30594300  1
  H  H7  1  0.84064200  0.60341900  0.33012200  1
  H  H8  1  0.71975700  0.65343600  0.25728900  1
  H  H9  1  0.78441300  0.67175300  0.28441300  1
  H  H10  1  0.78061200  0.65578000  0.21186000  1
  H  H11  1  0.69491900  0.57802600  0.17585400  1
  H  H12  1  0.80760200  0.42588900  0.30594300  1
  H  H13  1  0.33012200  0.65935800  0.89658100  1
  H  H14  1  0.25728900  0.78024300  0.84656400  1
  H  H15  1  0.28441300  0.71558700  0.82824700  1
  H  H16  1  0.21186000  0.71938800  0.84422000  1
  H  H17  1  0.17585400  0.80508100  0.92197400  1
  H  H18  1  0.30594300  0.69239800  0.07411100  1
  H  H19  1  0.33012200  0.84064200  0.60341900  1
  H  H20  1  0.25728900  0.71975700  0.65343600  1
  H  H21  1  0.28441300  0.78441300  0.67175300  1
  H  H22  1  0.21186000  0.78061200  0.65578000  1
  H  H23  1  0.17585400  0.69491900  0.57802600  1
  H  H24  1  0.30594300  0.80760200  0.42588900  1
  H  H25  1  0.89658100  0.33012200  0.65935800  1
  H  H26  1  0.84656400  0.25728900  0.78024300  1
  H  H27  1  0.82824700  0.28441300  0.71558700  1
  H  H28  1  0.84422000  0.21186000  0.71938800  1
  H  H29  1  0.92197400  0.17585400  0.80508100  1
  H  H30  1  0.07411100  0.30594300  0.69239800  1
  H  H31  1  0.60341900  0.33012200  0.84064200  1
  H  H32  1  0.65343600  0.25728900  0.71975700  1
  H  H33  1  0.67175300  0.28441300  0.78441300  1
  H  H34  1  0.65578000  0.21186000  0.78061200  1
  H  H35  1  0.57802600  0.17585400  0.69491900  1
  H  H36  1  0.42588900  0.30594300  0.80760200  1
  H  H37  1  0.34064200  0.10341900  0.66987800  1
  H  H38  1  0.21975700  0.15343600  0.74271100  1
  H  H39  1  0.28441300  0.17175300  0.71558700  1
  H  H40  1  0.28061200  0.15578000  0.78814000  1
  H  H41  1  0.19491900  0.07802600  0.82414600  1
  H  H42  1  0.30760200  0.92588900  0.69405700  1
  H  H43  1  0.15935800  0.39658100  0.66987800  1
  H  H44  1  0.28024300  0.34656400  0.74271100  1
  H  H45  1  0.21558700  0.32824700  0.71558700  1
  H  H46  1  0.21938800  0.34422000  0.78814000  1
  H  H47  1  0.30508100  0.42197400  0.82414600  1
  H  H48  1  0.19239800  0.57411100  0.69405700  1
  H  H49  1  0.66987800  0.34064200  0.10341900  1
  H  H50  1  0.74271100  0.21975700  0.15343600  1
  H  H51  1  0.71558700  0.28441300  0.17175300  1
  H  H52  1  0.78814000  0.28061200  0.15578000  1
  H  H53  1  0.82414600  0.19491900  0.07802600  1
  H  H54  1  0.69405700  0.30760200  0.92588900  1
  H  H55  1  0.66987800  0.15935800  0.39658100  1
  H  H56  1  0.74271100  0.28024300  0.34656400  1
  H  H57  1  0.71558700  0.21558700  0.32824700  1
  H  H58  1  0.78814000  0.21938800  0.34422000  1
  H  H59  1  0.82414600  0.30508100  0.42197400  1
  H  H60  1  0.69405700  0.19239800  0.57411100  1
  H  H61  1  0.10341900  0.66987800  0.34064200  1
  H  H62  1  0.15343600  0.74271100  0.21975700  1
  H  H63  1  0.17175300  0.71558700  0.28441300  1
  H  H64  1  0.15578000  0.78814000  0.28061200  1
  H  H65  1  0.07802600  0.82414600  0.19491900  1
  H  H66  1  0.92588900  0.69405700  0.30760200  1
  H  H67  1  0.39658100  0.66987800  0.15935800  1
  H  H68  1  0.34656400  0.74271100  0.28024300  1
  H  H69  1  0.32824700  0.71558700  0.21558700  1
  H  H70  1  0.34422000  0.78814000  0.21938800  1
  H  H71  1  0.42197400  0.82414600  0.30508100  1
  H  H72  1  0.57411100  0.69405700  0.19239800  1
  C  C1  1  0.86933200  0.99810200  0.12823400  1
  C  C2  1  0.13066800  0.00189800  0.87176600  1
  C  C3  1  0.00081500  0.87212500  0.13139100  1
  C  C4  1  0.99918600  0.12787400  0.86860700  1
  C  C5  1  0.87194200  0.13077000  0.00162000  1
  C  C6  1  0.12805700  0.86923000  0.99838100  1
  C  C7  1  0.63066800  0.50189800  0.12823400  1
  C  C8  1  0.36933200  0.49810200  0.87176600  1
  C  C9  1  0.49918500  0.62787500  0.13139100  1
  C  C10  1  0.50081400  0.37212600  0.86860700  1
  C  C11  1  0.62805800  0.36923000  0.00162000  1
  C  C12  1  0.37194300  0.63077000  0.99838100  1
  C  C13  1  0.63066800  0.99810200  0.37176600  1
  C  C14  1  0.36933200  0.00189800  0.62823400  1
  C  C15  1  0.49918500  0.87212500  0.36860900  1
  C  C16  1  0.50081400  0.12787400  0.63139300  1
  C  C17  1  0.62805800  0.13077000  0.49838000  1
  C  C18  1  0.37194300  0.86923000  0.50161900  1
  C  C19  1  0.86933200  0.50189800  0.37176600  1
  C  C20  1  0.13066800  0.49810200  0.62823400  1
  C  C21  1  0.00081500  0.62787500  0.36860900  1
  C  C22  1  0.99918600  0.37212600  0.63139300  1
  C  C23  1  0.87194200  0.36923000  0.49838000  1
  C  C24  1  0.12805700  0.63077000  0.50161900  1
  C  C25  1  0.67078700  0.98515400  0.32238400  1
  C  C26  1  0.68483000  0.92882300  0.30911100  1
  C  C27  1  0.72531900  0.91545700  0.26601300  1
  C  C28  1  0.73389000  0.85557100  0.25216000  1
  C  C29  1  0.75469900  0.96218700  0.23906300  1
  C  C30  1  0.79596200  0.96007200  0.19644600  1
  C  C31  1  0.82321300  0.00656400  0.17260300  1
  C  C32  1  0.80910200  0.05747300  0.19572500  1
  C  C33  1  0.74126100  0.01951900  0.25480500  1
  C  C34  1  0.69982500  0.02934500  0.29262600  1
  C  C35  1  0.82921300  0.51484600  0.32238400  1
  C  C36  1  0.81517000  0.57117700  0.30911100  1
  C  C37  1  0.77468100  0.58454300  0.26601300  1
  C  C38  1  0.76611000  0.64442900  0.25216000  1
  C  C39  1  0.74530100  0.53781300  0.23906300  1
  C  C40  1  0.70403800  0.53992800  0.19644600  1
  C  C41  1  0.67678700  0.49343600  0.17260300  1
  C  C42  1  0.69089800  0.44252700  0.19572500  1
  C  C43  1  0.75873900  0.48048100  0.25480500  1
  C  C44  1  0.80017500  0.47065500  0.29262600  1
  C  C45  1  0.32238400  0.67078700  0.98515400  1
  C  C46  1  0.30911100  0.68483000  0.92882300  1
  C  C47  1  0.26601300  0.72531900  0.91545700  1
  C  C48  1  0.25216000  0.73389000  0.85557100  1
  C  C49  1  0.23906300  0.75469900  0.96218700  1
  C  C50  1  0.19644600  0.79596200  0.96007200  1
  C  C51  1  0.17260300  0.82321300  0.00656400  1
  C  C52  1  0.19572500  0.80910200  0.05747300  1
  C  C53  1  0.25480500  0.74126100  0.01951900  1
  C  C54  1  0.29262600  0.69982500  0.02934500  1
  C  C55  1  0.32238400  0.82921300  0.51484600  1
  C  C56  1  0.30911100  0.81517000  0.57117700  1
  C  C57  1  0.26601300  0.77468100  0.58454300  1
  C  C58  1  0.25216000  0.76611000  0.64442900  1
  C  C59  1  0.23906300  0.74530100  0.53781300  1
  C  C60  1  0.19644600  0.70403800  0.53992800  1
  C  C61  1  0.17260300  0.67678700  0.49343600  1
  C  C62  1  0.19572500  0.69089800  0.44252700  1
  C  C63  1  0.25480500  0.75873900  0.48048100  1
  C  C64  1  0.29262600  0.80017500  0.47065500  1
  C  C65  1  0.98515400  0.32238400  0.67078700  1
  C  C66  1  0.92882300  0.30911100  0.68483000  1
  C  C67  1  0.91545700  0.26601300  0.72531900  1
  C  C68  1  0.85557100  0.25216000  0.73389000  1
  C  C69  1  0.96218700  0.23906300  0.75469900  1
  C  C70  1  0.96007200  0.19644600  0.79596200  1
  C  C71  1  0.00656400  0.17260300  0.82321300  1
  C  C72  1  0.05747300  0.19572500  0.80910200  1
  C  C73  1  0.01951900  0.25480500  0.74126100  1
  C  C74  1  0.02934500  0.29262600  0.69982500  1
  C  C75  1  0.51484600  0.32238400  0.82921300  1
  C  C76  1  0.57117700  0.30911100  0.81517000  1
  C  C77  1  0.58454300  0.26601300  0.77468100  1
  C  C78  1  0.64442900  0.25216000  0.76611000  1
  C  C79  1  0.53781300  0.23906300  0.74530100  1
  C  C80  1  0.53992800  0.19644600  0.70403800  1
  C  C81  1  0.49343600  0.17260300  0.67678700  1
  C  C82  1  0.44252700  0.19572500  0.69089800  1
  C  C83  1  0.48048100  0.25480500  0.75873900  1
  C  C84  1  0.47065500  0.29262600  0.80017500  1
  C  C85  1  0.32921300  0.01484600  0.67761600  1
  C  C86  1  0.31517000  0.07117700  0.69088900  1
  C  C87  1  0.27468100  0.08454300  0.73398700  1
  C  C88  1  0.26611000  0.14442900  0.74784000  1
  C  C89  1  0.24530100  0.03781300  0.76093700  1
  C  C90  1  0.20403800  0.03992800  0.80355400  1
  C  C91  1  0.17678700  0.99343600  0.82739700  1
  C  C92  1  0.19089800  0.94252700  0.80427500  1
  C  C93  1  0.25873900  0.98048100  0.74519500  1
  C  C94  1  0.30017500  0.97065500  0.70737400  1
  C  C95  1  0.17078700  0.48515400  0.67761600  1
  C  C96  1  0.18483000  0.42882300  0.69088900  1
  C  C97  1  0.22531900  0.41545700  0.73398700  1
  C  C98  1  0.23389000  0.35557100  0.74784000  1
  C  C99  1  0.25469900  0.46218700  0.76093700  1
  C  C100  1  0.29596200  0.46007200  0.80355400  1
  C  C101  1  0.32321300  0.50656400  0.82739700  1
  C  C102  1  0.30910200  0.55747300  0.80427500  1
  C  C103  1  0.24126100  0.51951900  0.74519500  1
  C  C104  1  0.19982500  0.52934500  0.70737400  1
  C  C105  1  0.67761600  0.32921300  0.01484600  1
  C  C106  1  0.69088900  0.31517000  0.07117700  1
  C  C107  1  0.73398700  0.27468100  0.08454300  1
  C  C108  1  0.74784000  0.26611000  0.14442900  1
  C  C109  1  0.76093700  0.24530100  0.03781300  1
  C  C110  1  0.80355400  0.20403800  0.03992800  1
  C  C111  1  0.82739700  0.17678700  0.99343600  1
  C  C112  1  0.80427500  0.19089800  0.94252700  1
  C  C113  1  0.74519500  0.25873900  0.98048100  1
  C  C114  1  0.70737400  0.30017500  0.97065500  1
  C  C115  1  0.67761600  0.17078700  0.48515400  1
  C  C116  1  0.69088900  0.18483000  0.42882300  1
  C  C117  1  0.73398700  0.22531900  0.41545700  1
  C  C118  1  0.74784000  0.23389000  0.35557100  1
  C  C119  1  0.76093700  0.25469900  0.46218700  1
  C  C120  1  0.80355400  0.29596200  0.46007200  1
  C  C121  1  0.82739700  0.32321300  0.50656400  1
  C  C122  1  0.80427500  0.30910200  0.55747300  1
  C  C123  1  0.74519500  0.24126100  0.51951900  1
  C  C124  1  0.70737400  0.19982500  0.52934500  1
  C  C125  1  0.01484600  0.67761600  0.32921300  1
  C  C126  1  0.07117700  0.69088900  0.31517000  1
  C  C127  1  0.08454300  0.73398700  0.27468100  1
  C  C128  1  0.14442900  0.74784000  0.26611000  1
  C  C129  1  0.03781300  0.76093700  0.24530100  1
  C  C130  1  0.03992800  0.80355400  0.20403800  1
  C  C131  1  0.99343600  0.82739700  0.17678700  1
  C  C132  1  0.94252700  0.80427500  0.19089800  1
  C  C133  1  0.98048100  0.74519500  0.25873900  1
  C  C134  1  0.97065500  0.70737400  0.30017500  1
  C  C135  1  0.48515400  0.67761600  0.17078700  1
  C  C136  1  0.42882300  0.69088900  0.18483000  1
  C  C137  1  0.41545700  0.73398700  0.22531900  1
  C  C138  1  0.35557100  0.74784000  0.23389000  1
  C  C139  1  0.46218700  0.76093700  0.25469900  1
  C  C140  1  0.46007200  0.80355400  0.29596200  1
  C  C141  1  0.50656400  0.82739700  0.32321300  1
  C  C142  1  0.55747300  0.80427500  0.30910200  1
  C  C143  1  0.51951900  0.74519500  0.24126100  1
  C  C144  1  0.52934500  0.70737400  0.19982500  1
  N  N1  1  0.76454500  0.06828000  0.23318200  1
  N  N2  1  0.73545500  0.43172000  0.23318200  1
  N  N3  1  0.23318200  0.76454500  0.06828000  1
  N  N4  1  0.23318200  0.73545500  0.43172000  1
  N  N5  1  0.06828000  0.23318200  0.76454500  1
  N  N6  1  0.43172000  0.23318200  0.73545500  1
  N  N7  1  0.23545500  0.93172000  0.76681800  1
  N  N8  1  0.26454500  0.56828000  0.76681800  1
  N  N9  1  0.76681800  0.23545500  0.93172000  1
  N  N10  1  0.76681800  0.26454500  0.56828000  1
  N  N11  1  0.93172000  0.76681800  0.23545500  1
  N  N12  1  0.56828000  0.76681800  0.26454500  1
  Cl  Cl1  1  0.83917300  0.12383000  0.17636500  1
  Cl  Cl2  1  0.66082700  0.37617000  0.17636500  1
  Cl  Cl3  1  0.17636500  0.83917300  0.12383000  1
  Cl  Cl4  1  0.17636500  0.66082700  0.37617000  1
  Cl  Cl5  1  0.12383000  0.17636500  0.83917300  1
  Cl  Cl6  1  0.37617000  0.17636500  0.66082700  1
  Cl  Cl7  1  0.16082700  0.87617000  0.82363500  1
  Cl  Cl8  1  0.33917300  0.62383000  0.82363500  1
  Cl  Cl9  1  0.82363500  0.16082700  0.87617000  1
  Cl  Cl10  1  0.82363500  0.33917300  0.62383000  1
  Cl  Cl11  1  0.87617000  0.82363500  0.16082700  1
  Cl  Cl12  1  0.62383000  0.82363500  0.33917300  1
  O  O1  1  0.94774400  0.94786300  0.03813000  1
  O  O2  1  0.05225700  0.05213700  0.96186900  1
  O  O3  1  0.96524600  0.05373200  0.05163800  1
  O  O4  1  0.03475500  0.94626800  0.94836000  1
  O  O5  1  0.05326600  0.96489200  0.05302300  1
  O  O6  1  0.94673300  0.03510900  0.94697900  1
  O  O7  1  0.92041000  0.00165500  0.14528100  1
  O  O8  1  0.85287200  0.99906500  0.07866700  1
  O  O9  1  0.07959100  0.99834500  0.85471800  1
  O  O10  1  0.14712900  0.00093500  0.92133200  1
  O  O11  1  0.99751300  0.92366600  0.14687600  1
  O  O12  1  0.00378400  0.85647600  0.08190300  1
  O  O13  1  0.00248600  0.07633500  0.85312600  1
  O  O14  1  0.99621800  0.14352300  0.91809600  1
  O  O15  1  0.85559500  0.07932800  0.00504200  1
  O  O16  1  0.92257100  0.14507400  0.99791200  1
  O  O17  1  0.14440400  0.92067300  0.99495900  1
  O  O18  1  0.07743000  0.85492500  0.00208700  1
  O  O19  1  0.55225600  0.55213700  0.03813000  1
  O  O20  1  0.44774300  0.44786300  0.96186900  1
  O  O21  1  0.53475400  0.44626800  0.05163800  1
  O  O22  1  0.46524500  0.55373200  0.94836000  1
  O  O23  1  0.44673400  0.53510800  0.05302300  1
  O  O24  1  0.55326700  0.46489100  0.94697900  1
  O  O25  1  0.57959000  0.49834500  0.14528100  1
  O  O26  1  0.64712800  0.50093500  0.07866700  1
  O  O27  1  0.42040900  0.50165500  0.85471800  1
  O  O28  1  0.35287100  0.49906500  0.92133200  1
  O  O29  1  0.50248700  0.57633400  0.14687600  1
  O  O30  1  0.49621600  0.64352400  0.08190300  1
  O  O31  1  0.49751400  0.42366500  0.85312600  1
  O  O32  1  0.50378200  0.35647700  0.91809600  1
  O  O33  1  0.64440500  0.42067200  0.00504200  1
  O  O34  1  0.57742900  0.35492600  0.99791200  1
  O  O35  1  0.35559600  0.57932700  0.99495900  1
  O  O36  1  0.42257000  0.64507500  0.00208700  1
  O  O37  1  0.55225600  0.94786300  0.46187000  1
  O  O38  1  0.44774300  0.05213700  0.53813100  1
  O  O39  1  0.53475400  0.05373200  0.44836200  1
  O  O40  1  0.46524500  0.94626800  0.55164000  1
  O  O41  1  0.44673400  0.96489200  0.44697700  1
  O  O42  1  0.55326700  0.03510900  0.55302100  1
  O  O43  1  0.57959000  0.00165500  0.35471900  1
  O  O44  1  0.64712800  0.99906500  0.42133300  1
  O  O45  1  0.42040900  0.99834500  0.64528200  1
  O  O46  1  0.35287100  0.00093500  0.57866800  1
  O  O47  1  0.50248700  0.92366600  0.35312400  1
  O  O48  1  0.49621600  0.85647600  0.41809700  1
  O  O49  1  0.49751400  0.07633500  0.64687400  1
  O  O50  1  0.50378200  0.14352300  0.58190400  1
  O  O51  1  0.64440500  0.07932800  0.49495800  1
  O  O52  1  0.57742900  0.14507400  0.50208800  1
  O  O53  1  0.35559600  0.92067300  0.50504100  1
  O  O54  1  0.42257000  0.85492500  0.49791300  1
  O  O55  1  0.94774400  0.55213700  0.46187000  1
  O  O56  1  0.05225700  0.44786300  0.53813100  1
  O  O57  1  0.96524600  0.44626800  0.44836200  1
  O  O58  1  0.03475500  0.55373200  0.55164000  1
  O  O59  1  0.05326600  0.53510800  0.44697700  1
  O  O60  1  0.94673300  0.46489100  0.55302100  1
  O  O61  1  0.92041000  0.49834500  0.35471900  1
  O  O62  1  0.85287200  0.50093500  0.42133300  1
  O  O63  1  0.07959100  0.50165500  0.64528200  1
  O  O64  1  0.14712900  0.49906500  0.57866800  1
  O  O65  1  0.99751300  0.57633400  0.35312400  1
  O  O66  1  0.00378400  0.64352400  0.41809700  1
  O  O67  1  0.00248600  0.42366500  0.64687400  1
  O  O68  1  0.99621800  0.35647700  0.58190400  1
  O  O69  1  0.85559500  0.42067200  0.49495800  1
  O  O70  1  0.92257100  0.35492600  0.50208800  1
  O  O71  1  0.14440400  0.57932700  0.50504100  1
  O  O72  1  0.07743000  0.64507500  0.49791300  1
