# generated using pymatgen
data_CuH4C9O5
_symmetry_space_group_name_H-M   'P 1'
_cell_length_a   10.91210000
_cell_length_b   10.91210000
_cell_length_c   21.82410000
_cell_angle_alpha   90.00000000
_cell_angle_beta   90.00000000
_cell_angle_gamma   90.00000000
_symmetry_Int_Tables_number   1
_chemical_formula_structural   CuH4C9O5
_chemical_formula_sum   'Cu4 H16 C36 O20'
_cell_volume   2598.68127736
_cell_formula_units_Z   4
loop_
 _symmetry_equiv_pos_site_id
 _symmetry_equiv_pos_as_xyz
  1  'x, y, z'
loop_
 _atom_site_type_symbol
 _atom_site_label
 _atom_site_symmetry_multiplicity
 _atom_site_fract_x
 _atom_site_fract_y
 _atom_site_fract_z
 _atom_site_occupancy
  Cu  Cu1  1  0.87833300  0.00000000  0.00000000  1
  Cu  Cu2  1  0.12166700  0.00000000  0.00000000  1
  Cu  Cu3  1  0.00000000  0.87833300  0.50000000  1
  Cu  Cu4  1  0.00000000  0.12166700  0.50000000  1
  H  H1  1  0.84362600  0.11158500  0.68991500  1
  H  H2  1  0.86630800  0.13528800  0.80678200  1
  H  H3  1  0.14366800  0.86116100  0.81047900  1
  H  H4  1  0.16600100  0.79438400  0.63805900  1
  H  H5  1  0.88841500  0.84362600  0.18991500  1
  H  H6  1  0.86471200  0.86630800  0.30678200  1
  H  H7  1  0.13883900  0.14366800  0.31047900  1
  H  H8  1  0.20561600  0.16600100  0.13805900  1
  H  H9  1  0.18947600  0.37982900  0.98416500  1
  H  H10  1  0.19019700  0.61356500  0.00056400  1
  H  H11  1  0.80023800  0.62095900  0.00170700  1
  H  H12  1  0.73722700  0.27611700  0.98599400  1
  H  H13  1  0.62017100  0.18947600  0.48416500  1
  H  H14  1  0.38643500  0.19019700  0.50056400  1
  H  H15  1  0.37904100  0.80023800  0.50170700  1
  H  H16  1  0.72388300  0.73722700  0.48599400  1
  C  C1  1  0.00000000  0.00000000  0.88444200  1
  C  C2  1  0.00000000  0.76888300  0.00000000  1
  C  C3  1  0.00000000  0.00000000  0.11555800  1
  C  C4  1  0.00000000  0.23111700  0.00000000  1
  C  C5  1  0.00000000  0.00000000  0.38444200  1
  C  C6  1  0.23111700  0.00000000  0.50000000  1
  C  C7  1  0.00000000  0.00000000  0.61555800  1
  C  C8  1  0.76888300  0.00000000  0.50000000  1
  C  C9  1  0.91550300  0.05975000  0.71688100  1
  C  C10  1  0.91658500  0.07361600  0.78053100  1
  C  C11  1  0.00217600  0.99484200  0.81215100  1
  C  C12  1  0.08191500  0.91558000  0.78038200  1
  C  C13  1  0.08273800  0.90502600  0.71777600  1
  C  C14  1  0.00250000  0.98610500  0.68503800  1
  C  C15  1  0.17262000  0.81288500  0.68669700  1
  C  C16  1  0.94025000  0.91550300  0.21688100  1
  C  C17  1  0.92638400  0.91658500  0.28053100  1
  C  C18  1  0.00515800  0.00217600  0.31215100  1
  C  C19  1  0.08442000  0.08191500  0.28038200  1
  C  C20  1  0.09497400  0.08273800  0.21777600  1
  C  C21  1  0.01389500  0.00250000  0.18503800  1
  C  C22  1  0.18711500  0.17262000  0.18669700  1
  C  C23  1  0.10199800  0.43376300  0.99125000  1
  C  C24  1  0.11103700  0.56106100  0.99653600  1
  C  C25  1  0.99481400  0.62430200  0.99894600  1
  C  C26  1  0.88238400  0.56076400  0.99911500  1
  C  C27  1  0.87433900  0.43555300  0.99567400  1
  C  C28  1  0.98840700  0.37007500  0.99597100  1
  C  C29  1  0.74562900  0.37339400  0.99487500  1
  C  C30  1  0.56623700  0.10199800  0.49125000  1
  C  C31  1  0.43893900  0.11103700  0.49653600  1
  C  C32  1  0.37569800  0.99481400  0.49894600  1
  C  C33  1  0.43923600  0.88238400  0.49911500  1
  C  C34  1  0.56444700  0.87433900  0.49567400  1
  C  C35  1  0.62992500  0.98840700  0.49597100  1
  C  C36  1  0.62660600  0.74562900  0.49487500  1
  O  O1  1  0.09682400  0.00000000  0.91239200  1
  O  O2  1  0.90317600  0.00000000  0.91239200  1
  O  O3  1  0.09682400  0.82478500  0.00000000  1
  O  O4  1  0.90317600  0.82478500  0.00000000  1
  O  O5  1  0.09682400  0.00000000  0.08760800  1
  O  O6  1  0.90317600  0.00000000  0.08760800  1
  O  O7  1  0.09682400  0.17521500  0.00000000  1
  O  O8  1  0.90317600  0.17521500  0.00000000  1
  O  O9  1  0.00000000  0.09682400  0.41239200  1
  O  O10  1  0.00000000  0.90317600  0.41239200  1
  O  O11  1  0.17521500  0.09682400  0.50000000  1
  O  O12  1  0.17521500  0.90317600  0.50000000  1
  O  O13  1  0.00000000  0.09682400  0.58760800  1
  O  O14  1  0.00000000  0.90317600  0.58760800  1
  O  O15  1  0.82478500  0.09682400  0.50000000  1
  O  O16  1  0.82478500  0.90317600  0.50000000  1
  O  O17  1  0.23996200  0.76003800  0.72329200  1
  O  O18  1  0.23996200  0.23996200  0.22329200  1
  O  O19  1  0.66064300  0.44658400  0.00000000  1
  O  O20  1  0.55341600  0.66064300  0.50000000  1
