# Generated by REPEAT Assigner based on pymatgen
data_DB13-acs-Syn039454
_audit_creation_date              2022-05-24
_audit_creation_method            REPEAT_Assigner
_cell_length_a                    20.338000
_cell_length_b                    20.338000
_cell_length_c                    16.606000
_cell_angle_alpha                 90.000000
_cell_angle_beta                  90.000000
_cell_angle_gamma                 120.000000
_cell_volume                      5948.564175
_symmetry_space_group_name_H-M    P1
_symmetry_Int_Tables_number       1
loop_
    _symmetry_equiv_pos_site_id
    _symmetry_equiv_pos_as_xyz
    1  x,y,z
loop_
    _atom_site_type_symbol
    _atom_site_label
    _atom_site_fract_x
    _atom_site_fract_y
    _atom_site_fract_z
    _atom_type_partial_charge
    Br  Br1   0.408422  0.095532  0.900971  -0.043254
    Br  Br2   0.095532  0.687110  0.400971  -0.042962
    Br  Br3   0.312890  0.408422  0.400971  -0.046061
    Br  Br4   0.591578  0.904468  0.400971  -0.043249
    Br  Br5   0.904468  0.312890  0.900971  -0.042960
    Br  Br6   0.687110  0.591578  0.900971  -0.046062
    C   C1    0.366001  0.455063  0.140596  0.023770
    C   C2    0.288650  0.414454  0.117061  -0.018011
    C   C3    0.267582  0.314571  0.207647  0.344850
    C   C4    0.394501  0.422274  0.194229  -0.064362
    C   C5    0.236712  0.344250  0.148412  -0.410914
    C   C6    0.345681  0.353114  0.229302  -0.355802
    C   C7    0.405176  0.592080  0.361056  0.340509
    C   C8    0.212500  0.238464  0.243712  -0.206354
    C   C9    0.475282  0.058320  0.914191  0.028881
    C   C10   0.444392  0.982610  0.943942  0.147331
    C   C11   0.489502  0.953469  0.969166  0.184807
    C   C12   0.569220  0.004320  0.972689  -0.445242
    C   C13   0.601318  0.078190  0.946006  0.110267
    C   C14   0.553840  0.104102  0.907891  -0.119613
    C   C15   0.689839  0.123403  0.937994  0.012294
    C   C16   0.456037  0.875354  0.009157  -0.302141
    C   C17   0.330167  0.908055  0.878134  0.224120
    C   C18   0.466494  0.886138  0.105025  0.328603
    C   C19   0.544937  0.910938  0.140596  0.037061
    C   C20   0.585546  0.874197  0.117061  -0.016418
    C   C21   0.685429  0.953012  0.207647  0.350939
    C   C22   0.186894  0.592080  0.361056  0.327960
    C   C23   0.577726  0.972226  0.194229  -0.060379
    C   C24   0.655750  0.892462  0.148412  -0.412600
    C   C25   0.646886  0.992567  0.229302  -0.363950
    C   C26   0.761536  0.974035  0.243712  -0.209882
    C   C27   0.058320  0.583038  0.414191  -0.014495
    C   C28   0.982610  0.538218  0.443942  0.179883
    C   C29   0.953469  0.463966  0.469166  0.146822
    C   C30   0.004320  0.435099  0.472689  -0.424093
    C   C31   0.078190  0.476872  0.446006  0.076752
    C   C32   0.104102  0.550262  0.407891  -0.048026
    C   C33   0.123403  0.433564  0.437994  0.011330
    C   C34   0.875354  0.419317  0.509157  -0.287426
    C   C35   0.908055  0.577888  0.378134  0.228231
    C   C36   0.408017  0.816043  0.357107  0.426812
    C   C37   0.886138  0.419644  0.605025  0.395422
    C   C38   0.910938  0.366001  0.640596  -0.044180
    C   C39   0.874197  0.288650  0.617061  -0.008424
    C   C40   0.953012  0.267582  0.707647  0.343869
    C   C41   0.972226  0.394501  0.694229  -0.036971
    C   C42   0.892462  0.236712  0.648412  -0.404114
    C   C43   0.992567  0.345681  0.729302  -0.354280
    C   C44   0.974035  0.212500  0.743712  -0.207866
    C   C45   0.416962  0.475282  0.414191  0.005830
    C   C46   0.461782  0.444392  0.443942  0.166723
    C   C47   0.536034  0.489502  0.469166  0.153803
    C   C48   0.564901  0.569220  0.472689  -0.422297
    C   C49   0.523128  0.601318  0.446006  0.072448
    C   C50   0.449738  0.553840  0.407891  -0.066482
    C   C51   0.566436  0.689839  0.437994  0.038510
    C   C52   0.580683  0.456037  0.509157  -0.281037
    C   C53   0.422112  0.330167  0.378134  0.221573
    C   C54   0.408688  0.817385  0.143086  0.196890
    C   C55   0.580356  0.466494  0.605025  0.368704
    C   C56   0.633999  0.544937  0.640596  0.023755
    C   C57   0.711350  0.585546  0.617061  -0.018004
    C   C58   0.732418  0.685429  0.707647  0.344875
    C   C59   0.605499  0.577726  0.694229  -0.064345
    C   C60   0.763288  0.655750  0.648412  -0.410928
    C   C61   0.654319  0.646886  0.729302  -0.355823
    C   C62   0.787500  0.761536  0.743712  -0.206358
    C   C63   0.524718  0.941680  0.414191  0.028902
    C   C64   0.555608  0.017390  0.443942  0.147269
    C   C65   0.510498  0.046531  0.469166  0.184909
    C   C66   0.430780  0.995680  0.472689  -0.445381
    C   C67   0.398682  0.921810  0.446006  0.110340
    C   C68   0.446160  0.895898  0.407891  -0.119640
    C   C69   0.310161  0.876597  0.437994  0.012432
    C   C70   0.543963  0.124646  0.509157  -0.302217
    C   C71   0.669833  0.091945  0.378134  0.224156
    C   C72   0.533506  0.113862  0.605025  0.328643
    C   C73   0.455063  0.089062  0.640596  0.037016
    C   C74   0.414454  0.125803  0.617061  -0.016408
    C   C75   0.314571  0.046988  0.707647  0.350941
    C   C76   0.422274  0.027774  0.694229  -0.060357
    C   C77   0.344250  0.107538  0.648412  -0.412595
    C   C78   0.353114  0.007433  0.729302  -0.363936
    C   C79   0.238464  0.025965  0.743712  -0.209893
    C   C80   0.817565  0.408784  0.638848  0.113581
    C   C81   0.591229  0.408784  0.638848  0.143235
    C   C82   0.594824  0.407920  0.861056  0.340516
    C   C83   0.813106  0.407920  0.861056  0.327931
    C   C84   0.591983  0.183957  0.857107  0.426829
    C   C85   0.591312  0.182615  0.643086  0.196917
    C   C86   0.941680  0.416962  0.914191  -0.014520
    C   C87   0.017390  0.461782  0.943942  0.179902
    C   C88   0.046531  0.536034  0.969166  0.146817
    C   C89   0.995680  0.564901  0.972689  -0.424094
    C   C90   0.921810  0.523128  0.946006  0.076755
    C   C91   0.895898  0.449738  0.907891  -0.048014
    C   C92   0.876597  0.566436  0.937994  0.011330
    C   C93   0.182435  0.591216  0.138848  0.113579
    C   C94   0.124646  0.580683  0.009157  -0.287431
    C   C95   0.091945  0.422112  0.878134  0.228228
    C   C96   0.113862  0.580356  0.105025  0.395405
    C   C97   0.089062  0.633999  0.140596  -0.044165
    C   C98   0.125803  0.711350  0.117061  -0.008440
    C   C99   0.046988  0.732418  0.207647  0.343864
    C   C100  0.027774  0.605499  0.194229  -0.036980
    C   C101  0.107538  0.763288  0.148412  -0.404109
    C   C102  0.007433  0.654319  0.229302  -0.354270
    C   C103  0.025965  0.787500  0.243712  -0.207867
    C   C104  0.583038  0.524718  0.914191  0.005834
    C   C105  0.408771  0.591216  0.138848  0.143244
    C   C106  0.538218  0.555608  0.943942  0.166719
    C   C107  0.463966  0.510498  0.969166  0.153809
    C   C108  0.435099  0.430780  0.972689  -0.422297
    C   C109  0.476872  0.398682  0.946006  0.072446
    C   C110  0.550262  0.446160  0.907891  -0.066486
    C   C111  0.433564  0.310161  0.937994  0.038511
    C   C112  0.419317  0.543963  0.009157  -0.281043
    C   C113  0.577888  0.669833  0.878134  0.221580
    C   C114  0.419644  0.533506  0.105025  0.368703
    H   H1    0.263536  0.439229  0.085945  0.082073
    H   H2    0.452286  0.449217  0.215428  0.058943
    H   H3    0.176657  0.313434  0.127926  0.185030
    H   H4    0.364406  0.330683  0.275117  0.202381
    H   H5    0.217846  0.229123  0.307465  0.072508
    H   H6    0.221492  0.195959  0.214355  0.027079
    H   H7    0.155902  0.229211  0.227055  0.050726
    H   H8    0.601391  0.978509  0.996074  0.176341
    H   H9    0.706206  0.121481  0.872938  0.044708
    H   H10   0.712056  0.179343  0.968566  -0.005268
    H   H11   0.706323  0.092862  0.977301  0.002003
    H   H12   0.488251  0.847266  0.987691  0.064695
    H   H13   0.396865  0.840417  0.990777  0.126697
    H   H14   0.322424  0.945450  0.833365  -0.029883
    H   H15   0.271860  0.862583  0.892244  0.003206
    H   H16   0.352869  0.879753  0.846514  -0.006495
    H   H17   0.449909  0.930666  0.120467  -0.002416
    H   H18   0.560771  0.824307  0.085945  0.083284
    H   H19   0.550783  0.003069  0.215428  0.055424
    H   H20   0.686566  0.863223  0.127926  0.183635
    H   H21   0.669317  0.033722  0.275117  0.207045
    H   H22   0.770877  0.988724  0.307465  0.072286
    H   H23   0.804041  0.025533  0.214355  0.027208
    H   H24   0.770789  0.926691  0.227055  0.051925
    H   H25   0.978509  0.377118  0.496074  0.181048
    H   H26   0.121481  0.415275  0.372938  0.039837
    H   H27   0.179343  0.467287  0.468566  -0.000739
    H   H28   0.092862  0.386539  0.477301  0.004065
    H   H29   0.847266  0.359015  0.487691  0.062218
    H   H30   0.840417  0.443552  0.490777  0.128107
    H   H31   0.945450  0.623027  0.333365  -0.022982
    H   H32   0.862583  0.590723  0.392244  0.001683
    H   H33   0.879753  0.526884  0.346514  -0.008363
    H   H34   0.930666  0.480757  0.620467  -0.006938
    H   H35   0.824307  0.263536  0.585945  0.078841
    H   H36   0.003069  0.452286  0.715428  0.052533
    H   H37   0.863223  0.176657  0.627926  0.182576
    H   H38   0.033722  0.364406  0.775117  0.195800
    H   H39   0.988724  0.217846  0.807465  0.072111
    H   H40   0.025533  0.221492  0.714355  0.027520
    H   H41   0.926691  0.155902  0.727055  0.050061
    H   H42   0.622882  0.601391  0.496074  0.176323
    H   H43   0.584725  0.706206  0.372938  0.032863
    H   H44   0.532713  0.712056  0.468566  -0.009050
    H   H45   0.613461  0.706323  0.477301  -0.003696
    H   H46   0.640985  0.488251  0.487691  0.058067
    H   H47   0.556448  0.396865  0.490777  0.127786
    H   H48   0.376973  0.322424  0.333365  -0.024427
    H   H49   0.409277  0.271860  0.392244  0.002573
    H   H50   0.473116  0.352869  0.346514  -0.007447
    H   H51   0.519243  0.449909  0.620467  -0.015155
    H   H52   0.736464  0.560771  0.585945  0.082074
    H   H53   0.547714  0.550783  0.715428  0.058941
    H   H54   0.823343  0.686566  0.627926  0.185032
    H   H55   0.635594  0.669317  0.775117  0.202386
    H   H56   0.782154  0.770877  0.807465  0.072509
    H   H57   0.778508  0.804041  0.714355  0.027077
    H   H58   0.844098  0.770789  0.727055  0.050725
    H   H59   0.398609  0.021491  0.496074  0.176374
    H   H60   0.293794  0.878519  0.372938  0.044675
    H   H61   0.287944  0.820657  0.468566  -0.005320
    H   H62   0.293677  0.907138  0.477301  0.001960
    H   H63   0.511749  0.152734  0.487691  0.064715
    H   H64   0.603135  0.159583  0.490777  0.126705
    H   H65   0.677576  0.054550  0.333365  -0.029893
    H   H66   0.728140  0.137417  0.392244  0.003199
    H   H67   0.647131  0.120247  0.346514  -0.006502
    H   H68   0.550091  0.069334  0.620467  -0.002399
    H   H69   0.439229  0.175693  0.585945  0.083282
    H   H70   0.449217  0.996931  0.715428  0.055406
    H   H71   0.313434  0.136777  0.627926  0.183632
    H   H72   0.330683  0.966278  0.775117  0.207038
    H   H73   0.229123  0.011276  0.807465  0.072288
    H   H74   0.195959  0.974467  0.714355  0.027211
    H   H75   0.229211  0.073309  0.727055  0.051927
    H   H76   0.021491  0.622882  0.996074  0.181051
    H   H77   0.878519  0.584725  0.872938  0.039836
    H   H78   0.820657  0.532713  0.968566  -0.000739
    H   H79   0.907138  0.613461  0.977301  0.004064
    H   H80   0.152734  0.640985  0.987691  0.062218
    H   H81   0.159583  0.556448  0.990777  0.128111
    H   H82   0.054550  0.376973  0.833365  -0.022980
    H   H83   0.137417  0.409277  0.892244  0.001685
    H   H84   0.120247  0.473116  0.846514  -0.008364
    H   H85   0.069334  0.519243  0.120467  -0.006933
    H   H86   0.175693  0.736464  0.085945  0.078847
    H   H87   0.996931  0.547714  0.215428  0.052533
    H   H88   0.136777  0.823343  0.127926  0.182577
    H   H89   0.966278  0.635594  0.275117  0.195797
    H   H90   0.011276  0.782154  0.307465  0.072111
    H   H91   0.974467  0.778508  0.214355  0.027522
    H   H92   0.073309  0.844098  0.227055  0.050059
    H   H93   0.377118  0.398609  0.996074  0.176322
    H   H94   0.415275  0.293794  0.872938  0.032864
    H   H95   0.467287  0.287944  0.968566  -0.009049
    H   H96   0.386539  0.293677  0.977301  -0.003696
    H   H97   0.359015  0.511749  0.987691  0.058068
    H   H98   0.443552  0.603135  0.990777  0.127787
    H   H99   0.623027  0.677576  0.833365  -0.024432
    H   H100  0.590723  0.728140  0.892244  0.002573
    H   H101  0.526884  0.647131  0.846514  -0.007450
    H   H102  0.480757  0.550091  0.120467  -0.015155
    O   O1    0.340551  0.550064  0.333662  -0.301197
    O   O2    0.206338  0.657245  0.336168  -0.280090
    O   O3    0.366479  0.938521  0.951744  -0.384560
    O   O4    0.209503  0.550064  0.333662  -0.243248
    O   O5    0.450585  0.791970  0.334461  -0.341756
    O   O6    0.938521  0.572042  0.451744  -0.392193
    O   O7    0.341375  0.791970  0.334461  -0.280286
    O   O8    0.450956  0.792816  0.164748  -0.174565
    O   O9    0.341850  0.792816  0.164748  -0.369570
    O   O10   0.427958  0.366479  0.451744  -0.385519
    O   O11   0.633521  0.061479  0.451744  -0.384567
    O   O12   0.792926  0.451094  0.659541  -0.339420
    O   O13   0.795441  0.342887  0.663792  -0.109158
    O   O14   0.658178  0.451094  0.659541  -0.152463
    O   O15   0.547456  0.342887  0.663792  -0.345642
    O   O16   0.207074  0.548906  0.159541  -0.339419
    O   O17   0.549103  0.342755  0.836168  -0.229421
    O   O18   0.659449  0.449936  0.833662  -0.301198
    O   O19   0.793662  0.342755  0.836168  -0.280056
    O   O20   0.790497  0.449936  0.833662  -0.243238
    O   O21   0.549415  0.208030  0.834461  -0.341750
    O   O22   0.658625  0.208030  0.834461  -0.280324
    O   O23   0.549044  0.207184  0.664748  -0.174589
    O   O24   0.204559  0.657113  0.163792  -0.109138
    O   O25   0.658150  0.207184  0.664748  -0.369571
    O   O26   0.061479  0.427958  0.951744  -0.392196
    O   O27   0.341822  0.548906  0.159541  -0.152469
    O   O28   0.452544  0.657113  0.163792  -0.345650
    O   O29   0.572042  0.633521  0.951744  -0.385519
    O   O30   0.450897  0.657245  0.336168  -0.229415
    Pd  Pd1   0.437358  0.717407  0.249306  0.401773
    Pd  Pd2   0.280039  0.717407  0.249306  0.385565
    Pd  Pd3   0.281616  0.563242  0.245959  0.399213
    Pd  Pd4   0.562642  0.282593  0.749306  0.401775
    Pd  Pd5   0.719961  0.282593  0.749306  0.385576
    Pd  Pd6   0.718384  0.436758  0.745959  0.399207
