# generated using pymatgen
data_CuH3C8NO6
_symmetry_space_group_name_H-M   'P 1'
_cell_length_a   21.83760000
_cell_length_b   21.83760000
_cell_length_c   21.83760000
_cell_angle_alpha   90.00000000
_cell_angle_beta   90.00000000
_cell_angle_gamma   90.00000000
_symmetry_Int_Tables_number   1
_chemical_formula_structural   CuH3C8NO6
_chemical_formula_sum   'Cu12 H36 C96 N12 O72'
_cell_volume   10413.93158506
_cell_formula_units_Z   12
loop_
 _symmetry_equiv_pos_site_id
 _symmetry_equiv_pos_as_xyz
  1  'x, y, z'
loop_
 _atom_site_type_symbol
 _atom_site_label
 _atom_site_symmetry_multiplicity
 _atom_site_fract_x
 _atom_site_fract_y
 _atom_site_fract_z
 _atom_site_occupancy
  Cu  Cu1  1  0.93920400  0.50000000  0.50000000  1
  Cu  Cu2  1  0.06079600  0.50000000  0.50000000  1
  Cu  Cu3  1  0.50000000  0.93920400  0.50000000  1
  Cu  Cu4  1  0.50000000  0.06079600  0.50000000  1
  Cu  Cu5  1  0.50000000  0.50000000  0.93920400  1
  Cu  Cu6  1  0.50000000  0.50000000  0.06079600  1
  Cu  Cu7  1  0.43920400  0.00000000  0.00000000  1
  Cu  Cu8  1  0.56079600  0.00000000  0.00000000  1
  Cu  Cu9  1  0.00000000  0.43920400  0.00000000  1
  Cu  Cu10  1  0.00000000  0.56079600  0.00000000  1
  Cu  Cu11  1  0.00000000  0.00000000  0.43920400  1
  Cu  Cu12  1  0.00000000  0.00000000  0.56079600  1
  H  H1  1  0.91385700  0.53924400  0.69027600  1
  H  H2  1  0.91292400  0.53750800  0.80227200  1
  H  H3  1  0.19742200  0.91007300  0.44851600  1
  H  H4  1  0.30972400  0.08614300  0.53924400  1
  H  H5  1  0.19772800  0.08707600  0.53750800  1
  H  H6  1  0.80257800  0.08992700  0.44851600  1
  H  H7  1  0.69027600  0.91385700  0.53924400  1
  H  H8  1  0.80227200  0.91292400  0.53750800  1
  H  H9  1  0.44851600  0.19742200  0.91007300  1
  H  H10  1  0.53924400  0.30972400  0.08614300  1
  H  H11  1  0.53750800  0.19772800  0.08707600  1
  H  H12  1  0.44851600  0.80257800  0.08992700  1
  H  H13  1  0.53924400  0.69027600  0.91385700  1
  H  H14  1  0.53750800  0.80227200  0.91292400  1
  H  H15  1  0.44851600  0.91007300  0.80257800  1
  H  H16  1  0.53924400  0.08614300  0.69027600  1
  H  H17  1  0.53750800  0.08707600  0.80227200  1
  H  H18  1  0.44851600  0.08992700  0.19742200  1
  H  H19  1  0.53924400  0.91385700  0.30972400  1
  H  H20  1  0.53750800  0.91292400  0.19772800  1
  H  H21  1  0.91007300  0.19742200  0.55148400  1
  H  H22  1  0.08614300  0.30972400  0.46075600  1
  H  H23  1  0.08707600  0.19772800  0.46249200  1
  H  H24  1  0.08992700  0.80257800  0.55148400  1
  H  H25  1  0.91385700  0.69027600  0.46075600  1
  H  H26  1  0.91292400  0.80227200  0.46249200  1
  H  H27  1  0.19742200  0.44851600  0.08992700  1
  H  H28  1  0.30972400  0.53924400  0.91385700  1
  H  H29  1  0.19772800  0.53750800  0.91292400  1
  H  H30  1  0.80257800  0.44851600  0.91007300  1
  H  H31  1  0.69027600  0.53924400  0.08614300  1
  H  H32  1  0.80227200  0.53750800  0.08707600  1
  H  H33  1  0.91007300  0.44851600  0.19742200  1
  H  H34  1  0.08614300  0.53924400  0.30972400  1
  H  H35  1  0.08707600  0.53750800  0.19772800  1
  H  H36  1  0.08992700  0.44851600  0.80257800  1
  C  C1  1  0.95134400  0.51802900  0.71532900  1
  C  C2  1  0.95205600  0.51943400  0.77831300  1
  C  C3  1  0.99961200  0.49521700  0.81468400  1
  C  C4  1  0.28222700  0.94830300  0.47324100  1
  C  C5  1  0.21662800  0.94837000  0.46889800  1
  C  C6  1  0.00000000  0.61548700  0.50000000  1
  C  C7  1  0.31466500  0.99790400  0.49778500  1
  C  C8  1  0.28467100  0.04865600  0.51802900  1
  C  C9  1  0.22168700  0.04794400  0.51943400  1
  C  C10  1  0.18531600  0.00038800  0.49521700  1
  C  C11  1  0.71777300  0.05169700  0.47324100  1
  C  C12  1  0.78337200  0.05163000  0.46889800  1
  C  C13  1  0.68533500  0.00209600  0.49778500  1
  C  C14  1  0.71532900  0.95134400  0.51802900  1
  C  C15  1  0.77831300  0.95205600  0.51943400  1
  C  C16  1  0.81468400  0.99961200  0.49521700  1
  C  C17  1  0.47324100  0.28222700  0.94830300  1
  C  C18  1  0.46889800  0.21662800  0.94837000  1
  C  C19  1  0.49778500  0.31466500  0.99790400  1
  C  C20  1  0.51802900  0.28467100  0.04865600  1
  C  C21  1  0.51943400  0.22168700  0.04794400  1
  C  C22  1  0.49521700  0.18531600  0.00038800  1
  C  C23  1  0.47324100  0.71777300  0.05169700  1
  C  C24  1  0.46889800  0.78337200  0.05163000  1
  C  C25  1  0.49778500  0.68533500  0.00209600  1
  C  C26  1  0.51802900  0.71532900  0.95134400  1
  C  C27  1  0.51943400  0.77831300  0.95205600  1
  C  C28  1  0.49521700  0.81468400  0.99961200  1
  C  C29  1  0.47324100  0.94830300  0.71777300  1
  C  C30  1  0.46889800  0.94837000  0.78337200  1
  C  C31  1  0.49778500  0.99790400  0.68533500  1
  C  C32  1  0.38451300  0.00000000  0.50000000  1
  C  C33  1  0.51802900  0.04865600  0.71532900  1
  C  C34  1  0.51943400  0.04794400  0.77831300  1
  C  C35  1  0.49521700  0.00038800  0.81468400  1
  C  C36  1  0.47324100  0.05169700  0.28222700  1
  C  C37  1  0.46889800  0.05163000  0.21662800  1
  C  C38  1  0.49778500  0.00209600  0.31466500  1
  C  C39  1  0.51802900  0.95134400  0.28467100  1
  C  C40  1  0.51943400  0.95205600  0.22168700  1
  C  C41  1  0.49521700  0.99961200  0.18531600  1
  C  C42  1  0.94830300  0.28222700  0.52675900  1
  C  C43  1  0.94837000  0.21662800  0.53110200  1
  C  C44  1  0.99790400  0.31466500  0.50221500  1
  C  C45  1  0.04865600  0.28467100  0.48197100  1
  C  C46  1  0.04794400  0.22168700  0.48056600  1
  C  C47  1  0.00038800  0.18531600  0.50478300  1
  C  C48  1  0.50000000  0.00000000  0.38451300  1
  C  C49  1  0.05169700  0.71777300  0.52675900  1
  C  C50  1  0.05163000  0.78337200  0.53110200  1
  C  C51  1  0.00209600  0.68533500  0.50221500  1
  C  C52  1  0.95134400  0.71532900  0.48197100  1
  C  C53  1  0.95205600  0.77831300  0.48056600  1
  C  C54  1  0.00000000  0.50000000  0.38451300  1
  C  C55  1  0.99961200  0.81468400  0.50478300  1
  C  C56  1  0.28222700  0.47324100  0.05169700  1
  C  C57  1  0.21662800  0.46889800  0.05163000  1
  C  C58  1  0.31466500  0.49778500  0.00209600  1
  C  C59  1  0.28467100  0.51802900  0.95134400  1
  C  C60  1  0.22168700  0.51943400  0.95205600  1
  C  C61  1  0.18531600  0.49521700  0.99961200  1
  C  C62  1  0.71777300  0.47324100  0.94830300  1
  C  C63  1  0.78337200  0.46889800  0.94837000  1
  C  C64  1  0.68533500  0.49778500  0.99790400  1
  C  C65  1  0.61548700  0.00000000  0.50000000  1
  C  C66  1  0.71532900  0.51802900  0.04865600  1
  C  C67  1  0.77831300  0.51943400  0.04794400  1
  C  C68  1  0.81468400  0.49521700  0.00038800  1
  C  C69  1  0.50000000  0.00000000  0.61548700  1
  C  C70  1  0.50000000  0.38451300  0.00000000  1
  C  C71  1  0.38451300  0.50000000  0.00000000  1
  C  C72  1  0.50000000  0.61548700  0.00000000  1
  C  C73  1  0.61548700  0.50000000  0.00000000  1
  C  C74  1  0.50000000  0.00000000  0.88451300  1
  C  C75  1  0.50000000  0.88451300  0.00000000  1
  C  C76  1  0.00000000  0.38451300  0.50000000  1
  C  C77  1  0.50000000  0.00000000  0.11548700  1
  C  C78  1  0.50000000  0.11548700  0.00000000  1
  C  C79  1  0.88451300  0.50000000  0.00000000  1
  C  C80  1  0.00000000  0.50000000  0.88451300  1
  C  C81  1  0.11548700  0.50000000  0.00000000  1
  C  C82  1  0.00000000  0.50000000  0.11548700  1
  C  C83  1  0.00000000  0.88451300  0.50000000  1
  C  C84  1  0.88451300  0.00000000  0.50000000  1
  C  C85  1  0.00000000  0.11548700  0.50000000  1
  C  C86  1  0.00000000  0.50000000  0.61548700  1
  C  C87  1  0.11548700  0.00000000  0.50000000  1
  C  C88  1  0.94830300  0.47324100  0.28222700  1
  C  C89  1  0.94837000  0.46889800  0.21662800  1
  C  C90  1  0.99790400  0.49778500  0.31466500  1
  C  C91  1  0.04865600  0.51802900  0.28467100  1
  C  C92  1  0.04794400  0.51943400  0.22168700  1
  C  C93  1  0.00038800  0.49521700  0.18531600  1
  C  C94  1  0.05169700  0.47324100  0.71777300  1
  C  C95  1  0.05163000  0.46889800  0.78337200  1
  C  C96  1  0.00209600  0.49778500  0.68533500  1
  N  N1  1  0.10620100  0.44905100  0.68638700  1
  N  N2  1  0.31361300  0.89379900  0.44905100  1
  N  N3  1  0.68638700  0.10620100  0.44905100  1
  N  N4  1  0.44905100  0.31361300  0.89379900  1
  N  N5  1  0.44905100  0.68638700  0.10620100  1
  N  N6  1  0.44905100  0.89379900  0.68638700  1
  N  N7  1  0.44905100  0.10620100  0.31361300  1
  N  N8  1  0.89379900  0.31361300  0.55094900  1
  N  N9  1  0.10620100  0.68638700  0.55094900  1
  N  N10  1  0.31361300  0.44905100  0.10620100  1
  N  N11  1  0.68638700  0.44905100  0.89379900  1
  N  N12  1  0.89379900  0.44905100  0.31361300  1
  O  O1  1  0.95161800  0.50000000  0.58755300  1
  O  O2  1  0.14692700  0.48696000  0.67300100  1
  O  O3  1  0.10673300  0.39326700  0.67741200  1
  O  O4  1  0.32699900  0.85307300  0.48696000  1
  O  O5  1  0.32258800  0.89326700  0.39326700  1
  O  O6  1  0.04838200  0.58755300  0.50000000  1
  O  O7  1  0.95161800  0.58755300  0.50000000  1
  O  O8  1  0.67300100  0.14692700  0.48696000  1
  O  O9  1  0.67741200  0.10673300  0.39326700  1
  O  O10  1  0.48696000  0.32699900  0.85307300  1
  O  O11  1  0.39326700  0.32258800  0.89326700  1
  O  O12  1  0.48696000  0.67300100  0.14692700  1
  O  O13  1  0.39326700  0.67741200  0.10673300  1
  O  O14  1  0.48696000  0.85307300  0.67300100  1
  O  O15  1  0.39326700  0.89326700  0.67741200  1
  O  O16  1  0.41244700  0.04838200  0.50000000  1
  O  O17  1  0.48696000  0.14692700  0.32699900  1
  O  O18  1  0.39326700  0.10673300  0.32258800  1
  O  O19  1  0.41244700  0.95161800  0.50000000  1
  O  O20  1  0.85307300  0.32699900  0.51304000  1
  O  O21  1  0.89326700  0.32258800  0.60673300  1
  O  O22  1  0.50000000  0.04838200  0.41244700  1
  O  O23  1  0.14692700  0.67300100  0.51304000  1
  O  O24  1  0.10673300  0.67741200  0.60673300  1
  O  O25  1  0.50000000  0.95161800  0.41244700  1
  O  O26  1  0.32699900  0.48696000  0.14692700  1
  O  O27  1  0.32258800  0.39326700  0.10673300  1
  O  O28  1  0.67300100  0.48696000  0.85307300  1
  O  O29  1  0.67741200  0.39326700  0.89326700  1
  O  O30  1  0.58755300  0.04838200  0.50000000  1
  O  O31  1  0.58755300  0.95161800  0.50000000  1
  O  O32  1  0.50000000  0.04838200  0.58755300  1
  O  O33  1  0.50000000  0.95161800  0.58755300  1
  O  O34  1  0.04838200  0.50000000  0.41244700  1
  O  O35  1  0.50000000  0.41244700  0.04838200  1
  O  O36  1  0.50000000  0.41244700  0.95161800  1
  O  O37  1  0.41244700  0.50000000  0.04838200  1
  O  O38  1  0.41244700  0.50000000  0.95161800  1
  O  O39  1  0.50000000  0.58755300  0.04838200  1
  O  O40  1  0.50000000  0.58755300  0.95161800  1
  O  O41  1  0.95161800  0.50000000  0.41244700  1
  O  O42  1  0.58755300  0.50000000  0.04838200  1
  O  O43  1  0.58755300  0.50000000  0.95161800  1
  O  O44  1  0.54838200  0.00000000  0.91244700  1
  O  O45  1  0.45161800  0.00000000  0.91244700  1
  O  O46  1  0.54838200  0.91244700  0.00000000  1
  O  O47  1  0.45161800  0.91244700  0.00000000  1
  O  O48  1  0.54838200  0.00000000  0.08755300  1
  O  O49  1  0.45161800  0.00000000  0.08755300  1
  O  O50  1  0.54838200  0.08755300  0.00000000  1
  O  O51  1  0.45161800  0.08755300  0.00000000  1
  O  O52  1  0.91244700  0.54838200  0.00000000  1
  O  O53  1  0.04838200  0.41244700  0.50000000  1
  O  O54  1  0.91244700  0.45161800  0.00000000  1
  O  O55  1  0.00000000  0.54838200  0.91244700  1
  O  O56  1  0.00000000  0.45161800  0.91244700  1
  O  O57  1  0.08755300  0.54838200  0.00000000  1
  O  O58  1  0.08755300  0.45161800  0.00000000  1
  O  O59  1  0.00000000  0.54838200  0.08755300  1
  O  O60  1  0.00000000  0.45161800  0.08755300  1
  O  O61  1  0.95161800  0.41244700  0.50000000  1
  O  O62  1  0.00000000  0.91244700  0.54838200  1
  O  O63  1  0.00000000  0.91244700  0.45161800  1
  O  O64  1  0.91244700  0.00000000  0.54838200  1
  O  O65  1  0.91244700  0.00000000  0.45161800  1
  O  O66  1  0.00000000  0.08755300  0.54838200  1
  O  O67  1  0.00000000  0.08755300  0.45161800  1
  O  O68  1  0.08755300  0.00000000  0.54838200  1
  O  O69  1  0.08755300  0.00000000  0.45161800  1
  O  O70  1  0.04838200  0.50000000  0.58755300  1
  O  O71  1  0.85307300  0.48696000  0.32699900  1
  O  O72  1  0.89326700  0.39326700  0.32258800  1
