# generated using pymatgen
data_CuH13C18NO4
_symmetry_space_group_name_H-M   'P 1'
_cell_length_a   13.17980000
_cell_length_b   13.17980000
_cell_length_c   26.35960000
_cell_angle_alpha   90.00000000
_cell_angle_beta   90.00000000
_cell_angle_gamma   90.00000000
_symmetry_Int_Tables_number   1
_chemical_formula_structural   CuH13C18NO4
_chemical_formula_sum   'Cu4 H52 C72 N4 O16'
_cell_volume   4578.85041228
_cell_formula_units_Z   4
loop_
 _symmetry_equiv_pos_site_id
 _symmetry_equiv_pos_as_xyz
  1  'x, y, z'
loop_
 _atom_site_type_symbol
 _atom_site_label
 _atom_site_symmetry_multiplicity
 _atom_site_fract_x
 _atom_site_fract_y
 _atom_site_fract_z
 _atom_site_occupancy
  Cu  Cu1  1  0.89926700  0.00000000  0.00000000  1
  Cu  Cu2  1  0.10073300  0.00000000  0.00000000  1
  Cu  Cu3  1  0.00000000  0.89926700  0.50000000  1
  Cu  Cu4  1  0.00000000  0.10073300  0.50000000  1
  H  H1  1  0.18738700  0.93978000  0.61265000  1
  H  H2  1  0.37855600  0.88858100  0.57040800  1
  H  H3  1  0.50087500  0.74446100  0.56399900  1
  H  H4  1  0.40832000  0.59168000  0.61558200  1
  H  H5  1  0.21014000  0.58118000  0.66902500  1
  H  H6  1  0.07206300  0.68931400  0.69698300  1
  H  H7  1  0.92229900  0.12049000  0.66772700  1
  H  H8  1  0.86245500  0.08245800  0.75745800  1
  H  H9  1  0.05406400  0.81292700  0.75644100  1
  H  H10  1  0.98876200  0.85536200  0.82942800  1
  H  H11  1  0.86210200  0.91458600  0.83022200  1
  H  H12  1  0.94894700  0.08451000  0.84075300  1
  H  H13  1  0.06794300  0.03424800  0.83132500  1
  H  H14  1  0.06022000  0.18738700  0.11265000  1
  H  H15  1  0.11141900  0.37855600  0.07040800  1
  H  H16  1  0.25553900  0.50087500  0.06399900  1
  H  H17  1  0.40832000  0.40832000  0.11558200  1
  H  H18  1  0.41882000  0.21014000  0.16902500  1
  H  H19  1  0.31068600  0.07206300  0.19698300  1
  H  H20  1  0.87951000  0.92229900  0.16772700  1
  H  H21  1  0.91754200  0.86245500  0.25745800  1
  H  H22  1  0.18707300  0.05406400  0.25644100  1
  H  H23  1  0.14463800  0.98876200  0.32942800  1
  H  H24  1  0.08541400  0.86210200  0.33022200  1
  H  H25  1  0.91549000  0.94894700  0.34075300  1
  H  H26  1  0.96575200  0.06794300  0.33132500  1
  H  H27  1  0.82491500  0.22530000  0.04496000  1
  H  H28  1  0.65353600  0.14081600  0.09444700  1
  H  H29  1  0.46513500  0.12799800  0.08673900  1
  H  H30  1  0.42254800  0.23116400  0.00000000  1
  H  H31  1  0.55525800  0.33805000  0.92622100  1
  H  H32  1  0.72935600  0.39396600  0.91563400  1
  H  H33  1  0.14014200  0.33545500  0.01512800  1
  H  H34  1  0.15556500  0.51491700  0.98052400  1
  H  H35  1  0.82949000  0.51288300  0.95297400  1
  H  H36  1  0.90567200  0.65885700  0.94488900  1
  H  H37  1  0.03711200  0.66044500  0.92104700  1
  H  H38  1  0.09585800  0.68150600  0.01182900  1
  H  H39  1  0.97617400  0.66265000  0.03613000  1
  H  H40  1  0.77470000  0.82491500  0.54496000  1
  H  H41  1  0.85918400  0.65353600  0.59444700  1
  H  H42  1  0.87200200  0.46513500  0.58673900  1
  H  H43  1  0.76883600  0.42254800  0.50000000  1
  H  H44  1  0.66195000  0.55525800  0.42622100  1
  H  H45  1  0.60603400  0.72935600  0.41563400  1
  H  H46  1  0.66454500  0.14014200  0.51512800  1
  H  H47  1  0.48508300  0.15556500  0.48052400  1
  H  H48  1  0.48711700  0.82949000  0.45297400  1
  H  H49  1  0.34114300  0.90567200  0.44488900  1
  H  H50  1  0.33955500  0.03711200  0.42104700  1
  H  H51  1  0.31849400  0.09585800  0.51182900  1
  H  H52  1  0.33735000  0.97617400  0.53613000  1
  C  C1  1  0.00000000  0.00000000  0.90432500  1
  C  C2  1  0.00000000  0.80864900  0.00000000  1
  C  C3  1  0.00000000  0.00000000  0.09567500  1
  C  C4  1  0.00000000  0.19135100  0.00000000  1
  C  C5  1  0.00000000  0.00000000  0.40432500  1
  C  C6  1  0.19135100  0.00000000  0.50000000  1
  C  C7  1  0.00000000  0.00000000  0.59567500  1
  C  C8  1  0.80864900  0.00000000  0.50000000  1
  C  C9  1  0.11421000  0.82502600  0.65925200  1
  C  C10  1  0.19457900  0.86437400  0.62869200  1
  C  C11  1  0.28036000  0.80369100  0.61758400  1
  C  C12  1  0.42980800  0.74229900  0.58504000  1
  C  C13  1  0.37704900  0.66452400  0.61140900  1
  C  C14  1  0.28461100  0.70310600  0.62992600  1
  C  C15  1  0.20917500  0.66126900  0.65962100  1
  C  C16  1  0.12794500  0.72237700  0.67412000  1
  C  C17  1  0.04006700  0.88870500  0.68273600  1
  C  C18  1  0.99537900  0.98012500  0.65792600  1
  C  C19  1  0.93789500  0.04711400  0.68721300  1
  C  C20  1  0.91347500  0.03060600  0.73787100  1
  C  C21  1  0.96179800  0.94673800  0.76360200  1
  C  C22  1  0.01965900  0.87679800  0.73401700  1
  C  C23  1  0.94758600  0.92697000  0.82046200  1
  C  C24  1  0.99349900  0.02090000  0.84797600  1
  C  C25  1  0.17497400  0.11421000  0.15925200  1
  C  C26  1  0.13562600  0.19457900  0.12869200  1
  C  C27  1  0.19630900  0.28036000  0.11758400  1
  C  C28  1  0.25770100  0.42980800  0.08504000  1
  C  C29  1  0.33547600  0.37704900  0.11140900  1
  C  C30  1  0.29689400  0.28461100  0.12992600  1
  C  C31  1  0.33873100  0.20917500  0.15962100  1
  C  C32  1  0.27762300  0.12794500  0.17412000  1
  C  C33  1  0.11129500  0.04006700  0.18273600  1
  C  C34  1  0.01987500  0.99537900  0.15792600  1
  C  C35  1  0.95288600  0.93789500  0.18721300  1
  C  C36  1  0.96939400  0.91347500  0.23787100  1
  C  C37  1  0.05326200  0.96179800  0.26360200  1
  C  C38  1  0.12320200  0.01965900  0.23401700  1
  C  C39  1  0.07303000  0.94758600  0.32046200  1
  C  C40  1  0.97910000  0.99349900  0.34797600  1
  C  C41  1  0.79551600  0.31850400  0.97851700  1
  C  C42  1  0.76651000  0.25738500  0.02084300  1
  C  C43  1  0.66294400  0.23516900  0.02971600  1
  C  C44  1  0.51385800  0.17008000  0.06084900  1
  C  C45  1  0.49616900  0.22281800  0.01469800  1
  C  C46  1  0.58881400  0.25985200  0.99565700  1
  C  C47  1  0.61257200  0.31924200  0.95419500  1
  C  C48  1  0.71322000  0.34824000  0.94708100  1
  C  C49  1  0.89297100  0.36547300  0.97481700  1
  C  C50  1  0.98921400  0.31585100  0.99133900  1
  C  C51  1  0.07722900  0.37442500  0.99470000  1
  C  C52  1  0.08282400  0.47574300  0.98022900  1
  C  C53  1  0.98935100  0.52720500  0.96766300  1
  C  C54  1  0.89898200  0.46803400  0.96339200  1
  C  C55  1  0.98542200  0.64092400  0.95564900  1
  C  C56  1  0.01937600  0.69595300  0.00509100  1
  C  C57  1  0.68149600  0.79551600  0.47851700  1
  C  C58  1  0.74261500  0.76651000  0.52084300  1
  C  C59  1  0.76483100  0.66294400  0.52971600  1
  C  C60  1  0.82992000  0.51385800  0.56084900  1
  C  C61  1  0.77718200  0.49616900  0.51469800  1
  C  C62  1  0.74014800  0.58881400  0.49565700  1
  C  C63  1  0.68075800  0.61257200  0.45419500  1
  C  C64  1  0.65176000  0.71322000  0.44708100  1
  C  C65  1  0.63452700  0.89297100  0.47481700  1
  C  C66  1  0.68414900  0.98921400  0.49133900  1
  C  C67  1  0.62557500  0.07722900  0.49470000  1
  C  C68  1  0.52425700  0.08282400  0.48022900  1
  C  C69  1  0.47279500  0.98935100  0.46766300  1
  C  C70  1  0.53196600  0.89898200  0.46339200  1
  C  C71  1  0.35907600  0.98542200  0.45564900  1
  C  C72  1  0.30404700  0.01937600  0.50509100  1
  N  N1  1  0.36680500  0.82113700  0.58821700  1
  N  N2  1  0.17886300  0.36680500  0.08821700  1
  N  N3  1  0.61415400  0.17643500  0.06644700  1
  N  N4  1  0.82356500  0.61415400  0.56644700  1
  O  O1  1  0.08016500  0.00000000  0.92746600  1
  O  O2  1  0.91983500  0.00000000  0.92746600  1
  O  O3  1  0.08016500  0.85493200  0.00000000  1
  O  O4  1  0.91983500  0.85493200  0.00000000  1
  O  O5  1  0.08016500  0.00000000  0.07253400  1
  O  O6  1  0.91983500  0.00000000  0.07253400  1
  O  O7  1  0.08016500  0.14506800  0.00000000  1
  O  O8  1  0.91983500  0.14506800  0.00000000  1
  O  O9  1  0.00000000  0.08016500  0.42746600  1
  O  O10  1  0.00000000  0.91983500  0.42746600  1
  O  O11  1  0.14506800  0.08016500  0.50000000  1
  O  O12  1  0.14506800  0.91983500  0.50000000  1
  O  O13  1  0.00000000  0.08016500  0.57253400  1
  O  O14  1  0.00000000  0.91983500  0.57253400  1
  O  O15  1  0.85493200  0.08016500  0.50000000  1
  O  O16  1  0.85493200  0.91983500  0.50000000  1
