# generated using pymatgen
data_CuH6C15(BrO3)2
_symmetry_space_group_name_H-M   'P 1'
_cell_length_a   22.29350000
_cell_length_b   22.29350000
_cell_length_c   22.29350000
_cell_angle_alpha   90.00000000
_cell_angle_beta   90.00000000
_cell_angle_gamma   90.00000000
_symmetry_Int_Tables_number   1
_chemical_formula_structural   CuH6C15(BrO3)2
_chemical_formula_sum   'Cu12 H72 C180 Br24 O72'
_cell_volume   11079.87267125
_cell_formula_units_Z   12
loop_
 _symmetry_equiv_pos_site_id
 _symmetry_equiv_pos_as_xyz
  1  'x, y, z'
loop_
 _atom_site_type_symbol
 _atom_site_label
 _atom_site_symmetry_multiplicity
 _atom_site_fract_x
 _atom_site_fract_y
 _atom_site_fract_z
 _atom_site_occupancy
  Cu  Cu1  1  0.94044700  0.50000000  0.50000000  1
  Cu  Cu2  1  0.05955300  0.50000000  0.50000000  1
  Cu  Cu3  1  0.50000000  0.94044700  0.50000000  1
  Cu  Cu4  1  0.50000000  0.05955300  0.50000000  1
  Cu  Cu5  1  0.50000000  0.50000000  0.94044700  1
  Cu  Cu6  1  0.50000000  0.50000000  0.05955300  1
  Cu  Cu7  1  0.44044700  0.00000000  0.00000000  1
  Cu  Cu8  1  0.55955300  0.00000000  0.00000000  1
  Cu  Cu9  1  0.00000000  0.44044700  0.00000000  1
  Cu  Cu10  1  0.00000000  0.55955300  0.00000000  1
  Cu  Cu11  1  0.00000000  0.00000000  0.44044700  1
  Cu  Cu12  1  0.00000000  0.00000000  0.55955300  1
  H  H1  1  0.10963800  0.36048200  0.73668800  1
  H  H2  1  0.17738700  0.28789700  0.78050000  1
  H  H3  1  0.19506200  0.39461600  0.93917200  1
  H  H4  1  0.12744000  0.46944100  0.89711100  1
  H  H5  1  0.24967800  0.25032200  0.85509200  1
  H  H6  1  0.26885300  0.30485900  0.91340000  1
  H  H7  1  0.26331200  0.89036200  0.36048200  1
  H  H8  1  0.21950000  0.82261300  0.28789700  1
  H  H9  1  0.06082800  0.80493800  0.39461600  1
  H  H10  1  0.10288900  0.87256000  0.46944100  1
  H  H11  1  0.14490800  0.75032200  0.25032200  1
  H  H12  1  0.08660000  0.73114700  0.30485900  1
  H  H13  1  0.73668800  0.10963800  0.36048200  1
  H  H14  1  0.78050000  0.17738700  0.28789700  1
  H  H15  1  0.93917200  0.19506200  0.39461600  1
  H  H16  1  0.89711100  0.12744000  0.46944100  1
  H  H17  1  0.85509200  0.24967800  0.25032200  1
  H  H18  1  0.91340000  0.26885300  0.30485900  1
  H  H19  1  0.36048200  0.26331200  0.89036200  1
  H  H20  1  0.28789700  0.21950000  0.82261300  1
  H  H21  1  0.39461600  0.06082800  0.80493800  1
  H  H22  1  0.46944100  0.10288900  0.87256000  1
  H  H23  1  0.25032200  0.14490800  0.75032200  1
  H  H24  1  0.30485900  0.08660000  0.73114700  1
  H  H25  1  0.36048200  0.73668800  0.10963800  1
  H  H26  1  0.28789700  0.78050000  0.17738700  1
  H  H27  1  0.39461600  0.93917200  0.19506200  1
  H  H28  1  0.46944100  0.89711100  0.12744000  1
  H  H29  1  0.25032200  0.85509200  0.24967800  1
  H  H30  1  0.30485900  0.91340000  0.26885300  1
  H  H31  1  0.36048200  0.89036200  0.73668800  1
  H  H32  1  0.28789700  0.82261300  0.78050000  1
  H  H33  1  0.39461600  0.80493800  0.93917200  1
  H  H34  1  0.46944100  0.87256000  0.89711100  1
  H  H35  1  0.25032200  0.75032200  0.85509200  1
  H  H36  1  0.30485900  0.73114700  0.91340000  1
  H  H37  1  0.36048200  0.10963800  0.26331200  1
  H  H38  1  0.28789700  0.17738700  0.21950000  1
  H  H39  1  0.39461600  0.19506200  0.06082800  1
  H  H40  1  0.46944100  0.12744000  0.10288900  1
  H  H41  1  0.25032200  0.24967800  0.14490800  1
  H  H42  1  0.30485900  0.26885300  0.08660000  1
  H  H43  1  0.89036200  0.26331200  0.63951800  1
  H  H44  1  0.82261300  0.21950000  0.71210300  1
  H  H45  1  0.80493800  0.06082800  0.60538400  1
  H  H46  1  0.87256000  0.10288900  0.53055900  1
  H  H47  1  0.75032200  0.14490800  0.74967800  1
  H  H48  1  0.73114700  0.08660000  0.69514100  1
  H  H49  1  0.10963800  0.73668800  0.63951800  1
  H  H50  1  0.17738700  0.78050000  0.71210300  1
  H  H51  1  0.19506200  0.93917200  0.60538400  1
  H  H52  1  0.12744000  0.89711100  0.53055900  1
  H  H53  1  0.24967800  0.85509200  0.74967800  1
  H  H54  1  0.26885300  0.91340000  0.69514100  1
  H  H55  1  0.26331200  0.36048200  0.10963800  1
  H  H56  1  0.21950000  0.28789700  0.17738700  1
  H  H57  1  0.06082800  0.39461600  0.19506200  1
  H  H58  1  0.10288900  0.46944100  0.12744000  1
  H  H59  1  0.14490800  0.25032200  0.24967800  1
  H  H60  1  0.08660000  0.30485900  0.26885300  1
  H  H61  1  0.73668800  0.36048200  0.89036200  1
  H  H62  1  0.78050000  0.28789700  0.82261300  1
  H  H63  1  0.93917200  0.39461600  0.80493800  1
  H  H64  1  0.89711100  0.46944100  0.87256000  1
  H  H65  1  0.85509200  0.25032200  0.75032200  1
  H  H66  1  0.91340000  0.30485900  0.73114700  1
  H  H67  1  0.89036200  0.36048200  0.26331200  1
  H  H68  1  0.82261300  0.28789700  0.21950000  1
  H  H69  1  0.80493800  0.39461600  0.06082800  1
  H  H70  1  0.87256000  0.46944100  0.10288900  1
  H  H71  1  0.75032200  0.25032200  0.14490800  1
  H  H72  1  0.73114700  0.30485900  0.08660000  1
  C  C1  1  0.02250100  0.54941100  0.21623800  1
  C  C2  1  0.02829700  0.54627600  0.28564400  1
  C  C3  1  0.99789800  0.50638300  0.31706300  1
  C  C4  1  0.96147000  0.46330200  0.27989900  1
  C  C5  1  0.10495000  0.41859100  0.81691600  1
  C  C6  1  0.12112300  0.36861800  0.78291900  1
  C  C7  1  0.16498600  0.32862200  0.80317200  1
  C  C8  1  0.00000000  0.61312500  0.50000000  1
  C  C9  1  0.19075100  0.33625300  0.85943200  1
  C  C10  1  0.17684300  0.38672100  0.89567800  1
  C  C11  1  0.13230100  0.42700300  0.87315300  1
  C  C12  1  0.23129600  0.28639400  0.88547800  1
  C  C13  1  0.05000400  0.46428700  0.78891300  1
  C  C14  1  0.01294600  0.50445700  0.81857800  1
  C  C15  1  0.97749900  0.54941100  0.78376200  1
  C  C16  1  0.97170300  0.54627600  0.71435600  1
  C  C17  1  0.00210200  0.50638300  0.68293700  1
  C  C18  1  0.03853000  0.46330200  0.72010100  1
  C  C19  1  0.18308400  0.89505000  0.41859100  1
  C  C20  1  0.21708100  0.87887700  0.36861800  1
  C  C21  1  0.19682800  0.83501400  0.32862200  1
  C  C22  1  0.14056800  0.80924900  0.33625300  1
  C  C23  1  0.10432200  0.82315700  0.38672100  1
  C  C24  1  0.12684700  0.86769900  0.42700300  1
  C  C25  1  0.11452200  0.76870400  0.28639400  1
  C  C26  1  0.21108700  0.94999600  0.46428700  1
  C  C27  1  0.18142200  0.98705400  0.50445700  1
  C  C28  1  0.21623800  0.02250100  0.54941100  1
  C  C29  1  0.28564400  0.02829700  0.54627600  1
  C  C30  1  0.31706300  0.99789800  0.50638300  1
  C  C31  1  0.27989900  0.96147000  0.46330200  1
  C  C32  1  0.81691600  0.10495000  0.41859100  1
  C  C33  1  0.78291900  0.12112300  0.36861800  1
  C  C34  1  0.80317200  0.16498600  0.32862200  1
  C  C35  1  0.85943200  0.19075100  0.33625300  1
  C  C36  1  0.89567800  0.17684300  0.38672100  1
  C  C37  1  0.87315300  0.13230100  0.42700300  1
  C  C38  1  0.88547800  0.23129600  0.28639400  1
  C  C39  1  0.38687500  0.00000000  0.50000000  1
  C  C40  1  0.78891300  0.05000400  0.46428700  1
  C  C41  1  0.81857800  0.01294600  0.50445700  1
  C  C42  1  0.78376200  0.97749900  0.54941100  1
  C  C43  1  0.71435600  0.97170300  0.54627600  1
  C  C44  1  0.68293700  0.00210200  0.50638300  1
  C  C45  1  0.72010100  0.03853000  0.46330200  1
  C  C46  1  0.41859100  0.18308400  0.89505000  1
  C  C47  1  0.36861800  0.21708100  0.87887700  1
  C  C48  1  0.32862200  0.19682800  0.83501400  1
  C  C49  1  0.33625300  0.14056800  0.80924900  1
  C  C50  1  0.38672100  0.10432200  0.82315700  1
  C  C51  1  0.42700300  0.12684700  0.86769900  1
  C  C52  1  0.28639400  0.11452200  0.76870400  1
  C  C53  1  0.50000000  0.00000000  0.38687500  1
  C  C54  1  0.46428700  0.21108700  0.94999600  1
  C  C55  1  0.50445700  0.18142200  0.98705400  1
  C  C56  1  0.54941100  0.21623800  0.02250100  1
  C  C57  1  0.54627600  0.28564400  0.02829700  1
  C  C58  1  0.50638300  0.31706300  0.99789800  1
  C  C59  1  0.46330200  0.27989900  0.96147000  1
  C  C60  1  0.41859100  0.81691600  0.10495000  1
  C  C61  1  0.00000000  0.50000000  0.38687500  1
  C  C62  1  0.36861800  0.78291900  0.12112300  1
  C  C63  1  0.32862200  0.80317200  0.16498600  1
  C  C64  1  0.33625300  0.85943200  0.19075100  1
  C  C65  1  0.38672100  0.89567800  0.17684300  1
  C  C66  1  0.42700300  0.87315300  0.13230100  1
  C  C67  1  0.28639400  0.88547800  0.23129600  1
  C  C68  1  0.46428700  0.78891300  0.05000400  1
  C  C69  1  0.50445700  0.81857800  0.01294600  1
  C  C70  1  0.54941100  0.78376200  0.97749900  1
  C  C71  1  0.54627600  0.71435600  0.97170300  1
  C  C72  1  0.50638300  0.68293700  0.00210200  1
  C  C73  1  0.46330200  0.72010100  0.03853000  1
  C  C74  1  0.61312500  0.00000000  0.50000000  1
  C  C75  1  0.41859100  0.89505000  0.81691600  1
  C  C76  1  0.36861800  0.87887700  0.78291900  1
  C  C77  1  0.32862200  0.83501400  0.80317200  1
  C  C78  1  0.33625300  0.80924900  0.85943200  1
  C  C79  1  0.38672100  0.82315700  0.89567800  1
  C  C80  1  0.42700300  0.86769900  0.87315300  1
  C  C81  1  0.28639400  0.76870400  0.88547800  1
  C  C82  1  0.46428700  0.94999600  0.78891300  1
  C  C83  1  0.50445700  0.98705400  0.81857800  1
  C  C84  1  0.54941100  0.02250100  0.78376200  1
  C  C85  1  0.54627600  0.02829700  0.71435600  1
  C  C86  1  0.50638300  0.99789800  0.68293700  1
  C  C87  1  0.46330200  0.96147000  0.72010100  1
  C  C88  1  0.41859100  0.10495000  0.18308400  1
  C  C89  1  0.36861800  0.12112300  0.21708100  1
  C  C90  1  0.32862200  0.16498600  0.19682800  1
  C  C91  1  0.33625300  0.19075100  0.14056800  1
  C  C92  1  0.38672100  0.17684300  0.10432200  1
  C  C93  1  0.50000000  0.00000000  0.61312500  1
  C  C94  1  0.42700300  0.13230100  0.12684700  1
  C  C95  1  0.28639400  0.23129600  0.11452200  1
  C  C96  1  0.46428700  0.05000400  0.21108700  1
  C  C97  1  0.50445700  0.01294600  0.18142200  1
  C  C98  1  0.54941100  0.97749900  0.21623800  1
  C  C99  1  0.54627600  0.97170300  0.28564400  1
  C  C100  1  0.50638300  0.00210200  0.31706300  1
  C  C101  1  0.46330200  0.03853000  0.27989900  1
  C  C102  1  0.89505000  0.18308400  0.58140900  1
  C  C103  1  0.87887700  0.21708100  0.63138200  1
  C  C104  1  0.83501400  0.19682800  0.67137800  1
  C  C105  1  0.80924900  0.14056800  0.66374700  1
  C  C106  1  0.82315700  0.10432200  0.61327900  1
  C  C107  1  0.86769900  0.12684700  0.57299700  1
  C  C108  1  0.76870400  0.11452200  0.71360600  1
  C  C109  1  0.94999600  0.21108700  0.53571300  1
  C  C110  1  0.98705400  0.18142200  0.49554300  1
  C  C111  1  0.02250100  0.21623800  0.45058900  1
  C  C112  1  0.02829700  0.28564400  0.45372400  1
  C  C113  1  0.99789800  0.31706300  0.49361700  1
  C  C114  1  0.96147000  0.27989900  0.53669800  1
  C  C115  1  0.10495000  0.81691600  0.58140900  1
  C  C116  1  0.12112300  0.78291900  0.63138200  1
  C  C117  1  0.16498600  0.80317200  0.67137800  1
  C  C118  1  0.19075100  0.85943200  0.66374700  1
  C  C119  1  0.17684300  0.89567800  0.61327900  1
  C  C120  1  0.13230100  0.87315300  0.57299700  1
  C  C121  1  0.23129600  0.88547800  0.71360600  1
  C  C122  1  0.50000000  0.38687500  0.00000000  1
  C  C123  1  0.05000400  0.78891300  0.53571300  1
  C  C124  1  0.01294600  0.81857800  0.49554300  1
  C  C125  1  0.97749900  0.78376200  0.45058900  1
  C  C126  1  0.97170300  0.71435600  0.45372400  1
  C  C127  1  0.00210200  0.68293700  0.49361700  1
  C  C128  1  0.03853000  0.72010100  0.53669800  1
  C  C129  1  0.18308400  0.41859100  0.10495000  1
  C  C130  1  0.21708100  0.36861800  0.12112300  1
  C  C131  1  0.19682800  0.32862200  0.16498600  1
  C  C132  1  0.14056800  0.33625300  0.19075100  1
  C  C133  1  0.10432200  0.38672100  0.17684300  1
  C  C134  1  0.12684700  0.42700300  0.13230100  1
  C  C135  1  0.11452200  0.28639400  0.23129600  1
  C  C136  1  0.21108700  0.46428700  0.05000400  1
  C  C137  1  0.18142200  0.50445700  0.01294600  1
  C  C138  1  0.38687500  0.50000000  0.00000000  1
  C  C139  1  0.21623800  0.54941100  0.97749900  1
  C  C140  1  0.28564400  0.54627600  0.97170300  1
  C  C141  1  0.31706300  0.50638300  0.00210200  1
  C  C142  1  0.27989900  0.46330200  0.03853000  1
  C  C143  1  0.81691600  0.41859100  0.89505000  1
  C  C144  1  0.78291900  0.36861800  0.87887700  1
  C  C145  1  0.80317200  0.32862200  0.83501400  1
  C  C146  1  0.85943200  0.33625300  0.80924900  1
  C  C147  1  0.89567800  0.38672100  0.82315700  1
  C  C148  1  0.87315300  0.42700300  0.86769900  1
  C  C149  1  0.88547800  0.28639400  0.76870400  1
  C  C150  1  0.78891300  0.46428700  0.94999600  1
  C  C151  1  0.81857800  0.50445700  0.98705400  1
  C  C152  1  0.78376200  0.54941100  0.02250100  1
  C  C153  1  0.71435600  0.54627600  0.02829700  1
  C  C154  1  0.68293700  0.50638300  0.99789800  1
  C  C155  1  0.72010100  0.46330200  0.96147000  1
  C  C156  1  0.50000000  0.61312500  0.00000000  1
  C  C157  1  0.61312500  0.50000000  0.00000000  1
  C  C158  1  0.50000000  0.00000000  0.88687500  1
  C  C159  1  0.50000000  0.88687500  0.00000000  1
  C  C160  1  0.00000000  0.38687500  0.50000000  1
  C  C161  1  0.50000000  0.00000000  0.11312500  1
  C  C162  1  0.50000000  0.11312500  0.00000000  1
  C  C163  1  0.88687500  0.50000000  0.00000000  1
  C  C164  1  0.00000000  0.50000000  0.88687500  1
  C  C165  1  0.11312500  0.50000000  0.00000000  1
  C  C166  1  0.00000000  0.50000000  0.11312500  1
  C  C167  1  0.00000000  0.88687500  0.50000000  1
  C  C168  1  0.88687500  0.00000000  0.50000000  1
  C  C169  1  0.00000000  0.11312500  0.50000000  1
  C  C170  1  0.00000000  0.50000000  0.61312500  1
  C  C171  1  0.11312500  0.00000000  0.50000000  1
  C  C172  1  0.89505000  0.41859100  0.18308400  1
  C  C173  1  0.87887700  0.36861800  0.21708100  1
  C  C174  1  0.83501400  0.32862200  0.19682800  1
  C  C175  1  0.80924900  0.33625300  0.14056800  1
  C  C176  1  0.82315700  0.38672100  0.10432200  1
  C  C177  1  0.86769900  0.42700300  0.12684700  1
  C  C178  1  0.76870400  0.28639400  0.11452200  1
  C  C179  1  0.94999600  0.46428700  0.21108700  1
  C  C180  1  0.98705400  0.50445700  0.18142200  1
  Br  Br1  1  0.07841400  0.60892800  0.31703600  1
  Br  Br2  1  0.18006800  0.23490100  0.94259800  1
  Br  Br3  1  0.92158600  0.60892800  0.68296400  1
  Br  Br4  1  0.05740200  0.81993200  0.23490100  1
  Br  Br5  1  0.31703600  0.07841400  0.60892800  1
  Br  Br6  1  0.94259800  0.18006800  0.23490100  1
  Br  Br7  1  0.68296400  0.92158600  0.60892800  1
  Br  Br8  1  0.23490100  0.05740200  0.81993200  1
  Br  Br9  1  0.60892800  0.31703600  0.07841400  1
  Br  Br10  1  0.23490100  0.94259800  0.18006800  1
  Br  Br11  1  0.60892800  0.68296400  0.92158600  1
  Br  Br12  1  0.23490100  0.81993200  0.94259800  1
  Br  Br13  1  0.60892800  0.07841400  0.68296400  1
  Br  Br14  1  0.23490100  0.18006800  0.05740200  1
  Br  Br15  1  0.60892800  0.92158600  0.31703600  1
  Br  Br16  1  0.81993200  0.05740200  0.76509900  1
  Br  Br17  1  0.07841400  0.31703600  0.39107200  1
  Br  Br18  1  0.18006800  0.94259800  0.76509900  1
  Br  Br19  1  0.92158600  0.68296400  0.39107200  1
  Br  Br20  1  0.05740200  0.23490100  0.18006800  1
  Br  Br21  1  0.31703600  0.60892800  0.92158600  1
  Br  Br22  1  0.94259800  0.23490100  0.81993200  1
  Br  Br23  1  0.68296400  0.60892800  0.07841400  1
  Br  Br24  1  0.81993200  0.23490100  0.05740200  1
  O  O1  1  0.95260700  0.50000000  0.58576300  1
  O  O2  1  0.05159500  0.59037300  0.19382100  1
  O  O3  1  0.93793000  0.42532200  0.31040000  1
  O  O4  1  0.04739300  0.58576300  0.50000000  1
  O  O5  1  0.94840500  0.59037300  0.80617900  1
  O  O6  1  0.06207000  0.42532200  0.68960000  1
  O  O7  1  0.95260700  0.58576300  0.50000000  1
  O  O8  1  0.19382100  0.05159500  0.59037300  1
  O  O9  1  0.31040000  0.93793000  0.42532200  1
  O  O10  1  0.41423700  0.04739300  0.50000000  1
  O  O11  1  0.80617900  0.94840500  0.59037300  1
  O  O12  1  0.68960000  0.06207000  0.42532200  1
  O  O13  1  0.41423700  0.95260700  0.50000000  1
  O  O14  1  0.59037300  0.19382100  0.05159500  1
  O  O15  1  0.42532200  0.31040000  0.93793000  1
  O  O16  1  0.50000000  0.04739300  0.41423700  1
  O  O17  1  0.50000000  0.95260700  0.41423700  1
  O  O18  1  0.59037300  0.80617900  0.94840500  1
  O  O19  1  0.42532200  0.68960000  0.06207000  1
  O  O20  1  0.58576300  0.04739300  0.50000000  1
  O  O21  1  0.59037300  0.05159500  0.80617900  1
  O  O22  1  0.58576300  0.95260700  0.50000000  1
  O  O23  1  0.42532200  0.93793000  0.68960000  1
  O  O24  1  0.50000000  0.04739300  0.58576300  1
  O  O25  1  0.59037300  0.94840500  0.19382100  1
  O  O26  1  0.42532200  0.06207000  0.31040000  1
  O  O27  1  0.50000000  0.95260700  0.58576300  1
  O  O28  1  0.05159500  0.19382100  0.40962700  1
  O  O29  1  0.93793000  0.31040000  0.57467800  1
  O  O30  1  0.04739300  0.50000000  0.41423700  1
  O  O31  1  0.94840500  0.80617900  0.40962700  1
  O  O32  1  0.50000000  0.41423700  0.04739300  1
  O  O33  1  0.06207000  0.68960000  0.57467800  1
  O  O34  1  0.50000000  0.41423700  0.95260700  1
  O  O35  1  0.19382100  0.59037300  0.94840500  1
  O  O36  1  0.31040000  0.42532200  0.06207000  1
  O  O37  1  0.41423700  0.50000000  0.04739300  1
  O  O38  1  0.41423700  0.50000000  0.95260700  1
  O  O39  1  0.80617900  0.59037300  0.05159500  1
  O  O40  1  0.68960000  0.42532200  0.93793000  1
  O  O41  1  0.50000000  0.58576300  0.04739300  1
  O  O42  1  0.50000000  0.58576300  0.95260700  1
  O  O43  1  0.95260700  0.50000000  0.41423700  1
  O  O44  1  0.58576300  0.50000000  0.04739300  1
  O  O45  1  0.58576300  0.50000000  0.95260700  1
  O  O46  1  0.54739300  0.00000000  0.91423700  1
  O  O47  1  0.45260700  0.00000000  0.91423700  1
  O  O48  1  0.54739300  0.91423700  0.00000000  1
  O  O49  1  0.45260700  0.91423700  0.00000000  1
  O  O50  1  0.54739300  0.00000000  0.08576300  1
  O  O51  1  0.45260700  0.00000000  0.08576300  1
  O  O52  1  0.54739300  0.08576300  0.00000000  1
  O  O53  1  0.45260700  0.08576300  0.00000000  1
  O  O54  1  0.91423700  0.54739300  0.00000000  1
  O  O55  1  0.04739300  0.41423700  0.50000000  1
  O  O56  1  0.91423700  0.45260700  0.00000000  1
  O  O57  1  0.00000000  0.54739300  0.91423700  1
  O  O58  1  0.00000000  0.45260700  0.91423700  1
  O  O59  1  0.08576300  0.54739300  0.00000000  1
  O  O60  1  0.08576300  0.45260700  0.00000000  1
  O  O61  1  0.00000000  0.54739300  0.08576300  1
  O  O62  1  0.00000000  0.45260700  0.08576300  1
  O  O63  1  0.95260700  0.41423700  0.50000000  1
  O  O64  1  0.00000000  0.91423700  0.54739300  1
  O  O65  1  0.00000000  0.91423700  0.45260700  1
  O  O66  1  0.91423700  0.00000000  0.54739300  1
  O  O67  1  0.91423700  0.00000000  0.45260700  1
  O  O68  1  0.00000000  0.08576300  0.54739300  1
  O  O69  1  0.00000000  0.08576300  0.45260700  1
  O  O70  1  0.08576300  0.00000000  0.54739300  1
  O  O71  1  0.08576300  0.00000000  0.45260700  1
  O  O72  1  0.04739300  0.50000000  0.58576300  1
