# Generated by REPEAT Assigner based on pymatgen
data_DB13-lvt-Syn035976
_audit_creation_date              2022-05-24
_audit_creation_method            REPEAT_Assigner
_cell_length_a                    26.206100
_cell_length_b                    26.206100
_cell_length_c                    24.116800
_cell_angle_alpha                 90.000000
_cell_angle_beta                  90.000000
_cell_angle_gamma                 90.000000
_cell_volume                      16562.445783
_symmetry_space_group_name_H-M    P1
_symmetry_Int_Tables_number       1
loop_
    _symmetry_equiv_pos_site_id
    _symmetry_equiv_pos_as_xyz
    1  x,y,z
loop_
    _atom_site_type_symbol
    _atom_site_label
    _atom_site_fract_x
    _atom_site_fract_y
    _atom_site_fract_z
    _atom_type_partial_charge
    C   C1    0.078014  0.538152  0.052286  0.783713
    C   C2    0.078014  0.441917  0.947714  0.787262
    C   C3    0.941917  0.441917  0.947714  0.784453
    C   C4    0.941917  0.538152  0.052286  0.782824
    C   C5    0.078014  0.941917  0.052286  0.607887
    C   C6    0.856706  0.883670  0.062290  -0.137752
    C   C7    0.905980  0.898777  0.079873  0.091530
    C   C8    0.925177  0.879330  0.133126  -0.328130
    C   C9    0.894970  0.850499  0.170558  0.061986
    C   C10   0.843983  0.840919  0.159072  -0.183826
    C   C11   0.827706  0.859196  0.107095  0.043740
    C   C12   0.836336  0.885375  0.005417  0.476860
    C   C13   0.863561  0.886032  0.946683  0.035156
    C   C14   0.840261  0.896444  0.895786  -0.470548
    C   C15   0.873232  0.896866  0.849106  0.550327
    C   C16   0.906762  0.897050  0.760752  0.196487
    C   C17   0.951199  0.875541  0.780571  -0.062111
    C   C18   0.921491  0.881074  0.871549  0.111662
    C   C19   0.663225  0.096399  0.562290  -0.137676
    C   C20   0.613951  0.081292  0.579873  0.091609
    C   C21   0.594754  0.100739  0.633126  -0.327532
    C   C22   0.624961  0.129570  0.670558  0.058311
    C   C23   0.675948  0.139149  0.659072  -0.182693
    C   C24   0.692225  0.120873  0.607095  0.045611
    C   C25   0.683595  0.094694  0.505417  0.474924
    C   C26   0.656370  0.094037  0.446683  0.033916
    C   C27   0.679670  0.083624  0.395786  -0.467735
    C   C28   0.646699  0.083203  0.349106  0.553937
    C   C29   0.613169  0.083019  0.260752  0.197694
    C   C30   0.568732  0.104528  0.280571  -0.065779
    C   C31   0.598440  0.098995  0.371549  0.104638
    C   C32   0.366330  0.586775  0.312290  -0.170151
    C   C33   0.351223  0.636049  0.329873  0.112944
    C   C34   0.578014  0.038152  0.552286  0.611335
    C   C35   0.370670  0.655246  0.383126  -0.310259
    C   C36   0.399501  0.625039  0.420558  0.068511
    C   C37   0.409081  0.574052  0.409072  -0.177707
    C   C38   0.390804  0.557775  0.357095  0.044925
    C   C39   0.364625  0.566405  0.255417  0.523380
    C   C40   0.363968  0.593630  0.196683  -0.027120
    C   C41   0.353556  0.570330  0.145786  -0.424631
    C   C42   0.353134  0.603301  0.099106  0.454752
    C   C43   0.352950  0.636831  0.010752  0.152842
    C   C44   0.374459  0.681268  0.030571  0.062504
    C   C45   0.368926  0.651560  0.121549  0.323230
    C   C46   0.153601  0.393294  0.812290  -0.172538
    C   C47   0.168708  0.344020  0.829873  0.114788
    C   C48   0.149261  0.324823  0.883126  -0.311365
    C   C49   0.120430  0.355030  0.920558  0.070547
    C   C50   0.110851  0.406017  0.909072  -0.180543
    C   C51   0.129127  0.422294  0.857095  0.045268
    C   C52   0.578014  0.941917  0.447714  0.608085
    C   C53   0.155306  0.413664  0.755417  0.526004
    C   C54   0.155963  0.386439  0.696683  -0.027871
    C   C55   0.166376  0.409739  0.645786  -0.428392
    C   C56   0.166797  0.376768  0.599106  0.456061
    C   C57   0.166981  0.343238  0.510752  0.149695
    C   C58   0.145472  0.298801  0.530571  0.065225
    C   C59   0.151005  0.328509  0.621549  0.326368
    C   C60   0.941917  0.941917  0.052286  0.609830
    C   C61   0.663225  0.883670  0.437710  -0.140617
    C   C62   0.613951  0.898777  0.420127  0.094997
    C   C63   0.594754  0.879330  0.366874  -0.331312
    C   C64   0.624961  0.850499  0.329442  0.062664
    C   C65   0.675948  0.840919  0.340928  -0.185079
    C   C66   0.692225  0.859196  0.392905  0.045262
    C   C67   0.683595  0.885375  0.494583  0.478588
    C   C68   0.656370  0.886032  0.553317  0.034302
    C   C69   0.679670  0.896444  0.604214  -0.467976
    C   C70   0.646699  0.896866  0.650894  0.548262
    C   C71   0.613169  0.897050  0.739248  0.194488
    C   C72   0.441917  0.941917  0.447714  0.609648
    C   C73   0.568732  0.875541  0.719429  -0.062784
    C   C74   0.598440  0.881074  0.628451  0.111072
    C   C75   0.856706  0.096399  0.937710  -0.140008
    C   C76   0.905980  0.081292  0.920127  0.095230
    C   C77   0.925177  0.100739  0.866874  -0.329952
    C   C78   0.894970  0.129570  0.829442  0.062829
    C   C79   0.843983  0.139149  0.840928  -0.185703
    C   C80   0.827706  0.120873  0.892905  0.047633
    C   C81   0.836336  0.094694  0.994583  0.476003
    C   C82   0.863561  0.094037  0.053317  0.034953
    C   C83   0.840261  0.083624  0.104214  -0.470482
    C   C84   0.873232  0.083203  0.150894  0.556434
    C   C85   0.906762  0.083019  0.239248  0.198076
    C   C86   0.951199  0.104528  0.219429  -0.064933
    C   C87   0.921491  0.098995  0.128451  0.103991
    C   C88   0.441917  0.038152  0.552286  0.608782
    C   C89   0.153601  0.586775  0.187710  -0.172987
    C   C90   0.168708  0.636049  0.170127  0.114784
    C   C91   0.149261  0.655246  0.116874  -0.309434
    C   C92   0.120430  0.625039  0.079442  0.067066
    C   C93   0.110851  0.574052  0.090928  -0.174797
    C   C94   0.129127  0.557775  0.142905  0.041940
    C   C95   0.155306  0.566405  0.244583  0.527666
    C   C96   0.155963  0.593630  0.303317  -0.030316
    C   C97   0.166376  0.570330  0.354214  -0.426182
    C   C98   0.166797  0.603301  0.400894  0.455575
    C   C99   0.166981  0.636831  0.489248  0.151000
    C   C100  0.145472  0.681268  0.469429  0.064109
    C   C101  0.151005  0.651560  0.378451  0.324936
    C   C102  0.366330  0.393294  0.687710  -0.172061
    C   C103  0.351223  0.344020  0.670127  0.113358
    C   C104  0.370670  0.324823  0.616874  -0.311608
    C   C105  0.399501  0.355030  0.579442  0.070492
    C   C106  0.409081  0.406017  0.590928  -0.180534
    C   C107  0.390804  0.422294  0.642905  0.047737
    C   C108  0.364625  0.413664  0.744583  0.524372
    C   C109  0.363968  0.386439  0.803317  -0.028956
    C   C110  0.353556  0.409739  0.854214  -0.424442
    C   C111  0.353134  0.376768  0.900894  0.454414
    C   C112  0.352950  0.343238  0.989248  0.153179
    C   C113  0.374459  0.298801  0.969429  0.061394
    C   C114  0.368926  0.328509  0.878451  0.323136
    C   C115  0.163225  0.096399  0.937710  -0.137938
    C   C116  0.113951  0.081292  0.920127  0.091670
    C   C117  0.094754  0.100739  0.866874  -0.327497
    C   C118  0.124961  0.129570  0.829442  0.058292
    C   C119  0.308083  0.671986  0.302286  0.550022
    C   C120  0.175948  0.139149  0.840928  -0.182935
    C   C121  0.192225  0.120873  0.892905  0.046034
    C   C122  0.183595  0.094694  0.994583  0.475148
    C   C123  0.156370  0.094037  0.053317  0.033553
    C   C124  0.179670  0.083624  0.104214  -0.467318
    C   C125  0.146699  0.083203  0.150894  0.554203
    C   C126  0.113169  0.083019  0.239248  0.198331
    C   C127  0.068732  0.104528  0.219429  -0.066065
    C   C128  0.098440  0.098995  0.128451  0.104385
    C   C129  0.356706  0.883670  0.437710  -0.138043
    C   C130  0.405980  0.898777  0.420127  0.091620
    C   C131  0.425177  0.879330  0.366874  -0.328100
    C   C132  0.394970  0.850499  0.329442  0.061944
    C   C133  0.343983  0.840919  0.340928  -0.184020
    C   C134  0.327706  0.859196  0.392905  0.044143
    C   C135  0.336336  0.885375  0.494583  0.477136
    C   C136  0.211848  0.671986  0.197714  0.550591
    C   C137  0.363561  0.886032  0.553317  0.034759
    C   C138  0.340261  0.896444  0.604214  -0.470123
    C   C139  0.373232  0.896866  0.650894  0.550605
    C   C140  0.406762  0.897050  0.739248  0.197140
    C   C141  0.451199  0.875541  0.719429  -0.062410
    C   C142  0.421491  0.881074  0.628451  0.111398
    C   C143  0.653601  0.393294  0.687710  -0.172392
    C   C144  0.668708  0.344020  0.670127  0.114859
    C   C145  0.649261  0.324823  0.616874  -0.311488
    C   C146  0.620430  0.355030  0.579442  0.070615
    C   C147  0.610851  0.406017  0.590928  -0.180260
    C   C148  0.629127  0.422294  0.642905  0.044844
    C   C149  0.655306  0.413664  0.744583  0.525736
    C   C150  0.655963  0.386439  0.803317  -0.027557
    C   C151  0.666376  0.409739  0.854214  -0.428797
    C   C152  0.666797  0.376768  0.900894  0.456056
    C   C153  0.666981  0.343238  0.989248  0.149543
    C   C154  0.645472  0.298801  0.969429  0.065203
    C   C155  0.211848  0.808083  0.197714  0.821400
    C   C156  0.651005  0.328509  0.878451  0.326468
    C   C157  0.866330  0.586775  0.187710  -0.169861
    C   C158  0.851223  0.636049  0.170127  0.112869
    C   C159  0.870670  0.655246  0.116874  -0.310272
    C   C160  0.899501  0.625039  0.079442  0.068494
    C   C161  0.909081  0.574052  0.090928  -0.177420
    C   C162  0.890804  0.557775  0.142905  0.044454
    C   C163  0.864625  0.566405  0.244583  0.523015
    C   C164  0.863968  0.593630  0.303317  -0.026733
    C   C165  0.853556  0.570330  0.354214  -0.425065
    C   C166  0.853134  0.603301  0.400894  0.454744
    C   C167  0.852950  0.636831  0.489248  0.152695
    C   C168  0.874459  0.681268  0.469429  0.062480
    C   C169  0.868926  0.651560  0.378451  0.323317
    C   C170  0.356706  0.096399  0.562290  -0.140238
    C   C171  0.405980  0.081292  0.579873  0.095318
    C   C172  0.308083  0.808083  0.302286  0.819918
    C   C173  0.425177  0.100739  0.633126  -0.329923
    C   C174  0.394970  0.129570  0.670558  0.062687
    C   C175  0.343983  0.139149  0.659072  -0.185664
    C   C176  0.327706  0.120873  0.607095  0.047893
    C   C177  0.336336  0.094694  0.505417  0.476264
    C   C178  0.363561  0.094037  0.446683  0.034539
    C   C179  0.340261  0.083624  0.395786  -0.470021
    C   C180  0.373232  0.083203  0.349106  0.556657
    C   C181  0.406762  0.083019  0.260752  0.198737
    C   C182  0.451199  0.104528  0.280571  -0.065226
    C   C183  0.421491  0.098995  0.371549  0.103754
    C   C184  0.163225  0.883670  0.062290  -0.140868
    C   C185  0.113951  0.898777  0.079873  0.095087
    C   C186  0.094754  0.879330  0.133126  -0.331314
    C   C187  0.124961  0.850499  0.170558  0.062657
    C   C188  0.175948  0.840919  0.159072  -0.185272
    C   C189  0.192225  0.859196  0.107095  0.045647
    C   C190  0.183595  0.885375  0.005417  0.478807
    C   C191  0.156370  0.886032  0.946683  0.033924
    C   C192  0.179670  0.896444  0.895786  -0.467524
    C   C193  0.146699  0.896866  0.849106  0.548470
    C   C194  0.113169  0.897050  0.760752  0.195125
    C   C195  0.068732  0.875541  0.780571  -0.063052
    C   C196  0.098440  0.881074  0.871549  0.110849
    C   C197  0.866330  0.393294  0.812290  -0.171624
    C   C198  0.851223  0.344020  0.829873  0.113133
    C   C199  0.870670  0.324823  0.883126  -0.311632
    C   C200  0.899501  0.355030  0.920558  0.070610
    C   C201  0.909081  0.406017  0.909072  -0.180282
    C   C202  0.890804  0.422294  0.857095  0.047196
    C   C203  0.211848  0.308083  0.802286  0.549905
    C   C204  0.864625  0.413664  0.755417  0.523965
    C   C205  0.863968  0.386439  0.696683  -0.028569
    C   C206  0.853556  0.409739  0.645786  -0.424806
    C   C207  0.853134  0.376768  0.599106  0.454288
    C   C208  0.852950  0.343238  0.510752  0.153040
    C   C209  0.874459  0.298801  0.530571  0.061374
    C   C210  0.868926  0.328509  0.621549  0.323326
    C   C211  0.653601  0.586775  0.312290  -0.172647
    C   C212  0.668708  0.636049  0.329873  0.114728
    C   C213  0.649261  0.655246  0.383126  -0.309448
    C   C214  0.620430  0.625039  0.420558  0.067026
    C   C215  0.610851  0.574052  0.409072  -0.174375
    C   C216  0.629127  0.557775  0.357095  0.041327
    C   C217  0.655306  0.566405  0.255417  0.527494
    C   C218  0.655963  0.593630  0.196683  -0.030068
    C   C219  0.666376  0.570330  0.145786  -0.426521
    C   C220  0.308083  0.308083  0.697714  0.552164
    C   C221  0.666797  0.603301  0.099106  0.455503
    C   C222  0.666981  0.636831  0.010752  0.150847
    C   C223  0.645472  0.681268  0.030571  0.064067
    C   C224  0.651005  0.651560  0.121549  0.325176
    C   C225  0.941917  0.038152  0.947714  0.608988
    C   C226  0.308083  0.171986  0.697714  0.819748
    C   C227  0.211848  0.171986  0.802286  0.819978
    C   C228  0.711848  0.308083  0.697714  0.549933
    C   C229  0.808083  0.308083  0.802286  0.552274
    C   C230  0.808083  0.171986  0.802286  0.819471
    C   C231  0.711848  0.171986  0.697714  0.819502
    C   C232  0.808083  0.671986  0.197714  0.550099
    C   C233  0.711848  0.671986  0.302286  0.550512
    C   C234  0.711848  0.808083  0.302286  0.820970
    C   C235  0.078014  0.038152  0.947714  0.611158
    C   C236  0.808083  0.808083  0.197714  0.819486
    C   C237  0.441917  0.441917  0.552286  0.784887
    C   C238  0.441917  0.538152  0.447714  0.783129
    C   C239  0.578014  0.538152  0.447714  0.783269
    C   C240  0.578014  0.441917  0.552286  0.786826
    Cu  Cu1   0.009966  0.954211  0.961073  1.024281
    Cu  Cu2   0.009966  0.025858  0.038927  1.025594
    Cu  Cu3   0.509966  0.025858  0.461073  1.025604
    Cu  Cu4   0.509966  0.954211  0.538927  1.024342
    Cu  Cu5   0.295789  0.740034  0.211073  0.973467
    Cu  Cu6   0.224142  0.740034  0.288927  0.972933
    Cu  Cu7   0.224142  0.240034  0.711073  0.973381
    Cu  Cu8   0.295789  0.240034  0.788927  0.973567
    Cu  Cu9   0.724142  0.240034  0.788927  0.973323
    Cu  Cu10  0.795789  0.240034  0.711073  0.973430
    Cu  Cu11  0.795789  0.740034  0.288927  0.973392
    Cu  Cu12  0.724142  0.740034  0.211073  0.972828
    Cu  Cu13  0.509966  0.454211  0.461073  0.974962
    Cu  Cu14  0.509966  0.525858  0.538927  0.975463
    Cu  Cu15  0.009966  0.525858  0.961073  0.975433
    Cu  Cu16  0.009966  0.454211  0.038927  0.974938
    H   H1    0.961610  0.893259  0.144440  0.179852
    H   H2    0.910150  0.836719  0.210857  0.090889
    H   H3    0.787974  0.850860  0.098322  0.079380
    H   H4    0.800319  0.904735  0.891847  0.212963
    H   H5    0.904513  0.904513  0.715760  0.072079
    H   H6    0.983560  0.862612  0.753083  0.100735
    H   H7    0.558322  0.086810  0.644440  0.180830
    H   H8    0.609781  0.143350  0.710857  0.092425
    H   H9    0.731957  0.129209  0.598322  0.078185
    H   H10   0.719612  0.075334  0.391847  0.211582
    H   H11   0.615418  0.075556  0.215760  0.071846
    H   H12   0.536371  0.117457  0.253083  0.102968
    H   H13   0.356741  0.691678  0.394440  0.176065
    H   H14   0.413281  0.640219  0.460857  0.079029
    H   H15   0.399140  0.518043  0.348322  0.088115
    H   H16   0.345265  0.530388  0.141847  0.206516
    H   H17   0.345487  0.634582  0.965760  0.068746
    H   H18   0.387388  0.713629  0.003083  0.090731
    H   H19   0.163190  0.288390  0.894440  0.175950
    H   H20   0.106650  0.339850  0.960857  0.078727
    H   H21   0.120791  0.462026  0.848322  0.088552
    H   H22   0.174666  0.449681  0.641847  0.207742
    H   H23   0.174444  0.345487  0.465760  0.069353
    H   H24   0.132543  0.266440  0.503083  0.090168
    H   H25   0.558322  0.893259  0.355560  0.181941
    H   H26   0.609781  0.836719  0.289143  0.091070
    H   H27   0.731957  0.850860  0.401678  0.079173
    H   H28   0.719612  0.904735  0.608153  0.211899
    H   H29   0.615418  0.904513  0.784240  0.072620
    H   H30   0.536371  0.862612  0.746917  0.101810
    H   H31   0.961610  0.086810  0.855560  0.180461
    H   H32   0.910150  0.143350  0.789143  0.090790
    H   H33   0.787974  0.129209  0.901678  0.077590
    H   H34   0.800319  0.075334  0.108153  0.212049
    H   H35   0.904513  0.075556  0.284240  0.071525
    H   H36   0.983560  0.117457  0.246917  0.101749
    H   H37   0.163190  0.691678  0.105560  0.175605
    H   H38   0.106650  0.640219  0.039143  0.079231
    H   H39   0.120791  0.518043  0.151678  0.089536
    H   H40   0.174666  0.530388  0.358153  0.207299
    H   H41   0.174444  0.634582  0.534240  0.069144
    H   H42   0.132543  0.713629  0.496917  0.090441
    H   H43   0.356741  0.288390  0.605560  0.175979
    H   H44   0.413281  0.339850  0.539143  0.078707
    H   H45   0.399140  0.462026  0.651678  0.087712
    H   H46   0.345265  0.449681  0.858153  0.206650
    H   H47   0.345487  0.345487  0.034240  0.068484
    H   H48   0.387388  0.266440  0.996917  0.091408
    H   H49   0.058322  0.086810  0.855560  0.180752
    H   H50   0.109781  0.143350  0.789143  0.092448
    H   H51   0.231957  0.129209  0.901678  0.078010
    H   H52   0.219612  0.075334  0.108153  0.211440
    H   H53   0.115418  0.075556  0.284240  0.071655
    H   H54   0.036371  0.117457  0.246917  0.103034
    H   H55   0.461610  0.893259  0.355560  0.179775
    H   H56   0.410150  0.836719  0.289143  0.090924
    H   H57   0.287974  0.850860  0.401678  0.079213
    H   H58   0.300319  0.904735  0.608153  0.212826
    H   H59   0.404513  0.904513  0.784240  0.071887
    H   H60   0.483560  0.862612  0.746917  0.100801
    H   H61   0.663190  0.288390  0.605560  0.176025
    H   H62   0.606650  0.339850  0.539143  0.078679
    H   H63   0.620791  0.462026  0.651678  0.088750
    H   H64   0.674666  0.449681  0.858153  0.207882
    H   H65   0.674444  0.345487  0.034240  0.069418
    H   H66   0.632543  0.266440  0.996917  0.090178
    H   H67   0.856741  0.691678  0.105560  0.176106
    H   H68   0.913281  0.640219  0.039143  0.079005
    H   H69   0.899140  0.518043  0.151678  0.088298
    H   H70   0.845265  0.530388  0.358153  0.206661
    H   H71   0.845487  0.634582  0.534240  0.068810
    H   H72   0.887388  0.713629  0.496917  0.090741
    H   H73   0.461610  0.086810  0.644440  0.180393
    H   H74   0.410150  0.143350  0.710857  0.090861
    H   H75   0.287974  0.129209  0.598322  0.077444
    H   H76   0.300319  0.075334  0.391847  0.211904
    H   H77   0.404513  0.075556  0.215760  0.071325
    H   H78   0.483560  0.117457  0.253083  0.101812
    H   H79   0.058322  0.893259  0.144440  0.181875
    H   H80   0.109781  0.836719  0.210857  0.091089
    H   H81   0.231957  0.850860  0.098322  0.079000
    H   H82   0.219612  0.904735  0.891847  0.211751
    H   H83   0.115418  0.904513  0.715760  0.072422
    H   H84   0.036371  0.862612  0.753083  0.101868
    H   H85   0.856741  0.288390  0.894440  0.176005
    H   H86   0.913281  0.339850  0.960857  0.078648
    H   H87   0.899140  0.462026  0.848322  0.087939
    H   H88   0.845265  0.449681  0.641847  0.206790
    H   H89   0.845487  0.345487  0.465760  0.068538
    H   H90   0.887388  0.266440  0.503083  0.091417
    H   H91   0.663190  0.691678  0.394440  0.175654
    H   H92   0.606650  0.640219  0.460857  0.079205
    H   H93   0.620791  0.518043  0.348322  0.089744
    H   H94   0.674666  0.530388  0.141847  0.207414
    H   H95   0.674444  0.634582  0.965760  0.069209
    H   H96   0.632543  0.713629  0.003083  0.090459
    N   N1    0.864706  0.907599  0.793358  -0.516362
    N   N2    0.961237  0.869386  0.836353  -0.244254
    N   N3    0.655225  0.072470  0.293358  -0.517699
    N   N4    0.558694  0.110683  0.336353  -0.240057
    N   N5    0.342401  0.594775  0.043358  -0.490894
    N   N6    0.380614  0.691306  0.086353  -0.470350
    N   N7    0.177530  0.385294  0.543358  -0.489666
    N   N8    0.139317  0.288763  0.586353  -0.472604
    N   N9    0.655225  0.907599  0.706642  -0.514683
    N   N10   0.558694  0.869386  0.663647  -0.241554
    N   N11   0.864706  0.072470  0.206642  -0.518169
    N   N12   0.961237  0.110683  0.163647  -0.240398
    N   N13   0.177530  0.594775  0.456642  -0.490362
    N   N14   0.139317  0.691306  0.413647  -0.471774
    N   N15   0.342401  0.385294  0.956642  -0.489844
    N   N16   0.380614  0.288763  0.913647  -0.470790
    N   N17   0.155225  0.072470  0.206642  -0.518049
    N   N18   0.058694  0.110683  0.163647  -0.239954
    N   N19   0.364706  0.907599  0.706642  -0.516729
    N   N20   0.461237  0.869386  0.663647  -0.244143
    N   N21   0.677530  0.385294  0.956642  -0.489575
    N   N22   0.639317  0.288763  0.913647  -0.472597
    N   N23   0.842401  0.594775  0.456642  -0.490802
    N   N24   0.880614  0.691306  0.413647  -0.470339
    N   N25   0.364706  0.072470  0.293358  -0.518516
    N   N26   0.461237  0.110683  0.336353  -0.240293
    N   N27   0.155225  0.907599  0.793358  -0.515012
    N   N28   0.058694  0.869386  0.836353  -0.241462
    N   N29   0.842401  0.385294  0.543358  -0.489722
    N   N30   0.880614  0.288763  0.586353  -0.470793
    N   N31   0.677530  0.594775  0.043358  -0.490261
    N   N32   0.639317  0.691306  0.086353  -0.471772
    O   O1    0.061555  0.998005  0.929382  -0.607208
    O   O2    0.061555  0.498005  0.070618  -0.594165
    O   O3    0.061555  0.555022  0.008661  -0.600902
    O   O4    0.061555  0.425047  0.991339  -0.601706
    O   O5    0.061555  0.482064  0.929382  -0.594835
    O   O6    0.958376  0.425047  0.991339  -0.600190
    O   O7    0.958376  0.482064  0.929382  -0.594096
    O   O8    0.958376  0.498005  0.070618  -0.593339
    O   O9    0.958376  0.555022  0.008661  -0.599909
    O   O10   0.061555  0.982064  0.070618  -0.606525
    O   O11   0.789326  0.883297  0.003482  -0.425035
    O   O12   0.061555  0.925047  0.008661  -0.471089
    O   O13   0.730605  0.096772  0.503482  -0.424004
    O   O14   0.366703  0.519395  0.253482  -0.435643
    O   O15   0.561555  0.998005  0.570618  -0.607217
    O   O16   0.561555  0.055022  0.508661  -0.472913
    O   O17   0.153228  0.460674  0.753482  -0.435967
    O   O18   0.561555  0.925047  0.491339  -0.471286
    O   O19   0.561555  0.982064  0.429382  -0.606526
    O   O20   0.730605  0.883297  0.496518  -0.425252
    O   O21   0.458376  0.925047  0.491339  -0.471074
    O   O22   0.789326  0.096772  0.996518  -0.424142
    O   O23   0.458376  0.982064  0.429382  -0.606869
    O   O24   0.458376  0.998005  0.570618  -0.607256
    O   O25   0.153228  0.519395  0.246518  -0.436485
    O   O26   0.458376  0.055022  0.508661  -0.473218
    O   O27   0.366703  0.460674  0.746518  -0.435563
    O   O28   0.958376  0.982064  0.070618  -0.606863
    O   O29   0.230605  0.096772  0.996518  -0.424022
    O   O30   0.267936  0.688445  0.320618  -0.590429
    O   O31   0.324953  0.688445  0.258661  -0.367976
    O   O32   0.289326  0.883297  0.496518  -0.425071
    O   O33   0.194978  0.688445  0.241339  -0.369057
    O   O34   0.251995  0.688445  0.179382  -0.591341
    O   O35   0.653228  0.460674  0.746518  -0.435871
    O   O36   0.194978  0.791624  0.241339  -0.661525
    O   O37   0.866703  0.519395  0.246518  -0.435530
    O   O38   0.251995  0.791624  0.179382  -0.588067
    O   O39   0.289326  0.096772  0.503482  -0.424169
    O   O40   0.958376  0.925047  0.008661  -0.471226
    O   O41   0.267936  0.791624  0.320618  -0.587739
    O   O42   0.324953  0.791624  0.258661  -0.660847
    O   O43   0.230605  0.883297  0.003482  -0.425264
    O   O44   0.866703  0.460674  0.753482  -0.435468
    O   O45   0.251995  0.291624  0.820618  -0.590936
    O   O46   0.194978  0.291624  0.758661  -0.368023
    O   O47   0.653228  0.519395  0.253482  -0.436412
    O   O48   0.324953  0.291624  0.741339  -0.368275
    O   O49   0.267936  0.291624  0.679382  -0.592367
    O   O50   0.324953  0.188445  0.741339  -0.661517
    O   O51   0.267936  0.188445  0.679382  -0.586723
    O   O52   0.251995  0.188445  0.820618  -0.587265
    O   O53   0.194978  0.188445  0.758661  -0.661803
    O   O54   0.751995  0.291624  0.679382  -0.590965
    O   O55   0.958376  0.055022  0.991339  -0.473393
    O   O56   0.694978  0.291624  0.741339  -0.368105
    O   O57   0.824953  0.291624  0.758661  -0.368214
    O   O58   0.767936  0.291624  0.820618  -0.592387
    O   O59   0.824953  0.188445  0.758661  -0.661251
    O   O60   0.767936  0.188445  0.820618  -0.586521
    O   O61   0.751995  0.188445  0.679382  -0.586998
    O   O62   0.694978  0.188445  0.741339  -0.661540
    O   O63   0.958376  0.998005  0.929382  -0.607245
    O   O64   0.767936  0.688445  0.179382  -0.590456
    O   O65   0.824953  0.688445  0.241339  -0.368040
    O   O66   0.694978  0.688445  0.258661  -0.368998
    O   O67   0.751995  0.688445  0.320618  -0.591311
    O   O68   0.694978  0.791624  0.258661  -0.661252
    O   O69   0.751995  0.791624  0.320618  -0.587825
    O   O70   0.767936  0.791624  0.179382  -0.587480
    O   O71   0.824953  0.791624  0.241339  -0.660584
    O   O72   0.458376  0.482064  0.570618  -0.594268
    O   O73   0.458376  0.425047  0.508661  -0.600432
    O   O74   0.061555  0.055022  0.991339  -0.472734
    O   O75   0.458376  0.555022  0.491339  -0.600103
    O   O76   0.458376  0.498005  0.429382  -0.593481
    O   O77   0.561555  0.555022  0.491339  -0.600683
    O   O78   0.561555  0.498005  0.429382  -0.594007
    O   O79   0.561555  0.482064  0.570618  -0.594687
    O   O80   0.561555  0.425047  0.508661  -0.601471
    S   S1    0.925756  0.872684  0.939340  -0.048263
    S   S2    0.594175  0.107385  0.439340  -0.045808
    S   S3    0.377316  0.655825  0.189340  -0.090556
    S   S4    0.142615  0.324244  0.689340  -0.091076
    S   S5    0.594175  0.872684  0.560660  -0.048982
    S   S6    0.925756  0.107385  0.060660  -0.046238
    S   S7    0.142615  0.655825  0.310660  -0.089537
    S   S8    0.377316  0.324244  0.810660  -0.089417
    S   S9    0.094175  0.107385  0.060660  -0.045717
    S   S10   0.425756  0.872684  0.560660  -0.048164
    S   S11   0.642615  0.324244  0.810660  -0.091169
    S   S12   0.877316  0.655825  0.310660  -0.090662
    S   S13   0.425756  0.107385  0.439340  -0.046144
    S   S14   0.094175  0.872684  0.939340  -0.048896
    S   S15   0.877316  0.324244  0.689340  -0.089595
    S   S16   0.642615  0.655825  0.189340  -0.089779
