# Generated by REPEAT Assigner based on pymatgen
data_DB13-lvt-Syn036287
_audit_creation_date              2022-05-24
_audit_creation_method            REPEAT_Assigner
_cell_length_a                    25.837500
_cell_length_b                    25.837500
_cell_length_c                    23.748200
_cell_angle_alpha                 90.000000
_cell_angle_beta                  90.000000
_cell_angle_gamma                 90.000000
_cell_volume                      15853.738011
_symmetry_space_group_name_H-M    P1
_symmetry_Int_Tables_number       1
loop_
    _symmetry_equiv_pos_site_id
    _symmetry_equiv_pos_as_xyz
    1  x,y,z
loop_
    _atom_site_type_symbol
    _atom_site_label
    _atom_site_fract_x
    _atom_site_fract_y
    _atom_site_fract_z
    _atom_type_partial_charge
    C   C1    0.079127  0.538697  0.053098  0.748118
    C   C2    0.079127  0.441088  0.946902  0.747004
    C   C3    0.941088  0.441088  0.946902  0.746977
    C   C4    0.941088  0.538697  0.053098  0.748586
    C   C5    0.079127  0.941088  0.053098  0.796713
    C   C6    0.852122  0.891165  0.070968  0.097714
    C   C7    0.905026  0.898336  0.079832  -0.154652
    C   C8    0.928515  0.869277  0.122710  -0.106709
    C   C9    0.897648  0.843446  0.162236  -0.116074
    C   C10   0.843724  0.838115  0.155554  -0.054537
    C   C11   0.822974  0.861793  0.109026  -0.089031
    C   C12   0.836683  0.793146  0.875183  0.047776
    C   C13   0.782730  0.793420  0.857948  -0.255664
    C   C14   0.766684  0.842732  0.873493  -0.245351
    C   C15   0.813123  0.922937  0.911781  0.055125
    C   C16   0.844632  0.931602  0.964274  0.018181
    C   C17   0.820678  0.909974  0.014701  0.394993
    C   C18   0.834508  0.955290  0.860836  -0.078176
    C   C19   0.668094  0.088619  0.570968  0.103410
    C   C20   0.615189  0.081449  0.579832  -0.155078
    C   C21   0.591700  0.110508  0.622710  -0.108050
    C   C22   0.622567  0.136339  0.662236  -0.114317
    C   C23   0.676491  0.141669  0.655554  -0.054039
    C   C24   0.697241  0.117992  0.609026  -0.093511
    C   C25   0.683532  0.186638  0.375183  0.042869
    C   C26   0.737486  0.186365  0.357948  -0.250848
    C   C27   0.753531  0.137053  0.373493  -0.248388
    C   C28   0.707092  0.056847  0.411781  0.052898
    C   C29   0.675583  0.048183  0.464274  0.021891
    C   C30   0.699537  0.069810  0.514701  0.391419
    C   C31   0.685708  0.024495  0.360836  -0.078986
    C   C32   0.579127  0.038697  0.553098  0.798037
    C   C33   0.358835  0.581906  0.320968  0.126622
    C   C34   0.351664  0.634811  0.329832  -0.198805
    C   C35   0.380723  0.658300  0.372710  -0.066671
    C   C36   0.406554  0.627433  0.412236  -0.176266
    C   C37   0.411885  0.573509  0.405554  0.011430
    C   C38   0.388207  0.552759  0.359026  -0.135869
    C   C39   0.456854  0.566468  0.125183  0.054976
    C   C40   0.456580  0.512514  0.107948  -0.244583
    C   C41   0.407268  0.496469  0.123493  -0.244367
    C   C42   0.327063  0.542908  0.161781  -0.002201
    C   C43   0.318398  0.574417  0.214274  0.119901
    C   C44   0.340026  0.550463  0.264701  0.406375
    C   C45   0.294710  0.564292  0.110836  -0.065436
    C   C46   0.579127  0.941088  0.446902  0.796723
    C   C47   0.161381  0.397878  0.820968  0.130265
    C   C48   0.168551  0.344974  0.829832  -0.200484
    C   C49   0.139492  0.321485  0.872710  -0.066573
    C   C50   0.113661  0.352352  0.912236  -0.176978
    C   C51   0.941088  0.941088  0.053098  0.801253
    C   C52   0.108331  0.406276  0.905554  0.012412
    C   C53   0.132008  0.427026  0.859026  -0.134981
    C   C54   0.063362  0.413317  0.625183  0.058673
    C   C55   0.063635  0.467270  0.607948  -0.247165
    C   C56   0.112947  0.483316  0.623493  -0.245009
    C   C57   0.193153  0.436877  0.661781  -0.002596
    C   C58   0.201817  0.405368  0.714274  0.129327
    C   C59   0.180190  0.429322  0.764701  0.398269
    C   C60   0.225505  0.415492  0.610836  -0.072479
    C   C61   0.441088  0.941088  0.446902  0.801250
    C   C62   0.668094  0.891165  0.429032  0.102774
    C   C63   0.615189  0.898336  0.420168  -0.155525
    C   C64   0.591700  0.869277  0.377290  -0.105154
    C   C65   0.622567  0.843446  0.337764  -0.116760
    C   C66   0.676491  0.838115  0.344446  -0.055313
    C   C67   0.697241  0.861793  0.390974  -0.091801
    C   C68   0.683532  0.793146  0.624817  0.044980
    C   C69   0.737486  0.793420  0.642052  -0.251128
    C   C70   0.753531  0.842732  0.626507  -0.248760
    C   C71   0.707092  0.922937  0.588219  0.057047
    C   C72   0.675583  0.931602  0.535726  0.019211
    C   C73   0.699537  0.909974  0.485299  0.392964
    C   C74   0.685708  0.955290  0.639164  -0.081839
    C   C75   0.441088  0.038697  0.553098  0.801011
    C   C76   0.852122  0.088619  0.929032  0.102641
    C   C77   0.905026  0.081449  0.920168  -0.158359
    C   C78   0.928515  0.110508  0.877290  -0.104669
    C   C79   0.897648  0.136339  0.837764  -0.117163
    C   C80   0.843724  0.141669  0.844446  -0.051802
    C   C81   0.822974  0.117992  0.890974  -0.091838
    C   C82   0.836683  0.186638  0.124817  0.048617
    C   C83   0.782730  0.186365  0.142052  -0.256607
    C   C84   0.766684  0.137053  0.126507  -0.244188
    C   C85   0.813123  0.056847  0.088219  0.057181
    C   C86   0.844632  0.048183  0.035726  0.025309
    C   C87   0.820678  0.069810  0.985299  0.391200
    C   C88   0.834508  0.024495  0.139164  -0.083158
    C   C89   0.161381  0.581906  0.179032  0.128457
    C   C90   0.168551  0.634811  0.170168  -0.198442
    C   C91   0.139492  0.658300  0.127290  -0.067891
    C   C92   0.113661  0.627433  0.087764  -0.174906
    C   C93   0.108331  0.573509  0.094446  0.009443
    C   C94   0.132008  0.552759  0.140974  -0.132502
    C   C95   0.063362  0.566468  0.374817  0.057887
    C   C96   0.063635  0.512514  0.392052  -0.248615
    C   C97   0.112947  0.496469  0.376507  -0.243534
    C   C98   0.193153  0.542908  0.338219  -0.000419
    C   C99   0.201817  0.574417  0.285726  0.129068
    C   C100  0.180190  0.550463  0.235299  0.398810
    C   C101  0.225505  0.564292  0.389164  -0.066715
    C   C102  0.308912  0.670873  0.303098  0.839818
    C   C103  0.358835  0.397878  0.679032  0.126988
    C   C104  0.351664  0.344974  0.670168  -0.200010
    C   C105  0.380723  0.321485  0.627290  -0.063825
    C   C106  0.406554  0.352352  0.587764  -0.178588
    C   C107  0.411885  0.406276  0.594446  0.014321
    C   C108  0.388207  0.427026  0.640974  -0.137060
    C   C109  0.456854  0.413317  0.874817  0.056284
    C   C110  0.456580  0.467270  0.892052  -0.247859
    C   C111  0.407268  0.483316  0.876507  -0.240482
    C   C112  0.327063  0.436877  0.838219  0.001644
    C   C113  0.318398  0.405368  0.785726  0.123328
    C   C114  0.340026  0.429322  0.735299  0.406698
    C   C115  0.294710  0.415492  0.889164  -0.070749
    C   C116  0.211303  0.670873  0.196902  0.837754
    C   C117  0.168094  0.088619  0.929032  0.103400
    C   C118  0.115189  0.081449  0.920168  -0.155077
    C   C119  0.091700  0.110508  0.877290  -0.108050
    C   C120  0.122567  0.136339  0.837764  -0.114316
    C   C121  0.176491  0.141669  0.844446  -0.054043
    C   C122  0.197241  0.117992  0.890974  -0.093503
    C   C123  0.183532  0.186638  0.124817  0.042871
    C   C124  0.237486  0.186365  0.142052  -0.250849
    C   C125  0.253531  0.137053  0.126507  -0.248391
    C   C126  0.207092  0.056847  0.088219  0.052911
    C   C127  0.175583  0.048183  0.035726  0.021870
    C   C128  0.199537  0.069810  0.985299  0.391435
    C   C129  0.185708  0.024495  0.139164  -0.078990
    C   C130  0.211303  0.808912  0.196902  0.780437
    C   C131  0.352122  0.891165  0.429032  0.097725
    C   C132  0.405026  0.898336  0.420168  -0.154658
    C   C133  0.428515  0.869277  0.377290  -0.106707
    C   C134  0.397648  0.843446  0.337764  -0.116075
    C   C135  0.343724  0.838115  0.344446  -0.054535
    C   C136  0.322974  0.861793  0.390974  -0.089038
    C   C137  0.336683  0.793146  0.624817  0.047778
    C   C138  0.282730  0.793420  0.642052  -0.255665
    C   C139  0.266684  0.842732  0.626507  -0.245348
    C   C140  0.313123  0.922937  0.588219  0.055110
    C   C141  0.344632  0.931602  0.535726  0.018176
    C   C142  0.320678  0.909974  0.485299  0.394988
    C   C143  0.334508  0.955290  0.639164  -0.078143
    C   C144  0.308912  0.808912  0.303098  0.778408
    C   C145  0.661381  0.397878  0.679032  0.130106
    C   C146  0.668551  0.344974  0.670168  -0.200437
    C   C147  0.639492  0.321485  0.627290  -0.066583
    C   C148  0.613661  0.352352  0.587764  -0.176959
    C   C149  0.608331  0.406276  0.594446  0.012407
    C   C150  0.632008  0.427026  0.640974  -0.134937
    C   C151  0.563362  0.413317  0.874817  0.058657
    C   C152  0.563635  0.467270  0.892052  -0.247150
    C   C153  0.612947  0.483316  0.876507  -0.245040
    C   C154  0.693153  0.436877  0.838219  -0.002501
    C   C155  0.701817  0.405368  0.785726  0.129162
    C   C156  0.680190  0.429322  0.735299  0.398510
    C   C157  0.725505  0.415492  0.889164  -0.072458
    C   C158  0.858835  0.581906  0.179032  0.126627
    C   C159  0.851664  0.634811  0.170168  -0.198811
    C   C160  0.880723  0.658300  0.127290  -0.066667
    C   C161  0.906554  0.627433  0.087764  -0.176273
    C   C162  0.911885  0.573509  0.094446  0.011442
    C   C163  0.888207  0.552759  0.140974  -0.135877
    C   C164  0.956854  0.566468  0.374817  0.054981
    C   C165  0.956580  0.512514  0.392052  -0.244584
    C   C166  0.907268  0.496469  0.376507  -0.244365
    C   C167  0.827063  0.542908  0.338219  -0.002206
    C   C168  0.818398  0.574417  0.285726  0.119901
    C   C169  0.840026  0.550463  0.235299  0.406373
    C   C170  0.794710  0.564292  0.389164  -0.065438
    C   C171  0.211303  0.308912  0.803098  0.838761
    C   C172  0.352122  0.088619  0.570968  0.102630
    C   C173  0.405026  0.081449  0.579832  -0.158356
    C   C174  0.428515  0.110508  0.622710  -0.104683
    C   C175  0.397648  0.136339  0.662236  -0.117152
    C   C176  0.343724  0.141669  0.655554  -0.051843
    C   C177  0.322974  0.117992  0.609026  -0.091773
    C   C178  0.336683  0.186638  0.375183  0.048616
    C   C179  0.282730  0.186365  0.357948  -0.256604
    C   C180  0.266684  0.137053  0.373493  -0.244186
    C   C181  0.313123  0.056847  0.411781  0.057171
    C   C182  0.344632  0.048183  0.464274  0.025308
    C   C183  0.320678  0.069810  0.514701  0.391180
    C   C184  0.334508  0.024495  0.360836  -0.083144
    C   C185  0.308912  0.308912  0.696902  0.838723
    C   C186  0.168094  0.891165  0.070968  0.102763
    C   C187  0.115189  0.898336  0.079832  -0.155521
    C   C188  0.091700  0.869277  0.122710  -0.105153
    C   C189  0.122567  0.843446  0.162236  -0.116760
    C   C190  0.176491  0.838115  0.155554  -0.055315
    C   C191  0.197241  0.861793  0.109026  -0.091795
    C   C192  0.183532  0.793146  0.875183  0.044982
    C   C193  0.237486  0.793420  0.857948  -0.251129
    C   C194  0.253531  0.842732  0.873493  -0.248762
    C   C195  0.207092  0.922937  0.911781  0.057056
    C   C196  0.175583  0.931602  0.964274  0.019206
    C   C197  0.199537  0.909974  0.014701  0.392975
    C   C198  0.185708  0.955290  0.860836  -0.081846
    C   C199  0.941088  0.038697  0.946902  0.801009
    C   C200  0.308912  0.170873  0.696902  0.778138
    C   C201  0.858835  0.397878  0.820968  0.127042
    C   C202  0.851664  0.344974  0.829832  -0.200049
    C   C203  0.880723  0.321485  0.872710  -0.063812
    C   C204  0.906554  0.352352  0.912236  -0.178597
    C   C205  0.911885  0.406276  0.905554  0.014331
    C   C206  0.888207  0.427026  0.859026  -0.137078
    C   C207  0.956854  0.413317  0.625183  0.056272
    C   C208  0.956580  0.467270  0.607948  -0.247868
    C   C209  0.907268  0.483316  0.623493  -0.240483
    C   C210  0.827063  0.436877  0.661781  0.001550
    C   C211  0.818398  0.405368  0.714274  0.123399
    C   C212  0.840026  0.429322  0.764701  0.406629
    C   C213  0.794710  0.415492  0.610836  -0.070736
    C   C214  0.211303  0.170873  0.803098  0.778978
    C   C215  0.661381  0.581906  0.320968  0.128452
    C   C216  0.668551  0.634811  0.329832  -0.198434
    C   C217  0.639492  0.658300  0.372710  -0.067897
    C   C218  0.613661  0.627433  0.412236  -0.174897
    C   C219  0.608331  0.573509  0.405554  0.009427
    C   C220  0.632008  0.552759  0.359026  -0.132494
    C   C221  0.563362  0.566468  0.125183  0.057885
    C   C222  0.563635  0.512514  0.107948  -0.248614
    C   C223  0.612947  0.496469  0.123493  -0.243533
    C   C224  0.693153  0.542908  0.161781  -0.000412
    C   C225  0.701817  0.574417  0.214274  0.129073
    C   C226  0.680190  0.550463  0.264701  0.398812
    C   C227  0.725505  0.564292  0.110836  -0.066720
    C   C228  0.711303  0.308912  0.696902  0.838756
    C   C229  0.808912  0.308912  0.803098  0.838760
    C   C230  0.808912  0.170873  0.803098  0.778093
    C   C231  0.711303  0.170873  0.696902  0.778981
    C   C232  0.808912  0.670873  0.196902  0.839832
    C   C233  0.711303  0.670873  0.303098  0.837739
    C   C234  0.711303  0.808912  0.303098  0.780436
    C   C235  0.079127  0.038697  0.946902  0.798033
    C   C236  0.808912  0.808912  0.196902  0.778409
    C   C237  0.441088  0.441088  0.553098  0.746973
    C   C238  0.441088  0.538697  0.446902  0.748588
    C   C239  0.579127  0.538697  0.446902  0.748133
    C   C240  0.579127  0.441088  0.553098  0.746997
    Cu  Cu1   0.010108  0.953558  0.960469  0.972940
    Cu  Cu2   0.010108  0.026226  0.039531  0.972777
    Cu  Cu3   0.510108  0.026226  0.460469  0.972775
    Cu  Cu4   0.510108  0.953558  0.539531  0.972941
    Cu  Cu5   0.296442  0.739892  0.210469  0.978411
    Cu  Cu6   0.223774  0.739892  0.289531  0.979285
    Cu  Cu7   0.223774  0.239892  0.710469  0.979087
    Cu  Cu8   0.296442  0.239892  0.789531  0.978203
    Cu  Cu9   0.723774  0.239892  0.789531  0.979073
    Cu  Cu10  0.796442  0.239892  0.710469  0.978194
    Cu  Cu11  0.796442  0.739892  0.289531  0.978408
    Cu  Cu12  0.723774  0.739892  0.210469  0.979289
    Cu  Cu13  0.510108  0.453558  0.460469  0.994318
    Cu  Cu14  0.510108  0.526226  0.539531  0.994827
    Cu  Cu15  0.010108  0.526226  0.960469  0.994829
    Cu  Cu16  0.010108  0.453558  0.039531  0.994323
    H   H1    0.969594  0.868586  0.130683  0.119830
    H   H2    0.922098  0.821211  0.193618  0.117671
    H   H3    0.783609  0.852139  0.100343  0.112248
    H   H4    0.862393  0.760687  0.870468  0.108837
    H   H5    0.762638  0.762638  0.838514  0.167411
    H   H6    0.727590  0.860890  0.868801  0.159954
    H   H7    0.771610  0.935352  0.915512  0.024400
    H   H8    0.880313  0.908822  0.963538  -0.014995
    H   H9    0.850342  0.972676  0.975001  0.016819
    H   H10   0.812915  0.940726  0.826018  0.020546
    H   H11   0.827982  0.998383  0.865642  -0.009672
    H   H12   0.874727  0.951413  0.851345  0.035154
    H   H13   0.550621  0.111199  0.630683  0.120759
    H   H14   0.598118  0.158573  0.693618  0.116842
    H   H15   0.736606  0.127646  0.600343  0.113053
    H   H16   0.657822  0.219098  0.370468  0.110141
    H   H17   0.757578  0.217147  0.338514  0.166161
    H   H18   0.792625  0.118894  0.368801  0.160532
    H   H19   0.748606  0.044432  0.415512  0.025220
    H   H20   0.639902  0.070963  0.463538  -0.017995
    H   H21   0.669873  0.007109  0.475001  0.015608
    H   H22   0.707301  0.039059  0.326018  0.020834
    H   H23   0.692233  0.981402  0.365642  -0.009054
    H   H24   0.645489  0.028372  0.351345  0.035270
    H   H25   0.381414  0.699379  0.380683  0.117947
    H   H26   0.428789  0.651882  0.443618  0.131839
    H   H27   0.397861  0.513394  0.350343  0.124051
    H   H28   0.489313  0.592178  0.120468  0.113050
    H   H29   0.487362  0.492422  0.088514  0.154454
    H   H30   0.389110  0.457375  0.118801  0.158771
    H   H31   0.314648  0.501394  0.165512  0.033692
    H   H32   0.341178  0.610098  0.213538  -0.047383
    H   H33   0.277324  0.580127  0.225001  -0.032695
    H   H34   0.309274  0.542699  0.076018  0.012352
    H   H35   0.251617  0.557767  0.115642  -0.006679
    H   H36   0.298587  0.604511  0.101345  0.033451
    H   H37   0.138801  0.280406  0.880683  0.118032
    H   H38   0.091427  0.327902  0.943618  0.131826
    H   H39   0.122354  0.466391  0.850343  0.123496
    H   H40   0.030902  0.387607  0.620468  0.111527
    H   H41   0.032853  0.487362  0.588514  0.155929
    H   H42   0.131106  0.522410  0.618801  0.159060
    H   H43   0.205568  0.478390  0.665512  0.033898
    H   H44   0.179037  0.369687  0.713538  -0.048968
    H   H45   0.242891  0.399658  0.725001  -0.038274
    H   H46   0.210941  0.437085  0.576018  0.013845
    H   H47   0.268598  0.422018  0.615642  -0.003911
    H   H48   0.221628  0.375273  0.601345  0.035305
    H   H49   0.550621  0.868586  0.369317  0.119804
    H   H50   0.598118  0.821211  0.306382  0.117646
    H   H51   0.736606  0.852139  0.399657  0.112497
    H   H52   0.657822  0.760687  0.629532  0.109389
    H   H53   0.757578  0.762638  0.661486  0.166078
    H   H54   0.792625  0.860890  0.631199  0.160830
    H   H55   0.748606  0.935352  0.584488  0.024020
    H   H56   0.639902  0.908822  0.536462  -0.016604
    H   H57   0.669873  0.972676  0.524999  0.016217
    H   H58   0.707301  0.940726  0.673982  0.021754
    H   H59   0.692233  0.998383  0.634358  -0.008475
    H   H60   0.645489  0.951413  0.648655  0.035912
    H   H61   0.969594  0.111199  0.869317  0.119422
    H   H62   0.922098  0.158573  0.806382  0.117374
    H   H63   0.783609  0.127646  0.899657  0.112491
    H   H64   0.862393  0.219098  0.129532  0.108775
    H   H65   0.762638  0.217147  0.161486  0.167640
    H   H66   0.727590  0.118894  0.131199  0.159944
    H   H67   0.771610  0.044432  0.084488  0.023837
    H   H68   0.880313  0.070963  0.036462  -0.017314
    H   H69   0.850342  0.007109  0.024999  0.012545
    H   H70   0.812915  0.039059  0.173982  0.021834
    H   H71   0.827982  0.981402  0.134358  -0.007835
    H   H72   0.874727  0.028372  0.148655  0.036313
    H   H73   0.138801  0.699379  0.119317  0.118233
    H   H74   0.091427  0.651882  0.056382  0.131573
    H   H75   0.122354  0.513394  0.149657  0.123057
    H   H76   0.030902  0.592178  0.379532  0.112438
    H   H77   0.032853  0.492422  0.411486  0.156447
    H   H78   0.131106  0.457375  0.381199  0.158613
    H   H79   0.205568  0.501394  0.334488  0.032562
    H   H80   0.179037  0.610098  0.286462  -0.048909
    H   H81   0.242891  0.580127  0.274999  -0.039285
    H   H82   0.210941  0.542699  0.423982  0.012109
    H   H83   0.268598  0.557767  0.384358  -0.005937
    H   H84   0.221628  0.604511  0.398655  0.033712
    H   H85   0.381414  0.280406  0.619317  0.116611
    H   H86   0.428789  0.327902  0.556382  0.132347
    H   H87   0.397861  0.466391  0.649657  0.123967
    H   H88   0.489313  0.387607  0.879532  0.113644
    H   H89   0.487362  0.487362  0.911486  0.155120
    H   H90   0.389110  0.522410  0.881199  0.158174
    H   H91   0.314648  0.478390  0.834488  0.032910
    H   H92   0.341178  0.369687  0.786462  -0.048782
    H   H93   0.277324  0.399658  0.774999  -0.035626
    H   H94   0.309274  0.437085  0.923982  0.013817
    H   H95   0.251617  0.422018  0.884358  -0.005263
    H   H96   0.298587  0.375273  0.898655  0.034783
    H   H97   0.050621  0.111199  0.869317  0.120760
    H   H98   0.098118  0.158573  0.806382  0.116840
    H   H99   0.236606  0.127646  0.899657  0.113053
    H   H100  0.157822  0.219098  0.129532  0.110140
    H   H101  0.257578  0.217147  0.161486  0.166162
    H   H102  0.292625  0.118894  0.131199  0.160533
    H   H103  0.248606  0.044432  0.084488  0.025217
    H   H104  0.139902  0.070963  0.036462  -0.017995
    H   H105  0.169873  0.007109  0.024999  0.015616
    H   H106  0.207301  0.039059  0.173982  0.020835
    H   H107  0.192233  0.981402  0.134358  -0.009053
    H   H108  0.145489  0.028372  0.148655  0.035270
    H   H109  0.469594  0.868586  0.369317  0.119831
    H   H110  0.422098  0.821211  0.306382  0.117670
    H   H111  0.283609  0.852139  0.399657  0.112248
    H   H112  0.362393  0.760687  0.629532  0.108837
    H   H113  0.262638  0.762638  0.661486  0.167410
    H   H114  0.227590  0.860890  0.631199  0.159954
    H   H115  0.271610  0.935352  0.584488  0.024400
    H   H116  0.380313  0.908822  0.536462  -0.014989
    H   H117  0.350342  0.972676  0.524999  0.016827
    H   H118  0.312915  0.940726  0.673982  0.020540
    H   H119  0.327982  0.998383  0.634358  -0.009685
    H   H120  0.374727  0.951413  0.648655  0.035147
    H   H121  0.638801  0.280406  0.619317  0.118029
    H   H122  0.591427  0.327902  0.556382  0.131822
    H   H123  0.622354  0.466391  0.649657  0.123487
    H   H124  0.530902  0.387607  0.879532  0.111549
    H   H125  0.532853  0.487362  0.911486  0.155933
    H   H126  0.631106  0.522410  0.881199  0.159070
    H   H127  0.705568  0.478390  0.834488  0.033864
    H   H128  0.679037  0.369687  0.786462  -0.048950
    H   H129  0.742891  0.399658  0.774999  -0.038234
    H   H130  0.710941  0.437085  0.923982  0.013834
    H   H131  0.768598  0.422018  0.884358  -0.003921
    H   H132  0.721628  0.375273  0.898655  0.035301
    H   H133  0.881414  0.699379  0.119317  0.117946
    H   H134  0.928789  0.651882  0.056382  0.131841
    H   H135  0.897861  0.513394  0.149657  0.124053
    H   H136  0.989313  0.592178  0.379532  0.113049
    H   H137  0.987362  0.492422  0.411486  0.154453
    H   H138  0.889110  0.457375  0.381199  0.158771
    H   H139  0.814648  0.501394  0.334488  0.033694
    H   H140  0.841178  0.610098  0.286462  -0.047383
    H   H141  0.777324  0.580127  0.274999  -0.032692
    H   H142  0.809274  0.542699  0.423982  0.012355
    H   H143  0.751617  0.557767  0.384358  -0.006678
    H   H144  0.798587  0.604511  0.398655  0.033451
    H   H145  0.469594  0.111199  0.630683  0.119427
    H   H146  0.422098  0.158573  0.693618  0.117375
    H   H147  0.283609  0.127646  0.600343  0.112459
    H   H148  0.362393  0.219098  0.370468  0.108775
    H   H149  0.262638  0.217147  0.338514  0.167639
    H   H150  0.227590  0.118894  0.368801  0.159944
    H   H151  0.271610  0.044432  0.415512  0.023835
    H   H152  0.380313  0.070963  0.463538  -0.017306
    H   H153  0.350342  0.007109  0.475001  0.012544
    H   H154  0.312915  0.039059  0.326018  0.021831
    H   H155  0.327982  0.981402  0.365642  -0.007838
    H   H156  0.374727  0.028372  0.351345  0.036310
    H   H157  0.050621  0.868586  0.130683  0.119803
    H   H158  0.098118  0.821211  0.193618  0.117646
    H   H159  0.236606  0.852139  0.100343  0.112496
    H   H160  0.157822  0.760687  0.870468  0.109388
    H   H161  0.257578  0.762638  0.838514  0.166078
    H   H162  0.292625  0.860890  0.868801  0.160831
    H   H163  0.248606  0.935352  0.915512  0.024020
    H   H164  0.139902  0.908822  0.963538  -0.016608
    H   H165  0.169873  0.972676  0.975001  0.016214
    H   H166  0.207301  0.940726  0.826018  0.021755
    H   H167  0.192233  0.998383  0.865642  -0.008474
    H   H168  0.145489  0.951413  0.851345  0.035914
    H   H169  0.881414  0.280406  0.880683  0.116605
    H   H170  0.928789  0.327902  0.943618  0.132351
    H   H171  0.897861  0.466391  0.850343  0.123970
    H   H172  0.989313  0.387607  0.620468  0.113664
    H   H173  0.987362  0.487362  0.588514  0.155133
    H   H174  0.889110  0.522410  0.618801  0.158160
    H   H175  0.814648  0.478390  0.665512  0.032934
    H   H176  0.841178  0.369687  0.713538  -0.048778
    H   H177  0.777324  0.399658  0.725001  -0.035678
    H   H178  0.809274  0.437085  0.576018  0.013814
    H   H179  0.751617  0.422018  0.615642  -0.005256
    H   H180  0.798587  0.375273  0.601345  0.034782
    H   H181  0.638801  0.699379  0.380683  0.118235
    H   H182  0.591427  0.651882  0.443618  0.131571
    H   H183  0.622354  0.513394  0.350343  0.123057
    H   H184  0.530902  0.592178  0.120468  0.112439
    H   H185  0.532853  0.492422  0.088514  0.156447
    H   H186  0.631106  0.457375  0.118801  0.158612
    H   H187  0.705568  0.501394  0.165512  0.032560
    H   H188  0.679037  0.610098  0.213538  -0.048911
    H   H189  0.742891  0.580127  0.225001  -0.039290
    H   H190  0.710941  0.542699  0.076018  0.012111
    H   H191  0.768598  0.557767  0.115642  -0.005937
    H   H192  0.721628  0.604511  0.101345  0.033713
    N   N1    0.808828  0.867040  0.896496  0.442897
    N   N2    0.850822  0.838280  0.897312  -0.464451
    N   N3    0.711387  0.112744  0.396496  0.443790
    N   N4    0.669394  0.141504  0.397312  -0.461472
    N   N5    0.382960  0.538613  0.146496  0.450337
    N   N6    0.411720  0.580606  0.147312  -0.473593
    N   N7    0.137256  0.441172  0.646496  0.452841
    N   N8    0.108496  0.399178  0.647312  -0.475479
    N   N9    0.711387  0.867040  0.603504  0.442619
    N   N10   0.669394  0.838280  0.602688  -0.462956
    N   N11   0.808828  0.112744  0.103504  0.440585
    N   N12   0.850822  0.141504  0.102688  -0.464366
    N   N13   0.137256  0.538613  0.353504  0.451652
    N   N14   0.108496  0.580606  0.352688  -0.475067
    N   N15   0.382960  0.441172  0.853504  0.446516
    N   N16   0.411720  0.399178  0.852688  -0.473639
    N   N17   0.211387  0.112744  0.103504  0.443787
    N   N18   0.169394  0.141504  0.102688  -0.461471
    N   N19   0.308828  0.867040  0.603504  0.442899
    N   N20   0.350822  0.838280  0.602688  -0.464455
    N   N21   0.637256  0.441172  0.853504  0.452843
    N   N22   0.608496  0.399178  0.852688  -0.475497
    N   N23   0.882960  0.538613  0.353504  0.450335
    N   N24   0.911720  0.580606  0.352688  -0.473593
    N   N25   0.308828  0.112744  0.396496  0.440588
    N   N26   0.350822  0.141504  0.397312  -0.464369
    N   N27   0.211387  0.867040  0.896496  0.442616
    N   N28   0.169394  0.838280  0.897312  -0.462954
    N   N29   0.882960  0.441172  0.646496  0.446578
    N   N30   0.911720  0.399178  0.647312  -0.473654
    N   N31   0.637256  0.538613  0.146496  0.451652
    N   N32   0.608496  0.580606  0.147312  -0.475067
    O   O1    0.062433  0.997977  0.928286  -0.625475
    O   O2    0.062433  0.497977  0.071714  -0.594047
    O   O3    0.062433  0.555807  0.008796  -0.625538
    O   O4    0.062433  0.423977  0.991204  -0.625125
    O   O5    0.062433  0.481808  0.928286  -0.593723
    O   O6    0.957782  0.423977  0.991204  -0.625685
    O   O7    0.957782  0.481808  0.928286  -0.593862
    O   O8    0.957782  0.497977  0.071714  -0.593831
    O   O9    0.957782  0.555807  0.008796  -0.625681
    O   O10   0.062433  0.981808  0.071714  -0.624405
    O   O11   0.774213  0.901072  0.019808  -0.472615
    O   O12   0.062433  0.923977  0.008796  -0.580988
    O   O13   0.746002  0.078712  0.519808  -0.472072
    O   O14   0.562433  0.997977  0.571714  -0.625480
    O   O15   0.562433  0.055807  0.508796  -0.581050
    O   O16   0.348928  0.503998  0.269808  -0.482202
    O   O17   0.562433  0.923977  0.491204  -0.580997
    O   O18   0.562433  0.981808  0.428286  -0.624413
    O   O19   0.171288  0.475787  0.769808  -0.480659
    O   O20   0.457782  0.923977  0.491204  -0.583251
    O   O21   0.457782  0.981808  0.428286  -0.626534
    O   O22   0.746002  0.901072  0.480192  -0.472381
    O   O23   0.457782  0.997977  0.571714  -0.626272
    O   O24   0.774213  0.078712  0.980192  -0.472179
    O   O25   0.457782  0.055807  0.508796  -0.581775
    O   O26   0.171288  0.503998  0.230192  -0.480979
    O   O27   0.957782  0.981808  0.071714  -0.626538
    O   O28   0.268192  0.687567  0.321714  -0.642953
    O   O29   0.326023  0.687567  0.258796  -0.558684
    O   O30   0.348928  0.475787  0.730192  -0.482324
    O   O31   0.194193  0.687567  0.241204  -0.558011
    O   O32   0.252023  0.687567  0.178286  -0.641416
    O   O33   0.246002  0.078712  0.980192  -0.472076
    O   O34   0.194193  0.792218  0.241204  -0.656988
    O   O35   0.252023  0.792218  0.178286  -0.592432
    O   O36   0.274213  0.901072  0.480192  -0.472612
    O   O37   0.957782  0.923977  0.008796  -0.583253
    O   O38   0.268192  0.792218  0.321714  -0.592456
    O   O39   0.671288  0.475787  0.730192  -0.480715
    O   O40   0.326023  0.792218  0.258796  -0.656432
    O   O41   0.848928  0.503998  0.230192  -0.482202
    O   O42   0.252023  0.292218  0.821714  -0.641450
    O   O43   0.194193  0.292218  0.758796  -0.557669
    O   O44   0.274213  0.078712  0.519808  -0.472159
    O   O45   0.326023  0.292218  0.741204  -0.558018
    O   O46   0.268192  0.292218  0.678286  -0.642268
    O   O47   0.246002  0.901072  0.019808  -0.472385
    O   O48   0.326023  0.187567  0.741204  -0.656170
    O   O49   0.268192  0.187567  0.678286  -0.592523
    O   O50   0.848928  0.475787  0.769808  -0.482307
    O   O51   0.252023  0.187567  0.821714  -0.592280
    O   O52   0.671288  0.503998  0.269808  -0.480981
    O   O53   0.194193  0.187567  0.758796  -0.656821
    O   O54   0.752023  0.292218  0.678286  -0.641444
    O   O55   0.957782  0.055807  0.991204  -0.581776
    O   O56   0.694193  0.292218  0.741204  -0.557657
    O   O57   0.826023  0.292218  0.758796  -0.558024
    O   O58   0.768192  0.292218  0.821714  -0.642286
    O   O59   0.826023  0.187567  0.758796  -0.656156
    O   O60   0.768192  0.187567  0.821714  -0.592486
    O   O61   0.752023  0.187567  0.678286  -0.592277
    O   O62   0.694193  0.187567  0.741204  -0.656832
    O   O63   0.957782  0.997977  0.928286  -0.626275
    O   O64   0.768192  0.687567  0.178286  -0.642960
    O   O65   0.826023  0.687567  0.241204  -0.558688
    O   O66   0.694193  0.687567  0.258796  -0.558006
    O   O67   0.752023  0.687567  0.321714  -0.641410
    O   O68   0.694193  0.792218  0.258796  -0.656988
    O   O69   0.752023  0.792218  0.321714  -0.592430
    O   O70   0.768192  0.792218  0.178286  -0.592458
    O   O71   0.826023  0.792218  0.241204  -0.656431
    O   O72   0.457782  0.481808  0.571714  -0.593857
    O   O73   0.457782  0.423977  0.508796  -0.625676
    O   O74   0.062433  0.055807  0.991204  -0.581045
    O   O75   0.457782  0.555807  0.491204  -0.625677
    O   O76   0.457782  0.497977  0.428286  -0.593827
    O   O77   0.562433  0.555807  0.491204  -0.625544
    O   O78   0.562433  0.497977  0.428286  -0.594052
    O   O79   0.562433  0.481808  0.571714  -0.593722
    O   O80   0.562433  0.423977  0.508796  -0.625125
