# Generated by REPEAT Assigner based on pymatgen
data_DB13-lvt-Syn038394
_audit_creation_date              2022-05-24
_audit_creation_method            REPEAT_Assigner
_cell_length_a                    25.784800
_cell_length_b                    25.784800
_cell_length_c                    23.695500
_cell_angle_alpha                 90.000000
_cell_angle_beta                  90.000000
_cell_angle_gamma                 90.000000
_cell_volume                      15754.093240
_symmetry_space_group_name_H-M    P1
_symmetry_Int_Tables_number       1
loop_
    _symmetry_equiv_pos_site_id
    _symmetry_equiv_pos_as_xyz
    1  x,y,z
loop_
    _atom_site_type_symbol
    _atom_site_label
    _atom_site_fract_x
    _atom_site_fract_y
    _atom_site_fract_z
    _atom_type_partial_charge
    C   C1    0.079289  0.538776  0.053216  0.803232
    C   C2    0.079289  0.440968  0.946784  0.804971
    C   C3    0.940968  0.440968  0.946784  0.804392
    C   C4    0.940968  0.538776  0.053216  0.807593
    C   C5    0.079289  0.940968  0.053216  0.833241
    C   C6    0.833136  0.842992  0.097450  -0.005713
    C   C7    0.838105  0.845649  0.155132  -0.003663
    C   C8    0.872713  0.881136  0.180388  -0.245537
    C   C9    0.906462  0.911930  0.147094  0.065890
    C   C10   0.904386  0.907220  0.090335  -0.157352
    C   C11   0.868466  0.874406  0.066298  -0.055999
    C   C12   0.887206  0.866008  0.787074  -0.028237
    C   C13   0.823288  0.861360  0.859130  0.162965
    C   C14   0.801939  0.827909  0.906118  0.119853
    C   C15   0.757209  0.799852  0.908675  -0.349473
    C   C16   0.750732  0.783430  0.964656  0.050821
    C   C17   0.787138  0.806952  0.996298  -0.101585
    C   C18   0.794725  0.808975  0.061728  0.395956
    C   C19   0.687120  0.136751  0.597450  -0.002994
    C   C20   0.682152  0.134094  0.655132  -0.010873
    C   C21   0.647544  0.098608  0.680388  -0.241331
    C   C22   0.613795  0.067814  0.647094  0.064681
    C   C23   0.615871  0.072523  0.590335  -0.160255
    C   C24   0.651790  0.105338  0.566298  -0.054050
    C   C25   0.633051  0.113736  0.287074  -0.024365
    C   C26   0.696969  0.118383  0.359130  0.168859
    C   C27   0.718318  0.151835  0.406118  0.111884
    C   C28   0.763048  0.179891  0.408675  -0.344023
    C   C29   0.769525  0.196313  0.464656  0.046904
    C   C30   0.733119  0.172791  0.496298  -0.100308
    C   C31   0.725532  0.170769  0.561728  0.394918
    C   C32   0.579289  0.038776  0.553216  0.835826
    C   C33   0.407008  0.562880  0.347450  -0.036828
    C   C34   0.404351  0.567848  0.405132  -0.007526
    C   C35   0.368864  0.602456  0.430388  -0.272149
    C   C36   0.338070  0.636205  0.397094  0.090891
    C   C37   0.342780  0.634129  0.340335  -0.150069
    C   C38   0.375594  0.598210  0.316298  -0.043509
    C   C39   0.383992  0.616949  0.037074  0.029220
    C   C40   0.388640  0.553031  0.109130  0.066813
    C   C41   0.422091  0.531682  0.156118  0.229787
    C   C42   0.450148  0.486952  0.158675  -0.457205
    C   C43   0.466570  0.480475  0.214656  0.158268
    C   C44   0.443048  0.516881  0.246298  -0.193813
    C   C45   0.441025  0.524468  0.311728  0.444954
    C   C46   0.579289  0.940968  0.446784  0.832878
    C   C47   0.113249  0.416864  0.847450  -0.035039
    C   C48   0.115906  0.411895  0.905132  -0.009455
    C   C49   0.151392  0.377287  0.930388  -0.268480
    C   C50   0.182186  0.343538  0.897094  0.086366
    C   C51   0.177477  0.345614  0.840335  -0.146170
    C   C52   0.144662  0.381534  0.816298  -0.046678
    C   C53   0.136264  0.362794  0.537074  0.029853
    C   C54   0.940968  0.940968  0.053216  0.832940
    C   C55   0.131617  0.426712  0.609130  0.060930
    C   C56   0.098165  0.448061  0.656118  0.231858
    C   C57   0.070109  0.492791  0.658675  -0.458907
    C   C58   0.053687  0.499268  0.714656  0.161677
    C   C59   0.077209  0.462862  0.746298  -0.197199
    C   C60   0.079231  0.455275  0.811728  0.444906
    C   C61   0.687120  0.842992  0.402550  -0.005874
    C   C62   0.682152  0.845649  0.344868  -0.006739
    C   C63   0.647544  0.881136  0.319612  -0.245075
    C   C64   0.613795  0.911930  0.352906  0.067391
    C   C65   0.440968  0.940968  0.446784  0.833291
    C   C66   0.615871  0.907220  0.409665  -0.159376
    C   C67   0.651790  0.874406  0.433702  -0.053574
    C   C68   0.633051  0.866008  0.712926  -0.022138
    C   C69   0.696969  0.861360  0.640870  0.171127
    C   C70   0.718318  0.827909  0.593882  0.112746
    C   C71   0.763048  0.799852  0.591325  -0.343209
    C   C72   0.769525  0.783430  0.535344  0.046283
    C   C73   0.733119  0.806952  0.503702  -0.098178
    C   C74   0.725532  0.808975  0.438272  0.395009
    C   C75   0.833136  0.136751  0.902550  -0.004994
    C   C76   0.838105  0.134094  0.844868  -0.007579
    C   C77   0.872713  0.098608  0.819612  -0.243855
    C   C78   0.906462  0.067814  0.852906  0.066998
    C   C79   0.904386  0.072523  0.909665  -0.160300
    C   C80   0.868466  0.105338  0.933702  -0.052406
    C   C81   0.440968  0.038776  0.553216  0.834366
    C   C82   0.887206  0.113736  0.212926  -0.025321
    C   C83   0.823288  0.118383  0.140870  0.167058
    C   C84   0.801939  0.151835  0.093882  0.118635
    C   C85   0.757209  0.179891  0.091325  -0.346887
    C   C86   0.750732  0.196313  0.035344  0.047073
    C   C87   0.787138  0.172791  0.003702  -0.098957
    C   C88   0.794725  0.170769  0.938272  0.393721
    C   C89   0.113249  0.562880  0.152550  -0.033164
    C   C90   0.115906  0.567848  0.094868  -0.006693
    C   C91   0.151392  0.602456  0.069612  -0.271795
    C   C92   0.182186  0.636205  0.102906  0.091779
    C   C93   0.177477  0.634129  0.159665  -0.149472
    C   C94   0.144662  0.598210  0.183702  -0.049157
    C   C95   0.136264  0.616949  0.462926  0.029507
    C   C96   0.131617  0.553031  0.390870  0.069982
    C   C97   0.098165  0.531682  0.343882  0.225235
    C   C98   0.070109  0.486952  0.341325  -0.452322
    C   C99   0.053687  0.480475  0.285344  0.150696
    C   C100  0.077209  0.516881  0.253702  -0.186688
    C   C101  0.079231  0.524468  0.188272  0.439500
    C   C102  0.407008  0.416864  0.652550  -0.037128
    C   C103  0.404351  0.411895  0.594868  -0.005073
    C   C104  0.368864  0.377287  0.569612  -0.274467
    C   C105  0.338070  0.343538  0.602906  0.092870
    C   C106  0.342780  0.345614  0.659665  -0.150789
    C   C107  0.375594  0.381534  0.683702  -0.043599
    C   C108  0.309032  0.670711  0.303216  0.816106
    C   C109  0.383992  0.362794  0.962926  0.026965
    C   C110  0.388640  0.426712  0.890870  0.064970
    C   C111  0.422091  0.448061  0.843882  0.230210
    C   C112  0.450148  0.492791  0.841325  -0.459060
    C   C113  0.466570  0.499268  0.785344  0.161265
    C   C114  0.443048  0.462862  0.753702  -0.195662
    C   C115  0.441025  0.455275  0.688272  0.445171
    C   C116  0.187120  0.136751  0.902550  -0.003079
    C   C117  0.182152  0.134094  0.844868  -0.010817
    C   C118  0.147544  0.098608  0.819612  -0.241646
    C   C119  0.113795  0.067814  0.852906  0.065035
    C   C120  0.115871  0.072523  0.909665  -0.160806
    C   C121  0.151790  0.105338  0.933702  -0.053578
    C   C122  0.133051  0.113736  0.212926  -0.024584
    C   C123  0.211224  0.670711  0.196784  0.816105
    C   C124  0.196969  0.118383  0.140870  0.168172
    C   C125  0.218318  0.151835  0.093882  0.112093
    C   C126  0.263048  0.179891  0.091325  -0.343784
    C   C127  0.269525  0.196313  0.035344  0.046902
    C   C128  0.233119  0.172791  0.003702  -0.100378
    C   C129  0.225532  0.170769  0.938272  0.394822
    C   C130  0.333136  0.842992  0.402550  -0.005601
    C   C131  0.338105  0.845649  0.344868  -0.003697
    C   C132  0.372713  0.881136  0.319612  -0.245749
    C   C133  0.406462  0.911930  0.352906  0.065967
    C   C134  0.404386  0.907220  0.409665  -0.157544
    C   C135  0.368466  0.874406  0.433702  -0.055816
    C   C136  0.387206  0.866008  0.712926  -0.028440
    C   C137  0.323288  0.861360  0.640870  0.162247
    C   C138  0.301939  0.827909  0.593882  0.120101
    C   C139  0.257209  0.799852  0.591325  -0.349254
    C   C140  0.211224  0.809032  0.196784  0.725357
    C   C141  0.250732  0.783430  0.535344  0.050824
    C   C142  0.287138  0.806952  0.503702  -0.101672
    C   C143  0.294725  0.808975  0.438272  0.395885
    C   C144  0.613249  0.416864  0.652550  -0.034623
    C   C145  0.615906  0.411895  0.594868  -0.009895
    C   C146  0.651392  0.377287  0.569612  -0.268129
    C   C147  0.682186  0.343538  0.602906  0.086396
    C   C148  0.677477  0.345614  0.659665  -0.146016
    C   C149  0.644662  0.381534  0.683702  -0.047123
    C   C150  0.636264  0.362794  0.962926  0.029956
    C   C151  0.631617  0.426712  0.890870  0.061111
    C   C152  0.598165  0.448061  0.843882  0.231847
    C   C153  0.570109  0.492791  0.841325  -0.459150
    C   C154  0.553687  0.499268  0.785344  0.161583
    C   C155  0.577209  0.462862  0.753702  -0.197047
    C   C156  0.579231  0.455275  0.688272  0.444782
    C   C157  0.309032  0.809032  0.303216  0.723230
    C   C158  0.907008  0.562880  0.152550  -0.036420
    C   C159  0.904351  0.567848  0.094868  -0.007954
    C   C160  0.868864  0.602456  0.069612  -0.271824
    C   C161  0.838070  0.636205  0.102906  0.090959
    C   C162  0.842780  0.634129  0.159665  -0.149937
    C   C163  0.875594  0.598210  0.183702  -0.043949
    C   C164  0.883992  0.616949  0.462926  0.029325
    C   C165  0.888640  0.553031  0.390870  0.067006
    C   C166  0.922091  0.531682  0.343882  0.229766
    C   C167  0.950148  0.486952  0.341325  -0.457445
    C   C168  0.966570  0.480475  0.285344  0.158166
    C   C169  0.943048  0.516881  0.253702  -0.193655
    C   C170  0.941025  0.524468  0.188272  0.444835
    C   C171  0.333136  0.136751  0.597450  -0.005204
    C   C172  0.338105  0.134094  0.655132  -0.007291
    C   C173  0.372713  0.098608  0.680388  -0.244282
    C   C174  0.406462  0.067814  0.647094  0.067248
    C   C175  0.404386  0.072523  0.590335  -0.160691
    C   C176  0.368466  0.105338  0.566298  -0.051968
    C   C177  0.387206  0.113736  0.287074  -0.025537
    C   C178  0.323288  0.118383  0.359130  0.166365
    C   C179  0.301939  0.151835  0.406118  0.118835
    C   C180  0.257209  0.179891  0.408675  -0.346634
    C   C181  0.250732  0.196313  0.464656  0.047051
    C   C182  0.287138  0.172791  0.496298  -0.099025
    C   C183  0.211224  0.309032  0.803216  0.813520
    C   C184  0.294725  0.170769  0.561728  0.393681
    C   C185  0.187120  0.842992  0.097450  -0.006048
    C   C186  0.182152  0.845649  0.155132  -0.006487
    C   C187  0.147544  0.881136  0.180388  -0.245473
    C   C188  0.113795  0.911930  0.147094  0.067603
    C   C189  0.115871  0.907220  0.090335  -0.159704
    C   C190  0.151790  0.874406  0.066298  -0.053183
    C   C191  0.133051  0.866008  0.787074  -0.022331
    C   C192  0.196969  0.861360  0.859130  0.170470
    C   C193  0.218318  0.827909  0.906118  0.112932
    C   C194  0.263048  0.799852  0.908675  -0.342953
    C   C195  0.269525  0.783430  0.964656  0.046258
    C   C196  0.233119  0.806952  0.996298  -0.098235
    C   C197  0.225532  0.808975  0.061728  0.394948
    C   C198  0.309032  0.309032  0.696784  0.815540
    C   C199  0.907008  0.416864  0.847450  -0.036712
    C   C200  0.904351  0.411895  0.905132  -0.005516
    C   C201  0.868864  0.377287  0.930388  -0.274117
    C   C202  0.838070  0.343538  0.897094  0.092898
    C   C203  0.842780  0.345614  0.840335  -0.150619
    C   C204  0.875594  0.381534  0.816298  -0.044052
    C   C205  0.883992  0.362794  0.537074  0.027072
    C   C206  0.888640  0.426712  0.609130  0.065160
    C   C207  0.922091  0.448061  0.656118  0.230199
    C   C208  0.950148  0.492791  0.658675  -0.459307
    C   C209  0.966570  0.499268  0.714656  0.161168
    C   C210  0.943048  0.462862  0.746298  -0.195504
    C   C211  0.941025  0.455275  0.811728  0.445051
    C   C212  0.940968  0.038776  0.946784  0.833941
    C   C213  0.309032  0.170711  0.696784  0.725926
    C   C214  0.613249  0.562880  0.347450  -0.032738
    C   C215  0.615906  0.567848  0.405132  -0.007142
    C   C216  0.651392  0.602456  0.430388  -0.271441
    C   C217  0.682186  0.636205  0.397094  0.091799
    C   C218  0.677477  0.634129  0.340335  -0.149296
    C   C219  0.644662  0.598210  0.316298  -0.049615
    C   C220  0.636264  0.616949  0.037074  0.029620
    C   C221  0.631617  0.553031  0.109130  0.070172
    C   C222  0.598165  0.531682  0.156118  0.225221
    C   C223  0.570109  0.486952  0.158675  -0.452569
    C   C224  0.553687  0.480475  0.214656  0.150601
    C   C225  0.577209  0.516881  0.246298  -0.186533
    C   C226  0.579231  0.524468  0.311728  0.439372
    C   C227  0.211224  0.170711  0.803216  0.727787
    C   C228  0.711224  0.309032  0.696784  0.813356
    C   C229  0.809032  0.309032  0.803216  0.815360
    C   C230  0.809032  0.170711  0.803216  0.726208
    C   C231  0.711224  0.170711  0.696784  0.727939
    C   C232  0.809032  0.670711  0.196784  0.815967
    C   C233  0.711224  0.670711  0.303216  0.815924
    C   C234  0.711224  0.809032  0.303216  0.725617
    C   C235  0.079289  0.038776  0.946784  0.836306
    C   C236  0.809032  0.809032  0.196784  0.723403
    C   C237  0.440968  0.440968  0.553216  0.803990
    C   C238  0.440968  0.538776  0.446784  0.807191
    C   C239  0.579289  0.538776  0.446784  0.803650
    C   C240  0.579289  0.440968  0.553216  0.805383
    Cu  Cu1   0.010128  0.953463  0.960381  0.940261
    Cu  Cu2   0.010128  0.026280  0.039619  0.941793
    Cu  Cu3   0.510128  0.026280  0.460381  0.941807
    Cu  Cu4   0.510128  0.953463  0.539619  0.940269
    Cu  Cu5   0.296537  0.739872  0.210381  0.958892
    Cu  Cu6   0.223720  0.739872  0.289619  0.960591
    Cu  Cu7   0.223720  0.239872  0.710381  0.960466
    Cu  Cu8   0.296537  0.239872  0.789619  0.958281
    Cu  Cu9   0.723720  0.239872  0.789619  0.960382
    Cu  Cu10  0.796537  0.239872  0.710381  0.958223
    Cu  Cu11  0.796537  0.739872  0.289619  0.958831
    Cu  Cu12  0.723720  0.739872  0.210381  0.960513
    Cu  Cu13  0.510128  0.453463  0.460381  1.031211
    Cu  Cu14  0.510128  0.526280  0.539619  1.033720
    Cu  Cu15  0.010128  0.526280  0.960381  1.033711
    Cu  Cu16  0.010128  0.453463  0.039619  1.031202
    H   H1    0.876859  0.883065  0.227631  0.133887
    H   H2    0.934171  0.937944  0.163832  0.082129
    H   H3    0.865848  0.872390  0.019378  0.026509
    H   H4    0.884830  0.907812  0.800532  0.026435
    H   H5    0.929669  0.853158  0.783382  0.088235
    H   H6    0.863665  0.863665  0.748935  0.048740
    H   H7    0.832189  0.900498  0.874482  0.024981
    H   H8    0.792723  0.865809  0.825247  0.046937
    H   H9    0.730875  0.788112  0.873619  0.176360
    H   H10   0.720247  0.760122  0.983260  0.082605
    H   H11   0.643398  0.096679  0.727631  0.132989
    H   H12   0.586085  0.041799  0.663832  0.082318
    H   H13   0.654409  0.107353  0.519378  0.024607
    H   H14   0.635427  0.071932  0.300532  0.025266
    H   H15   0.590587  0.126585  0.283382  0.086820
    H   H16   0.656591  0.116078  0.248935  0.047463
    H   H17   0.688068  0.079245  0.374482  0.023384
    H   H18   0.727534  0.113934  0.325247  0.046188
    H   H19   0.789382  0.191632  0.373619  0.175128
    H   H20   0.800009  0.219622  0.483260  0.083712
    H   H21   0.366935  0.606602  0.477631  0.129186
    H   H22   0.312056  0.663915  0.413832  0.085710
    H   H23   0.377610  0.595591  0.269378  0.004644
    H   H24   0.342188  0.614573  0.050532  0.026073
    H   H25   0.396842  0.659413  0.033382  0.075439
    H   H26   0.386335  0.593409  0.998935  0.024510
    H   H27   0.349502  0.561932  0.124482  0.027332
    H   H28   0.384191  0.522466  0.075247  0.068501
    H   H29   0.461888  0.460618  0.123619  0.203772
    H   H30   0.489878  0.449991  0.233260  0.065231
    H   H31   0.153321  0.373141  0.977631  0.128608
    H   H32   0.208201  0.315829  0.913832  0.087011
    H   H33   0.142647  0.384152  0.769378  0.006327
    H   H34   0.178068  0.365170  0.550532  0.025846
    H   H35   0.123415  0.320331  0.533382  0.074727
    H   H36   0.133922  0.386335  0.498935  0.024931
    H   H37   0.170755  0.417811  0.624482  0.028460
    H   H38   0.136066  0.457277  0.575247  0.070275
    H   H39   0.058368  0.519125  0.623619  0.204163
    H   H40   0.030378  0.529753  0.733260  0.064330
    H   H41   0.643398  0.883065  0.272369  0.133456
    H   H42   0.586085  0.937944  0.336168  0.081639
    H   H43   0.654409  0.872390  0.480622  0.026265
    H   H44   0.635427  0.907812  0.699468  0.024943
    H   H45   0.590587  0.853158  0.716618  0.086077
    H   H46   0.656591  0.863665  0.751065  0.046812
    H   H47   0.688068  0.900498  0.625518  0.023739
    H   H48   0.727534  0.865809  0.674753  0.044310
    H   H49   0.789382  0.788112  0.626381  0.174732
    H   H50   0.800009  0.760122  0.516740  0.083810
    H   H51   0.876859  0.096679  0.772369  0.133435
    H   H52   0.934171  0.041799  0.836168  0.081358
    H   H53   0.865848  0.107353  0.980622  0.025205
    H   H54   0.884830  0.071932  0.199468  0.025491
    H   H55   0.929669  0.126585  0.216618  0.087631
    H   H56   0.863665  0.116078  0.251065  0.047810
    H   H57   0.832189  0.079245  0.125518  0.024085
    H   H58   0.792723  0.113934  0.174753  0.045374
    H   H59   0.730875  0.191632  0.126381  0.175646
    H   H60   0.720247  0.219622  0.016740  0.083586
    H   H61   0.153321  0.606602  0.022369  0.129212
    H   H62   0.208201  0.663915  0.086168  0.085351
    H   H63   0.142647  0.595591  0.230622  0.007832
    H   H64   0.178068  0.614573  0.449468  0.025705
    H   H65   0.123415  0.659413  0.466618  0.075111
    H   H66   0.133922  0.593409  0.501065  0.024603
    H   H67   0.170755  0.561932  0.375518  0.026836
    H   H68   0.136066  0.522466  0.424753  0.067835
    H   H69   0.058368  0.460618  0.376381  0.203073
    H   H70   0.030378  0.449991  0.266740  0.067820
    H   H71   0.366935  0.373141  0.522369  0.129551
    H   H72   0.312056  0.315829  0.586168  0.085467
    H   H73   0.377610  0.384152  0.730622  0.004677
    H   H74   0.342188  0.365170  0.949468  0.026339
    H   H75   0.396842  0.320331  0.966618  0.075814
    H   H76   0.386335  0.386335  0.001065  0.025598
    H   H77   0.349502  0.417811  0.875518  0.027751
    H   H78   0.384191  0.457277  0.924753  0.069449
    H   H79   0.461888  0.519125  0.876381  0.204391
    H   H80   0.489878  0.529753  0.766740  0.063970
    H   H81   0.143398  0.096679  0.772369  0.133134
    H   H82   0.086085  0.041799  0.836168  0.082272
    H   H83   0.154409  0.107353  0.980622  0.024468
    H   H84   0.135427  0.071932  0.199468  0.025279
    H   H85   0.090587  0.126585  0.216618  0.086884
    H   H86   0.156591  0.116078  0.251065  0.047553
    H   H87   0.188068  0.079245  0.125518  0.023575
    H   H88   0.227534  0.113934  0.174753  0.046368
    H   H89   0.289382  0.191632  0.126381  0.174943
    H   H90   0.300009  0.219622  0.016740  0.083696
    H   H91   0.376859  0.883065  0.272369  0.134012
    H   H92   0.434171  0.937944  0.336168  0.082143
    H   H93   0.365848  0.872390  0.480622  0.026428
    H   H94   0.384830  0.907812  0.699468  0.026441
    H   H95   0.429669  0.853158  0.716618  0.088296
    H   H96   0.363665  0.863665  0.751065  0.048826
    H   H97   0.332189  0.900498  0.625518  0.025177
    H   H98   0.292723  0.865809  0.674753  0.047125
    H   H99   0.230875  0.788112  0.626381  0.176179
    H   H100  0.220247  0.760122  0.516740  0.082594
    H   H101  0.653321  0.373141  0.522369  0.128419
    H   H102  0.708201  0.315829  0.586168  0.086961
    H   H103  0.642647  0.384152  0.730622  0.006426
    H   H104  0.678068  0.365170  0.949468  0.025870
    H   H105  0.623415  0.320331  0.966618  0.074664
    H   H106  0.633922  0.386335  0.001065  0.024887
    H   H107  0.670755  0.417811  0.875518  0.028416
    H   H108  0.636066  0.457277  0.924753  0.070187
    H   H109  0.558368  0.519125  0.876381  0.204282
    H   H110  0.530378  0.529753  0.766740  0.064389
    H   H111  0.866935  0.606602  0.022369  0.129003
    H   H112  0.812056  0.663915  0.086168  0.085653
    H   H113  0.877610  0.595591  0.230622  0.004736
    H   H114  0.842188  0.614573  0.449468  0.026095
    H   H115  0.896842  0.659413  0.466618  0.075375
    H   H116  0.886335  0.593409  0.501065  0.024465
    H   H117  0.849502  0.561932  0.375518  0.027287
    H   H118  0.884191  0.522466  0.424753  0.068410
    H   H119  0.961888  0.460618  0.376381  0.203893
    H   H120  0.989878  0.449991  0.266740  0.065292
    H   H121  0.376859  0.096679  0.727631  0.133598
    H   H122  0.434171  0.041799  0.663832  0.081348
    H   H123  0.365848  0.107353  0.519378  0.025065
    H   H124  0.384830  0.071932  0.300532  0.025502
    H   H125  0.429669  0.126585  0.283382  0.087694
    H   H126  0.363665  0.116078  0.248935  0.047899
    H   H127  0.332189  0.079245  0.374482  0.024277
    H   H128  0.292723  0.113934  0.325247  0.045558
    H   H129  0.230875  0.191632  0.373619  0.175459
    H   H130  0.220247  0.219622  0.483260  0.083577
    H   H131  0.143398  0.883065  0.227631  0.133614
    H   H132  0.086085  0.937944  0.163832  0.081630
    H   H133  0.154409  0.872390  0.019378  0.026142
    H   H134  0.135427  0.907812  0.800532  0.024936
    H   H135  0.090587  0.853158  0.783382  0.086137
    H   H136  0.156591  0.863665  0.748935  0.046895
    H   H137  0.188068  0.900498  0.874482  0.023922
    H   H138  0.227534  0.865809  0.825247  0.044484
    H   H139  0.289382  0.788112  0.873619  0.174545
    H   H140  0.300009  0.760122  0.983260  0.083800
    H   H141  0.866935  0.373141  0.977631  0.129365
    H   H142  0.812056  0.315829  0.913832  0.085415
    H   H143  0.877610  0.384152  0.769378  0.004778
    H   H144  0.842188  0.365170  0.550532  0.026361
    H   H145  0.896842  0.320331  0.533382  0.075750
    H   H146  0.886335  0.386335  0.498935  0.025552
    H   H147  0.849502  0.417811  0.624482  0.027705
    H   H148  0.884191  0.457277  0.575247  0.069359
    H   H149  0.961888  0.519125  0.623619  0.204513
    H   H150  0.989878  0.529753  0.733260  0.064029
    H   H151  0.653321  0.606602  0.477631  0.129023
    H   H152  0.708201  0.663915  0.413832  0.085306
    H   H153  0.642647  0.595591  0.269378  0.007930
    H   H154  0.678068  0.614573  0.050532  0.025723
    H   H155  0.623415  0.659413  0.033382  0.075046
    H   H156  0.633922  0.593409  0.998935  0.024557
    H   H157  0.670755  0.561932  0.124482  0.026789
    H   H158  0.636066  0.522466  0.075247  0.067746
    H   H159  0.558368  0.460618  0.123619  0.203193
    H   H160  0.530378  0.449991  0.233260  0.067878
    O   O1    0.062561  0.997973  0.928127  -0.635869
    O   O2    0.062561  0.497973  0.071873  -0.581839
    O   O3    0.062561  0.555921  0.008815  -0.664715
    O   O4    0.062561  0.423822  0.991185  -0.664257
    O   O5    0.062561  0.481771  0.928127  -0.583160
    O   O6    0.957696  0.423822  0.991185  -0.664106
    O   O7    0.957696  0.481771  0.928127  -0.583799
    O   O8    0.957696  0.497973  0.071873  -0.583146
    O   O9    0.957696  0.555921  0.008815  -0.665954
    O   O10   0.062561  0.981771  0.071873  -0.635270
    O   O11   0.865708  0.836807  0.832375  -0.318440
    O   O12   0.820323  0.832604  0.957230  -0.029278
    O   O13   0.062561  0.923822  0.008815  -0.621704
    O   O14   0.761123  0.784340  0.087694  -0.373732
    O   O15   0.654549  0.142937  0.332375  -0.319197
    O   O16   0.699934  0.147139  0.457230  -0.026073
    O   O17   0.759134  0.195404  0.587694  -0.373488
    O   O18   0.562561  0.997973  0.571873  -0.635697
    O   O19   0.413193  0.595451  0.082375  -0.320228
    O   O20   0.562561  0.055921  0.508815  -0.622116
    O   O21   0.417396  0.550066  0.207230  -0.014976
    O   O22   0.465660  0.490866  0.337694  -0.336594
    O   O23   0.562561  0.923822  0.491185  -0.621604
    O   O24   0.107063  0.384292  0.582375  -0.318893
    O   O25   0.102861  0.429677  0.707230  -0.014649
    O   O26   0.054596  0.488877  0.837694  -0.335572
    O   O27   0.562561  0.981771  0.428127  -0.635117
    O   O28   0.654549  0.836807  0.667625  -0.320243
    O   O29   0.457696  0.923822  0.491185  -0.621754
    O   O30   0.699934  0.832604  0.542770  -0.029261
    O   O31   0.759134  0.784340  0.412306  -0.374670
    O   O32   0.457696  0.981771  0.428127  -0.635391
    O   O33   0.865708  0.142937  0.167625  -0.320162
    O   O34   0.820323  0.147139  0.042770  -0.029748
    O   O35   0.457696  0.997973  0.571873  -0.634619
    O   O36   0.761123  0.195404  0.912306  -0.372344
    O   O37   0.457696  0.055921  0.508815  -0.622353
    O   O38   0.107063  0.595451  0.417625  -0.320086
    O   O39   0.102861  0.550066  0.292770  -0.016789
    O   O40   0.054596  0.490866  0.162306  -0.335163
    O   O41   0.957696  0.981771  0.071873  -0.635229
    O   O42   0.413193  0.384292  0.917625  -0.319509
    O   O43   0.268229  0.687439  0.321873  -0.616412
    O   O44   0.417396  0.429677  0.792770  -0.014470
    O   O45   0.465660  0.488877  0.662306  -0.335755
    O   O46   0.326178  0.687439  0.258815  -0.604380
    O   O47   0.154549  0.142937  0.167625  -0.319035
    O   O48   0.199934  0.147139  0.042770  -0.026129
    O   O49   0.259134  0.195404  0.912306  -0.373373
    O   O50   0.194079  0.687439  0.241185  -0.605144
    O   O51   0.252027  0.687439  0.178127  -0.616104
    O   O52   0.365708  0.836807  0.667625  -0.318276
    O   O53   0.320323  0.832604  0.542770  -0.029355
    O   O54   0.261123  0.784340  0.412306  -0.373652
    O   O55   0.194079  0.792304  0.241185  -0.642967
    O   O56   0.252027  0.792304  0.178127  -0.515235
    O   O57   0.607063  0.384292  0.917625  -0.318879
    O   O58   0.602861  0.429677  0.792770  -0.014628
    O   O59   0.554596  0.488877  0.662306  -0.335629
    O   O60   0.957696  0.923822  0.008815  -0.621651
    O   O61   0.268229  0.792304  0.321873  -0.517133
    O   O62   0.913193  0.595451  0.417625  -0.320216
    O   O63   0.326178  0.792304  0.258815  -0.643171
    O   O64   0.917396  0.550066  0.292770  -0.014951
    O   O65   0.965660  0.490866  0.162306  -0.336658
    O   O66   0.365708  0.142937  0.332375  -0.319998
    O   O67   0.320323  0.147139  0.457230  -0.029793
    O   O68   0.261123  0.195404  0.587694  -0.372251
    O   O69   0.252027  0.292304  0.821873  -0.614991
    O   O70   0.194079  0.292304  0.758815  -0.604288
    O   O71   0.154549  0.836807  0.832375  -0.320090
    O   O72   0.199934  0.832604  0.957230  -0.029311
    O   O73   0.259134  0.784340  0.087694  -0.374567
    O   O74   0.326178  0.292304  0.741185  -0.603802
    O   O75   0.913193  0.384292  0.582375  -0.319499
    O   O76   0.268229  0.292304  0.678127  -0.616459
    O   O77   0.917396  0.429677  0.707230  -0.014452
    O   O78   0.965660  0.488877  0.837694  -0.335819
    O   O79   0.326178  0.187439  0.741185  -0.643239
    O   O80   0.607063  0.595451  0.082375  -0.320076
    O   O81   0.602861  0.550066  0.207230  -0.016766
    O   O82   0.268229  0.187439  0.678127  -0.517997
    O   O83   0.554596  0.490866  0.337694  -0.335220
    O   O84   0.252027  0.187439  0.821873  -0.516489
    O   O85   0.194079  0.187439  0.758815  -0.643751
    O   O86   0.752027  0.292304  0.678127  -0.614915
    O   O87   0.957696  0.055921  0.991185  -0.622238
    O   O88   0.694079  0.292304  0.741185  -0.604177
    O   O89   0.826178  0.292304  0.758815  -0.603691
    O   O90   0.768229  0.292304  0.821873  -0.616375
    O   O91   0.826178  0.187439  0.758815  -0.643351
    O   O92   0.768229  0.187439  0.821873  -0.518079
    O   O93   0.752027  0.187439  0.678127  -0.516561
    O   O94   0.694079  0.187439  0.741185  -0.643810
    O   O95   0.957696  0.997973  0.928127  -0.634445
    O   O96   0.768229  0.687439  0.178127  -0.616348
    O   O97   0.826178  0.687439  0.241185  -0.604270
    O   O98   0.694079  0.687439  0.258815  -0.605022
    O   O99   0.752027  0.687439  0.321873  -0.616032
    O   O100  0.694079  0.792304  0.258815  -0.643071
    O   O101  0.752027  0.792304  0.321873  -0.515314
    O   O102  0.768229  0.792304  0.178127  -0.517193
    O   O103  0.826178  0.792304  0.241185  -0.643270
    O   O104  0.457696  0.481771  0.571873  -0.583723
    O   O105  0.457696  0.423822  0.508815  -0.663978
    O   O106  0.062561  0.055921  0.991185  -0.622225
    O   O107  0.457696  0.555921  0.491185  -0.665827
    O   O108  0.457696  0.497973  0.428127  -0.583069
    O   O109  0.562561  0.555921  0.491185  -0.664850
    O   O110  0.562561  0.497973  0.428127  -0.581933
    O   O111  0.562561  0.481771  0.571873  -0.583252
    O   O112  0.562561  0.423822  0.508815  -0.664390
