# generated using pymatgen
data_H9PdC18NO5
_symmetry_space_group_name_H-M   'P 1'
_cell_length_a   21.55250000
_cell_length_b   21.55250000
_cell_length_c   17.59770000
_cell_angle_alpha   90.00000000
_cell_angle_beta   90.00000000
_cell_angle_gamma   120.00000000
_symmetry_Int_Tables_number   1
_chemical_formula_structural   H9PdC18NO5
_chemical_formula_sum   'H54 Pd6 C108 N6 O30'
_cell_volume   7079.16196860
_cell_formula_units_Z   6
loop_
 _symmetry_equiv_pos_site_id
 _symmetry_equiv_pos_as_xyz
  1  'x, y, z'
loop_
 _atom_site_type_symbol
 _atom_site_label
 _atom_site_symmetry_multiplicity
 _atom_site_fract_x
 _atom_site_fract_y
 _atom_site_fract_z
 _atom_site_occupancy
  H  H1  1  0.91396200  0.38983200  0.92074800  1
  H  H2  1  0.06868400  0.57236300  0.09980500  1
  H  H3  1  0.09944600  0.37138500  0.00813100  1
  H  H4  1  0.99589900  0.37461000  0.96433300  1
  H  H5  1  0.26490400  0.51275100  0.12369400  1
  H  H6  1  0.73225200  0.46525100  0.93215200  1
  H  H7  1  0.73395500  0.56367800  0.00015400  1
  H  H8  1  0.81797600  0.62881400  0.10120100  1
  H  H9  1  0.93619400  0.62163800  0.09755500  1
  H  H10  1  0.61016800  0.52413000  0.92074800  1
  H  H11  1  0.42763700  0.49632100  0.09980500  1
  H  H12  1  0.62861500  0.72806100  0.00813100  1
  H  H13  1  0.62539000  0.62128800  0.96433300  1
  H  H14  1  0.48724900  0.75215300  0.12369400  1
  H  H15  1  0.53474900  0.26700100  0.93215200  1
  H  H16  1  0.43632200  0.17027700  0.00015400  1
  H  H17  1  0.37118600  0.18916200  0.10120100  1
  H  H18  1  0.37836200  0.31455600  0.09755500  1
  H  H19  1  0.47587000  0.08603800  0.92074800  1
  H  H20  1  0.50367900  0.93131600  0.09980500  1
  H  H21  1  0.27193900  0.90055400  0.00813100  1
  H  H22  1  0.37871200  0.00410100  0.96433300  1
  H  H23  1  0.24784700  0.73509600  0.12369400  1
  H  H24  1  0.73299900  0.26774800  0.93215200  1
  H  H25  1  0.82972300  0.26604500  0.00015400  1
  H  H26  1  0.81083800  0.18202400  0.10120100  1
  H  H27  1  0.68544400  0.06380600  0.09755500  1
  H  H28  1  0.08603800  0.61016800  0.42074800  1
  H  H29  1  0.93131600  0.42763700  0.59980500  1
  H  H30  1  0.90055400  0.62861500  0.50813100  1
  H  H31  1  0.00410100  0.62539000  0.46433300  1
  H  H32  1  0.73509600  0.48724900  0.62369400  1
  H  H33  1  0.26774800  0.53474900  0.43215200  1
  H  H34  1  0.26604500  0.43632200  0.50015400  1
  H  H35  1  0.18202400  0.37118600  0.60120100  1
  H  H36  1  0.06380600  0.37836200  0.59755500  1
  H  H37  1  0.38983200  0.47587000  0.42074800  1
  H  H38  1  0.57236300  0.50367900  0.59980500  1
  H  H39  1  0.37138500  0.27193900  0.50813100  1
  H  H40  1  0.37461000  0.37871200  0.46433300  1
  H  H41  1  0.51275100  0.24784700  0.62369400  1
  H  H42  1  0.46525100  0.73299900  0.43215200  1
  H  H43  1  0.56367800  0.82972300  0.50015400  1
  H  H44  1  0.62881400  0.81083800  0.60120100  1
  H  H45  1  0.62163800  0.68544400  0.59755500  1
  H  H46  1  0.52413000  0.91396200  0.42074800  1
  H  H47  1  0.49632100  0.06868400  0.59980500  1
  H  H48  1  0.72806100  0.09944600  0.50813100  1
  H  H49  1  0.62128800  0.99589900  0.46433300  1
  H  H50  1  0.75215300  0.26490400  0.62369400  1
  H  H51  1  0.26700100  0.73225200  0.43215200  1
  H  H52  1  0.17027700  0.73395500  0.50015400  1
  H  H53  1  0.18916200  0.81797600  0.60120100  1
  H  H54  1  0.31455600  0.93619400  0.59755500  1
  Pd  Pd1  1  0.43149600  0.71454800  0.24934500  1
  Pd  Pd2  1  0.28304200  0.71454800  0.24934500  1
  Pd  Pd3  1  0.28453000  0.56907100  0.24618700  1
  Pd  Pd4  1  0.56850400  0.28545200  0.74934500  1
  Pd  Pd5  1  0.71695800  0.28545200  0.74934500  1
  Pd  Pd6  1  0.71547000  0.43092900  0.74618700  1
  C  C1  1  0.19093900  0.59546800  0.14511200  1
  C  C2  1  0.40451900  0.59546800  0.14511200  1
  C  C3  1  0.40112700  0.59628300  0.35479700  1
  C  C4  1  0.19514600  0.59628300  0.35479700  1
  C  C5  1  0.40380800  0.80762500  0.35107100  1
  C  C6  1  0.40444100  0.80889200  0.14911100  1
  C  C7  1  0.80906100  0.40453200  0.64511200  1
  C  C8  1  0.59548100  0.40453200  0.64511200  1
  C  C9  1  0.59887300  0.40371700  0.85479700  1
  C  C10  1  0.80485400  0.40371700  0.85479700  1
  C  C11  1  0.59619200  0.19237500  0.85107100  1
  C  C12  1  0.59555900  0.19110800  0.64911100  1
  C  C13  1  0.89904900  0.53938900  0.01802000  1
  C  C14  1  0.84242000  0.49648700  0.96495300  1
  C  C15  1  0.85405800  0.44597800  0.92320900  1
  C  C16  1  0.90978500  0.43187900  0.94775400  1
  C  C17  1  0.96330400  0.47900100  0.00182000  1
  C  C18  1  0.02352800  0.47350000  0.02548700  1
  C  C19  1  0.07308100  0.52538100  0.07738900  1
  C  C20  1  0.13877400  0.52839200  0.09756300  1
  C  C21  1  0.14674900  0.46899700  0.07200100  1
  C  C22  1  0.09623100  0.41684600  0.02469800  1
  C  C23  1  0.03415500  0.41868000  0.00274500  1
  C  C24  1  0.22079700  0.47165700  0.08910300  1
  C  C25  1  0.77931200  0.50183700  0.96190300  1
  C  C26  1  0.78008400  0.55685400  0.00229500  1
  C  C27  1  0.82986800  0.59635000  0.05684200  1
  C  C28  1  0.89102800  0.59132100  0.06126500  1
  C  C29  1  0.46061100  0.35966100  0.01802000  1
  C  C30  1  0.50351300  0.34593300  0.96495300  1
  C  C31  1  0.55402200  0.40808000  0.92320900  1
  C  C32  1  0.56812100  0.47790700  0.94775400  1
  C  C33  1  0.52099900  0.48430300  0.00182000  1
  C  C34  1  0.52650000  0.55002800  0.02548700  1
  C  C35  1  0.47461900  0.54770000  0.07738900  1
  C  C36  1  0.47160800  0.61038200  0.09756300  1
  C  C37  1  0.53100300  0.67775100  0.07200100  1
  C  C38  1  0.58315400  0.67938500  0.02469800  1
  C  C39  1  0.58132000  0.61547500  0.00274500  1
  C  C40  1  0.52834300  0.74913900  0.08910300  1
  C  C41  1  0.49816300  0.27747400  0.96190300  1
  C  C42  1  0.44314600  0.22323000  0.00229500  1
  C  C43  1  0.40365000  0.23351800  0.05684200  1
  C  C44  1  0.40867900  0.29970700  0.06126500  1
  C  C45  1  0.64033900  0.10095100  0.01802000  1
  C  C46  1  0.65406700  0.15758000  0.96495300  1
  C  C47  1  0.59192000  0.14594200  0.92320900  1
  C  C48  1  0.52209300  0.09021500  0.94775400  1
  C  C49  1  0.51569700  0.03669600  0.00182000  1
  C  C50  1  0.44997200  0.97647200  0.02548700  1
  C  C51  1  0.45230000  0.92691900  0.07738900  1
  C  C52  1  0.38961800  0.86122600  0.09756300  1
  C  C53  1  0.32224900  0.85325100  0.07200100  1
  C  C54  1  0.32061500  0.90376900  0.02469800  1
  C  C55  1  0.38452500  0.96584500  0.00274500  1
  C  C56  1  0.25086100  0.77920300  0.08910300  1
  C  C57  1  0.72252600  0.22068800  0.96190300  1
  C  C58  1  0.77677000  0.21991600  0.00229500  1
  C  C59  1  0.76648200  0.17013200  0.05684200  1
  C  C60  1  0.70029300  0.10897200  0.06126500  1
  C  C61  1  0.10095100  0.46061100  0.51802000  1
  C  C62  1  0.15758000  0.50351300  0.46495300  1
  C  C63  1  0.14594200  0.55402200  0.42320900  1
  C  C64  1  0.09021500  0.56812100  0.44775400  1
  C  C65  1  0.03669600  0.52099900  0.50182000  1
  C  C66  1  0.97647200  0.52650000  0.52548700  1
  C  C67  1  0.92691900  0.47461900  0.57738900  1
  C  C68  1  0.86122600  0.47160800  0.59756300  1
  C  C69  1  0.85325100  0.53100300  0.57200100  1
  C  C70  1  0.90376900  0.58315400  0.52469800  1
  C  C71  1  0.96584500  0.58132000  0.50274500  1
  C  C72  1  0.77920300  0.52834300  0.58910300  1
  C  C73  1  0.22068800  0.49816300  0.46190300  1
  C  C74  1  0.21991600  0.44314600  0.50229500  1
  C  C75  1  0.17013200  0.40365000  0.55684200  1
  C  C76  1  0.10897200  0.40867900  0.56126500  1
  C  C77  1  0.53938900  0.64033900  0.51802000  1
  C  C78  1  0.49648700  0.65406700  0.46495300  1
  C  C79  1  0.44597800  0.59192000  0.42320900  1
  C  C80  1  0.43187900  0.52209300  0.44775400  1
  C  C81  1  0.47900100  0.51569700  0.50182000  1
  C  C82  1  0.47350000  0.44997200  0.52548700  1
  C  C83  1  0.52538100  0.45230000  0.57738900  1
  C  C84  1  0.52839200  0.38961800  0.59756300  1
  C  C85  1  0.46899700  0.32224900  0.57200100  1
  C  C86  1  0.41684600  0.32061500  0.52469800  1
  C  C87  1  0.41868000  0.38452500  0.50274500  1
  C  C88  1  0.47165700  0.25086100  0.58910300  1
  C  C89  1  0.50183700  0.72252600  0.46190300  1
  C  C90  1  0.55685400  0.77677000  0.50229500  1
  C  C91  1  0.59635000  0.76648200  0.55684200  1
  C  C92  1  0.59132100  0.70029300  0.56126500  1
  C  C93  1  0.35966100  0.89904900  0.51802000  1
  C  C94  1  0.34593300  0.84242000  0.46495300  1
  C  C95  1  0.40808000  0.85405800  0.42320900  1
  C  C96  1  0.47790700  0.90978500  0.44775400  1
  C  C97  1  0.48430300  0.96330400  0.50182000  1
  C  C98  1  0.55002800  0.02352800  0.52548700  1
  C  C99  1  0.54770000  0.07308100  0.57738900  1
  C  C100  1  0.61038200  0.13877400  0.59756300  1
  C  C101  1  0.67775100  0.14674900  0.57200100  1
  C  C102  1  0.67938500  0.09623100  0.52469800  1
  C  C103  1  0.61547500  0.03415500  0.50274500  1
  C  C104  1  0.74913900  0.22079700  0.58910300  1
  C  C105  1  0.27747400  0.77931200  0.46190300  1
  C  C106  1  0.22323000  0.78008400  0.50229500  1
  C  C107  1  0.23351800  0.82986800  0.55684200  1
  C  C108  1  0.29970700  0.89102800  0.56126500  1
  N  N1  1  0.95456500  0.53056500  0.03538300  1
  N  N2  1  0.46943500  0.42400000  0.03538300  1
  N  N3  1  0.57600000  0.04543500  0.03538300  1
  N  N4  1  0.04543500  0.46943500  0.53538300  1
  N  N5  1  0.53056500  0.57600000  0.53538300  1
  N  N6  1  0.42400000  0.95456500  0.53538300  1
  O  O1  1  0.21418900  0.55554200  0.16463900  1
  O  O2  1  0.21181600  0.65765100  0.16865000  1
  O  O3  1  0.34134300  0.55554200  0.16463900  1
  O  O4  1  0.44582500  0.65765100  0.16865000  1
  O  O5  1  0.44427200  0.65777600  0.33131200  1
  O  O6  1  0.34014400  0.55663500  0.32894700  1
  O  O7  1  0.21349400  0.65777600  0.33131200  1
  O  O8  1  0.21648100  0.55663500  0.32894700  1
  O  O9  1  0.44397700  0.78490900  0.32970100  1
  O  O10  1  0.34092200  0.78490900  0.32970100  1
  O  O11  1  0.44432800  0.78570800  0.16955200  1
  O  O12  1  0.34137000  0.78570800  0.16955200  1
  O  O13  1  0.78581100  0.44445800  0.66463900  1
  O  O14  1  0.78818400  0.34234900  0.66865000  1
  O  O15  1  0.65865700  0.44445800  0.66463900  1
  O  O16  1  0.55417500  0.34234900  0.66865000  1
  O  O17  1  0.55572800  0.34222400  0.83131200  1
  O  O18  1  0.65985600  0.44336500  0.82894700  1
  O  O19  1  0.78650600  0.34222400  0.83131200  1
  O  O20  1  0.78351900  0.44336500  0.82894700  1
  O  O21  1  0.55602300  0.21509100  0.82970100  1
  O  O22  1  0.65907800  0.21509100  0.82970100  1
  O  O23  1  0.55567200  0.21429200  0.66955200  1
  O  O24  1  0.65863000  0.21429200  0.66955200  1
  O  O25  1  0.22632100  0.42384200  0.06060800  1
  O  O26  1  0.57615800  0.80247900  0.06060800  1
  O  O27  1  0.19752100  0.77367900  0.06060800  1
  O  O28  1  0.77367900  0.57615800  0.56060800  1
  O  O29  1  0.42384200  0.19752100  0.56060800  1
  O  O30  1  0.80247900  0.22632100  0.56060800  1
