# generated using pymatgen
data_CuH12C13IClO5
_symmetry_space_group_name_H-M   'P 1'
_cell_length_a   25.90070000
_cell_length_b   25.90070000
_cell_length_c   23.81150000
_cell_angle_alpha   90.00000000
_cell_angle_beta   90.00000000
_cell_angle_gamma   90.00000000
_symmetry_Int_Tables_number   1
_chemical_formula_structural   CuH12C13IClO5
_chemical_formula_sum   'Cu16 H192 C208 I16 Cl16 O80'
_cell_volume   15973.85573166
_cell_formula_units_Z   16
loop_
 _symmetry_equiv_pos_site_id
 _symmetry_equiv_pos_as_xyz
  1  'x, y, z'
loop_
 _atom_site_type_symbol
 _atom_site_label
 _atom_site_symmetry_multiplicity
 _atom_site_fract_x
 _atom_site_fract_y
 _atom_site_fract_z
 _atom_site_occupancy
  Cu  Cu1  1  0.01008300  0.95367200  0.96057400  1
  Cu  Cu2  1  0.01008300  0.02616200  0.03942600  1
  Cu  Cu3  1  0.51008300  0.02616200  0.46057400  1
  Cu  Cu4  1  0.51008300  0.95367200  0.53942600  1
  Cu  Cu5  1  0.29632800  0.73991700  0.21057400  1
  Cu  Cu6  1  0.22383800  0.73991700  0.28942600  1
  Cu  Cu7  1  0.22383800  0.23991700  0.71057400  1
  Cu  Cu8  1  0.29632800  0.23991700  0.78942600  1
  Cu  Cu9  1  0.72383800  0.23991700  0.78942600  1
  Cu  Cu10  1  0.79632800  0.23991700  0.71057400  1
  Cu  Cu11  1  0.79632800  0.73991700  0.28942600  1
  Cu  Cu12  1  0.72383800  0.73991700  0.21057400  1
  Cu  Cu13  1  0.51008300  0.45367200  0.46057400  1
  Cu  Cu14  1  0.51008300  0.52616200  0.53942600  1
  Cu  Cu15  1  0.01008300  0.52616200  0.96057400  1
  Cu  Cu16  1  0.01008300  0.45367200  0.03942600  1
  H  H1  1  0.79113600  0.84409100  0.09517700  1
  H  H2  1  0.96995000  0.88750600  0.13901900  1
  H  H3  1  0.92033100  0.87540600  0.94787800  1
  H  H4  1  0.92143700  0.82417000  0.99817300  1
  H  H5  1  0.77696300  0.80252800  0.99775900  1
  H  H6  1  0.84100000  0.77976800  0.02025100  1
  H  H7  1  0.81762400  0.76659300  0.95457300  1
  H  H8  1  0.84509900  0.89558100  0.88954900  1
  H  H9  1  0.82931500  0.82931500  0.87457900  1
  H  H10  1  0.78339400  0.87515600  0.90346000  1
  H  H11  1  0.85059700  0.93158100  0.98426500  1
  H  H12  1  0.77921900  0.93757400  0.03373600  1
  H  H13  1  0.72903000  0.13574300  0.59517700  1
  H  H14  1  0.55021600  0.09232800  0.63901900  1
  H  H15  1  0.59983500  0.10442700  0.44787800  1
  H  H16  1  0.59872900  0.15566400  0.49817300  1
  H  H17  1  0.74320300  0.17730600  0.49775900  1
  H  H18  1  0.67916600  0.20006600  0.52025100  1
  H  H19  1  0.70254200  0.21324100  0.45457300  1
  H  H20  1  0.67506700  0.08425300  0.38954900  1
  H  H21  1  0.69085100  0.15051900  0.37457900  1
  H  H22  1  0.73677200  0.10467800  0.40346000  1
  H  H23  1  0.66956900  0.04825300  0.48426500  1
  H  H24  1  0.74094700  0.04226000  0.53373600  1
  H  H25  1  0.40590900  0.52097000  0.34517700  1
  H  H26  1  0.36249400  0.69978400  0.38901900  1
  H  H27  1  0.37459400  0.65016500  0.19787800  1
  H  H28  1  0.42583000  0.65127100  0.24817300  1
  H  H29  1  0.44747200  0.50679700  0.24775900  1
  H  H30  1  0.47023200  0.57083400  0.27025100  1
  H  H31  1  0.48340700  0.54745800  0.20457300  1
  H  H32  1  0.35441900  0.57493300  0.13954900  1
  H  H33  1  0.42068500  0.55914900  0.12457900  1
  H  H34  1  0.37484400  0.51322800  0.15346000  1
  H  H35  1  0.31841900  0.58043100  0.23426500  1
  H  H36  1  0.31242600  0.50905300  0.28373600  1
  H  H37  1  0.11425700  0.45886400  0.84517700  1
  H  H38  1  0.15767200  0.28005000  0.88901900  1
  H  H39  1  0.14557300  0.32966900  0.69787800  1
  H  H40  1  0.09433600  0.32856300  0.74817300  1
  H  H41  1  0.07269400  0.47303700  0.74775900  1
  H  H42  1  0.04993400  0.40900000  0.77025100  1
  H  H43  1  0.03675900  0.43237600  0.70457300  1
  H  H44  1  0.16574700  0.40490100  0.63954900  1
  H  H45  1  0.09948100  0.42068500  0.62457900  1
  H  H46  1  0.14532200  0.46660600  0.65346000  1
  H  H47  1  0.20174700  0.39940300  0.73426500  1
  H  H48  1  0.20774000  0.47078100  0.78373600  1
  H  H49  1  0.72903000  0.84409100  0.40482300  1
  H  H50  1  0.55021600  0.88750600  0.36098100  1
  H  H51  1  0.59983500  0.87540600  0.55212200  1
  H  H52  1  0.59872900  0.82417000  0.50182700  1
  H  H53  1  0.74320300  0.80252800  0.50224100  1
  H  H54  1  0.67916600  0.77976800  0.47974900  1
  H  H55  1  0.70254200  0.76659300  0.54542700  1
  H  H56  1  0.67506700  0.89558100  0.61045100  1
  H  H57  1  0.69085100  0.82931500  0.62542100  1
  H  H58  1  0.73677200  0.87515600  0.59654000  1
  H  H59  1  0.66956900  0.93158100  0.51573500  1
  H  H60  1  0.74094700  0.93757400  0.46626400  1
  H  H61  1  0.79113600  0.13574300  0.90482300  1
  H  H62  1  0.96995000  0.09232800  0.86098100  1
  H  H63  1  0.92033100  0.10442700  0.05212200  1
  H  H64  1  0.92143700  0.15566400  0.00182700  1
  H  H65  1  0.77696300  0.17730600  0.00224100  1
  H  H66  1  0.84100000  0.20006600  0.97974900  1
  H  H67  1  0.81762400  0.21324100  0.04542700  1
  H  H68  1  0.84509900  0.08425300  0.11045100  1
  H  H69  1  0.82931500  0.15051900  0.12542100  1
  H  H70  1  0.78339400  0.10467800  0.09654000  1
  H  H71  1  0.85059700  0.04825300  0.01573500  1
  H  H72  1  0.77921900  0.04226000  0.96626400  1
  H  H73  1  0.11425700  0.52097000  0.15482300  1
  H  H74  1  0.15767200  0.69978400  0.11098100  1
  H  H75  1  0.14557300  0.65016500  0.30212200  1
  H  H76  1  0.09433600  0.65127100  0.25182700  1
  H  H77  1  0.07269400  0.50679700  0.25224100  1
  H  H78  1  0.04993400  0.57083400  0.22974900  1
  H  H79  1  0.03675900  0.54745800  0.29542700  1
  H  H80  1  0.16574700  0.57493300  0.36045100  1
  H  H81  1  0.09948100  0.55914900  0.37542100  1
  H  H82  1  0.14532200  0.51322800  0.34654000  1
  H  H83  1  0.20174700  0.58043100  0.26573500  1
  H  H84  1  0.20774000  0.50905300  0.21626400  1
  H  H85  1  0.40590900  0.45886400  0.65482300  1
  H  H86  1  0.36249400  0.28005000  0.61098100  1
  H  H87  1  0.37459400  0.32966900  0.80212200  1
  H  H88  1  0.42583000  0.32856300  0.75182700  1
  H  H89  1  0.44747200  0.47303700  0.75224100  1
  H  H90  1  0.47023200  0.40900000  0.72974900  1
  H  H91  1  0.48340700  0.43237600  0.79542700  1
  H  H92  1  0.35441900  0.40490100  0.86045100  1
  H  H93  1  0.42068500  0.42068500  0.87542100  1
  H  H94  1  0.37484400  0.46660600  0.84654000  1
  H  H95  1  0.31841900  0.39940300  0.76573500  1
  H  H96  1  0.31242600  0.47078100  0.71626400  1
  H  H97  1  0.22903000  0.13574300  0.90482300  1
  H  H98  1  0.05021600  0.09232800  0.86098100  1
  H  H99  1  0.09983500  0.10442700  0.05212200  1
  H  H100  1  0.09872900  0.15566400  0.00182700  1
  H  H101  1  0.24320300  0.17730600  0.00224100  1
  H  H102  1  0.17916600  0.20006600  0.97974900  1
  H  H103  1  0.20254200  0.21324100  0.04542700  1
  H  H104  1  0.17506700  0.08425300  0.11045100  1
  H  H105  1  0.19085100  0.15051900  0.12542100  1
  H  H106  1  0.23677200  0.10467800  0.09654000  1
  H  H107  1  0.16956900  0.04825300  0.01573500  1
  H  H108  1  0.24094700  0.04226000  0.96626400  1
  H  H109  1  0.29113600  0.84409100  0.40482300  1
  H  H110  1  0.46995000  0.88750600  0.36098100  1
  H  H111  1  0.42033100  0.87540600  0.55212200  1
  H  H112  1  0.42143700  0.82417000  0.50182700  1
  H  H113  1  0.27696300  0.80252800  0.50224100  1
  H  H114  1  0.34100000  0.77976800  0.47974900  1
  H  H115  1  0.31762400  0.76659300  0.54542700  1
  H  H116  1  0.34509900  0.89558100  0.61045100  1
  H  H117  1  0.32931500  0.82931500  0.62542100  1
  H  H118  1  0.28339400  0.87515600  0.59654000  1
  H  H119  1  0.35059700  0.93158100  0.51573500  1
  H  H120  1  0.27921900  0.93757400  0.46626400  1
  H  H121  1  0.61425700  0.45886400  0.65482300  1
  H  H122  1  0.65767200  0.28005000  0.61098100  1
  H  H123  1  0.64557300  0.32966900  0.80212200  1
  H  H124  1  0.59433600  0.32856300  0.75182700  1
  H  H125  1  0.57269400  0.47303700  0.75224100  1
  H  H126  1  0.54993400  0.40900000  0.72974900  1
  H  H127  1  0.53675900  0.43237600  0.79542700  1
  H  H128  1  0.66574700  0.40490100  0.86045100  1
  H  H129  1  0.59948100  0.42068500  0.87542100  1
  H  H130  1  0.64532200  0.46660600  0.84654000  1
  H  H131  1  0.70174700  0.39940300  0.76573500  1
  H  H132  1  0.70774000  0.47078100  0.71626400  1
  H  H133  1  0.90590900  0.52097000  0.15482300  1
  H  H134  1  0.86249400  0.69978400  0.11098100  1
  H  H135  1  0.87459400  0.65016500  0.30212200  1
  H  H136  1  0.92583000  0.65127100  0.25182700  1
  H  H137  1  0.94747200  0.50679700  0.25224100  1
  H  H138  1  0.97023200  0.57083400  0.22974900  1
  H  H139  1  0.98340700  0.54745800  0.29542700  1
  H  H140  1  0.85441900  0.57493300  0.36045100  1
  H  H141  1  0.92068500  0.55914900  0.37542100  1
  H  H142  1  0.87484400  0.51322800  0.34654000  1
  H  H143  1  0.81841900  0.58043100  0.26573500  1
  H  H144  1  0.81242600  0.50905300  0.21626400  1
  H  H145  1  0.29113600  0.13574300  0.59517700  1
  H  H146  1  0.46995000  0.09232800  0.63901900  1
  H  H147  1  0.42033100  0.10442700  0.44787800  1
  H  H148  1  0.42143700  0.15566400  0.49817300  1
  H  H149  1  0.27696300  0.17730600  0.49775900  1
  H  H150  1  0.34100000  0.20006600  0.52025100  1
  H  H151  1  0.31762400  0.21324100  0.45457300  1
  H  H152  1  0.34509900  0.08425300  0.38954900  1
  H  H153  1  0.32931500  0.15051900  0.37457900  1
  H  H154  1  0.28339400  0.10467800  0.40346000  1
  H  H155  1  0.35059700  0.04825300  0.48426500  1
  H  H156  1  0.27921900  0.04226000  0.53373600  1
  H  H157  1  0.22903000  0.84409100  0.09517700  1
  H  H158  1  0.05021600  0.88750600  0.13901900  1
  H  H159  1  0.09983500  0.87540600  0.94787800  1
  H  H160  1  0.09872900  0.82417000  0.99817300  1
  H  H161  1  0.24320300  0.80252800  0.99775900  1
  H  H162  1  0.17916600  0.77976800  0.02025100  1
  H  H163  1  0.20254200  0.76659300  0.95457300  1
  H  H164  1  0.17506700  0.89558100  0.88954900  1
  H  H165  1  0.19085100  0.82931500  0.87457900  1
  H  H166  1  0.23677200  0.87515600  0.90346000  1
  H  H167  1  0.16956900  0.93158100  0.98426500  1
  H  H168  1  0.24094700  0.93757400  0.03373600  1
  H  H169  1  0.90590900  0.45886400  0.84517700  1
  H  H170  1  0.86249400  0.28005000  0.88901900  1
  H  H171  1  0.87459400  0.32966900  0.69787800  1
  H  H172  1  0.92583000  0.32856300  0.74817300  1
  H  H173  1  0.94747200  0.47303700  0.74775900  1
  H  H174  1  0.97023200  0.40900000  0.77025100  1
  H  H175  1  0.98340700  0.43237600  0.70457300  1
  H  H176  1  0.85441900  0.40490100  0.63954900  1
  H  H177  1  0.92068500  0.42068500  0.62457900  1
  H  H178  1  0.87484400  0.46660600  0.65346000  1
  H  H179  1  0.81841900  0.39940300  0.73426500  1
  H  H180  1  0.81242600  0.47078100  0.78373600  1
  H  H181  1  0.61425700  0.52097000  0.34517700  1
  H  H182  1  0.65767200  0.69978400  0.38901900  1
  H  H183  1  0.64557300  0.65016500  0.19787800  1
  H  H184  1  0.59433600  0.65127100  0.24817300  1
  H  H185  1  0.57269400  0.50679700  0.24775900  1
  H  H186  1  0.54993400  0.57083400  0.27025100  1
  H  H187  1  0.53675900  0.54745800  0.20457300  1
  H  H188  1  0.66574700  0.57493300  0.13954900  1
  H  H189  1  0.59948100  0.55914900  0.12457900  1
  H  H190  1  0.64532200  0.51322800  0.15346000  1
  H  H191  1  0.70174700  0.58043100  0.23426500  1
  H  H192  1  0.70774000  0.50905300  0.28373600  1
  C  C1  1  0.07893400  0.53860200  0.05295700  1
  C  C2  1  0.07893400  0.44123200  0.94704300  1
  C  C3  1  0.94123200  0.44123200  0.94704300  1
  C  C4  1  0.94123200  0.53860200  0.05295700  1
  C  C5  1  0.07893400  0.94123200  0.05295700  1
  C  C6  1  0.90310600  0.84634000  0.17044600  1
  C  C7  1  0.84952300  0.83867900  0.15624000  1
  C  C8  1  0.83118400  0.85321200  0.10281000  1
  C  C9  1  0.85963700  0.88433400  0.06499400  1
  C  C10  1  0.90784900  0.90123500  0.08390900  1
  C  C11  1  0.92854100  0.87859700  0.13341200  1
  C  C12  1  0.84498000  0.85036200  0.96660400  1
  C  C13  1  0.83650700  0.89580100  0.00722500  1
  C  C14  1  0.90121500  0.83887400  0.96020300  1
  C  C15  1  0.81791500  0.79645400  0.98571100  1
  C  C16  1  0.82456100  0.86357100  0.90495800  1
  C  C17  1  0.61706000  0.13349400  0.67044600  1
  C  C18  1  0.67064300  0.14115500  0.65624000  1
  C  C19  1  0.68898200  0.12662200  0.60281000  1
  C  C20  1  0.66052900  0.09550000  0.56499400  1
  C  C21  1  0.61231700  0.07859900  0.58390900  1
  C  C22  1  0.59162500  0.10123700  0.63341200  1
  C  C23  1  0.67518600  0.12947200  0.46660400  1
  C  C24  1  0.68365900  0.08403300  0.50722500  1
  C  C25  1  0.61895100  0.14096000  0.46020300  1
  C  C26  1  0.70225100  0.18338000  0.48571100  1
  C  C27  1  0.69560500  0.11626300  0.40495800  1
  C  C28  1  0.57893400  0.03860200  0.55295700  1
  C  C29  1  0.40366000  0.63294000  0.42044600  1
  C  C30  1  0.41132100  0.57935700  0.40624000  1
  C  C31  1  0.39678800  0.56101800  0.35281000  1
  C  C32  1  0.36566600  0.58947100  0.31499400  1
  C  C33  1  0.34876500  0.63768300  0.33390900  1
  C  C34  1  0.37140300  0.65837500  0.38341200  1
  C  C35  1  0.39963800  0.57481400  0.21660400  1
  C  C36  1  0.35419900  0.56634100  0.25722500  1
  C  C37  1  0.41112600  0.63104900  0.21020300  1
  C  C38  1  0.45354600  0.54774900  0.23571100  1
  C  C39  1  0.38642900  0.55439500  0.15495800  1
  C  C40  1  0.57893400  0.94123200  0.44704300  1
  C  C41  1  0.11650600  0.34689400  0.92044600  1
  C  C42  1  0.10884500  0.40047700  0.90624000  1
  C  C43  1  0.12337800  0.41881600  0.85281000  1
  C  C44  1  0.15450000  0.39036300  0.81499400  1
  C  C45  1  0.17140100  0.34215100  0.83390900  1
  C  C46  1  0.14876300  0.32145900  0.88341200  1
  C  C47  1  0.12052800  0.40502000  0.71660400  1
  C  C48  1  0.94123200  0.94123200  0.05295700  1
  C  C49  1  0.16596700  0.41349300  0.75722500  1
  C  C50  1  0.10904000  0.34878500  0.71020300  1
  C  C51  1  0.06662000  0.43208500  0.73571100  1
  C  C52  1  0.13373700  0.42543900  0.65495800  1
  C  C53  1  0.61706000  0.84634000  0.32955400  1
  C  C54  1  0.67064300  0.83867900  0.34376000  1
  C  C55  1  0.68898200  0.85321200  0.39719000  1
  C  C56  1  0.44123200  0.94123200  0.44704300  1
  C  C57  1  0.66052900  0.88433400  0.43500600  1
  C  C58  1  0.61231700  0.90123500  0.41609100  1
  C  C59  1  0.59162500  0.87859700  0.36658800  1
  C  C60  1  0.67518600  0.85036200  0.53339600  1
  C  C61  1  0.68365900  0.89580100  0.49277500  1
  C  C62  1  0.61895100  0.83887400  0.53979700  1
  C  C63  1  0.70225100  0.79645400  0.51428900  1
  C  C64  1  0.69560500  0.86357100  0.59504200  1
  C  C65  1  0.90310600  0.13349400  0.82955400  1
  C  C66  1  0.84952300  0.14115500  0.84376000  1
  C  C67  1  0.83118400  0.12662200  0.89719000  1
  C  C68  1  0.85963700  0.09550000  0.93500600  1
  C  C69  1  0.90784900  0.07859900  0.91609100  1
  C  C70  1  0.92854100  0.10123700  0.86658800  1
  C  C71  1  0.44123200  0.03860200  0.55295700  1
  C  C72  1  0.84498000  0.12947200  0.03339600  1
  C  C73  1  0.83650700  0.08403300  0.99277500  1
  C  C74  1  0.90121500  0.14096000  0.03979700  1
  C  C75  1  0.81791500  0.18338000  0.01428900  1
  C  C76  1  0.82456100  0.11626300  0.09504200  1
  C  C77  1  0.11650600  0.63294000  0.07955400  1
  C  C78  1  0.10884500  0.57935700  0.09376000  1
  C  C79  1  0.12337800  0.56101800  0.14719000  1
  C  C80  1  0.15450000  0.58947100  0.18500600  1
  C  C81  1  0.17140100  0.63768300  0.16609100  1
  C  C82  1  0.14876300  0.65837500  0.11658800  1
  C  C83  1  0.12052800  0.57481400  0.28339600  1
  C  C84  1  0.16596700  0.56634100  0.24277500  1
  C  C85  1  0.10904000  0.63104900  0.28979700  1
  C  C86  1  0.06662000  0.54774900  0.26428900  1
  C  C87  1  0.13373700  0.55439500  0.34504200  1
  C  C88  1  0.40366000  0.34689400  0.57955400  1
  C  C89  1  0.41132100  0.40047700  0.59376000  1
  C  C90  1  0.39678800  0.41881600  0.64719000  1
  C  C91  1  0.36566600  0.39036300  0.68500600  1
  C  C92  1  0.34876500  0.34215100  0.66609100  1
  C  C93  1  0.30876800  0.67106600  0.30295700  1
  C  C94  1  0.37140300  0.32145900  0.61658800  1
  C  C95  1  0.39963800  0.40502000  0.78339600  1
  C  C96  1  0.35419900  0.41349300  0.74277500  1
  C  C97  1  0.41112600  0.34878500  0.78979700  1
  C  C98  1  0.45354600  0.43208500  0.76428900  1
  C  C99  1  0.38642900  0.42543900  0.84504200  1
  C  C100  1  0.11706000  0.13349400  0.82955400  1
  C  C101  1  0.17064300  0.14115500  0.84376000  1
  C  C102  1  0.18898200  0.12662200  0.89719000  1
  C  C103  1  0.16052900  0.09550000  0.93500600  1
  C  C104  1  0.11231700  0.07859900  0.91609100  1
  C  C105  1  0.09162500  0.10123700  0.86658800  1
  C  C106  1  0.17518600  0.12947200  0.03339600  1
  C  C107  1  0.21139800  0.67106600  0.19704300  1
  C  C108  1  0.18365900  0.08403300  0.99277500  1
  C  C109  1  0.11895100  0.14096000  0.03979700  1
  C  C110  1  0.20225100  0.18338000  0.01428900  1
  C  C111  1  0.19560500  0.11626300  0.09504200  1
  C  C112  1  0.40310600  0.84634000  0.32955400  1
  C  C113  1  0.34952300  0.83867900  0.34376000  1
  C  C114  1  0.33118400  0.85321200  0.39719000  1
  C  C115  1  0.35963700  0.88433400  0.43500600  1
  C  C116  1  0.40784900  0.90123500  0.41609100  1
  C  C117  1  0.42854100  0.87859700  0.36658800  1
  C  C118  1  0.34498000  0.85036200  0.53339600  1
  C  C119  1  0.33650700  0.89580100  0.49277500  1
  C  C120  1  0.40121500  0.83887400  0.53979700  1
  C  C121  1  0.21139800  0.80876800  0.19704300  1
  C  C122  1  0.31791500  0.79645400  0.51428900  1
  C  C123  1  0.32456100  0.86357100  0.59504200  1
  C  C124  1  0.61650600  0.34689400  0.57955400  1
  C  C125  1  0.60884500  0.40047700  0.59376000  1
  C  C126  1  0.62337800  0.41881600  0.64719000  1
  C  C127  1  0.65450000  0.39036300  0.68500600  1
  C  C128  1  0.67140100  0.34215100  0.66609100  1
  C  C129  1  0.64876300  0.32145900  0.61658800  1
  C  C130  1  0.62052800  0.40502000  0.78339600  1
  C  C131  1  0.66596700  0.41349300  0.74277500  1
  C  C132  1  0.60904000  0.34878500  0.78979700  1
  C  C133  1  0.56662000  0.43208500  0.76428900  1
  C  C134  1  0.30876800  0.80876800  0.30295700  1
  C  C135  1  0.63373700  0.42543900  0.84504200  1
  C  C136  1  0.90366000  0.63294000  0.07955400  1
  C  C137  1  0.91132100  0.57935700  0.09376000  1
  C  C138  1  0.89678800  0.56101800  0.14719000  1
  C  C139  1  0.86566600  0.58947100  0.18500600  1
  C  C140  1  0.84876500  0.63768300  0.16609100  1
  C  C141  1  0.87140300  0.65837500  0.11658800  1
  C  C142  1  0.89963800  0.57481400  0.28339600  1
  C  C143  1  0.85419900  0.56634100  0.24277500  1
  C  C144  1  0.91112600  0.63104900  0.28979700  1
  C  C145  1  0.95354600  0.54774900  0.26428900  1
  C  C146  1  0.88642900  0.55439500  0.34504200  1
  C  C147  1  0.40310600  0.13349400  0.67044600  1
  C  C148  1  0.34952300  0.14115500  0.65624000  1
  C  C149  1  0.33118400  0.12662200  0.60281000  1
  C  C150  1  0.35963700  0.09550000  0.56499400  1
  C  C151  1  0.40784900  0.07859900  0.58390900  1
  C  C152  1  0.42854100  0.10123700  0.63341200  1
  C  C153  1  0.34498000  0.12947200  0.46660400  1
  C  C154  1  0.33650700  0.08403300  0.50722500  1
  C  C155  1  0.40121500  0.14096000  0.46020300  1
  C  C156  1  0.31791500  0.18338000  0.48571100  1
  C  C157  1  0.21139800  0.30876800  0.80295700  1
  C  C158  1  0.32456100  0.11626300  0.40495800  1
  C  C159  1  0.11706000  0.84634000  0.17044600  1
  C  C160  1  0.17064300  0.83867900  0.15624000  1
  C  C161  1  0.18898200  0.85321200  0.10281000  1
  C  C162  1  0.16052900  0.88433400  0.06499400  1
  C  C163  1  0.11231700  0.90123500  0.08390900  1
  C  C164  1  0.09162500  0.87859700  0.13341200  1
  C  C165  1  0.17518600  0.85036200  0.96660400  1
  C  C166  1  0.18365900  0.89580100  0.00722500  1
  C  C167  1  0.11895100  0.83887400  0.96020300  1
  C  C168  1  0.20225100  0.79645400  0.98571100  1
  C  C169  1  0.19560500  0.86357100  0.90495800  1
  C  C170  1  0.30876800  0.30876800  0.69704300  1
  C  C171  1  0.90366000  0.34689400  0.92044600  1
  C  C172  1  0.91132100  0.40047700  0.90624000  1
  C  C173  1  0.89678800  0.41881600  0.85281000  1
  C  C174  1  0.86566600  0.39036300  0.81499400  1
  C  C175  1  0.84876500  0.34215100  0.83390900  1
  C  C176  1  0.87140300  0.32145900  0.88341200  1
  C  C177  1  0.89963800  0.40502000  0.71660400  1
  C  C178  1  0.85419900  0.41349300  0.75722500  1
  C  C179  1  0.91112600  0.34878500  0.71020300  1
  C  C180  1  0.95354600  0.43208500  0.73571100  1
  C  C181  1  0.88642900  0.42543900  0.65495800  1
  C  C182  1  0.94123200  0.03860200  0.94704300  1
  C  C183  1  0.30876800  0.17106600  0.69704300  1
  C  C184  1  0.61650600  0.63294000  0.42044600  1
  C  C185  1  0.60884500  0.57935700  0.40624000  1
  C  C186  1  0.62337800  0.56101800  0.35281000  1
  C  C187  1  0.65450000  0.58947100  0.31499400  1
  C  C188  1  0.67140100  0.63768300  0.33390900  1
  C  C189  1  0.64876300  0.65837500  0.38341200  1
  C  C190  1  0.62052800  0.57481400  0.21660400  1
  C  C191  1  0.66596700  0.56634100  0.25722500  1
  C  C192  1  0.60904000  0.63104900  0.21020300  1
  C  C193  1  0.56662000  0.54774900  0.23571100  1
  C  C194  1  0.63373700  0.55439500  0.15495800  1
  C  C195  1  0.21139800  0.17106600  0.80295700  1
  C  C196  1  0.71139800  0.30876800  0.69704300  1
  C  C197  1  0.80876800  0.30876800  0.80295700  1
  C  C198  1  0.80876800  0.17106600  0.80295700  1
  C  C199  1  0.71139800  0.17106600  0.69704300  1
  C  C200  1  0.80876800  0.67106600  0.19704300  1
  C  C201  1  0.71139800  0.67106600  0.30295700  1
  C  C202  1  0.71139800  0.80876800  0.30295700  1
  C  C203  1  0.07893400  0.03860200  0.94704300  1
  C  C204  1  0.80876800  0.80876800  0.19704300  1
  C  C205  1  0.44123200  0.44123200  0.55295700  1
  C  C206  1  0.44123200  0.53860200  0.44704300  1
  C  C207  1  0.57893400  0.53860200  0.44704300  1
  C  C208  1  0.57893400  0.44123200  0.55295700  1
  I  I1  1  0.94248900  0.82224100  0.24081600  1
  I  I2  1  0.57767700  0.15759300  0.74081600  1
  I  I3  1  0.42775900  0.67232300  0.49081600  1
  I  I4  1  0.09240700  0.30751100  0.99081600  1
  I  I5  1  0.57767700  0.82224100  0.25918400  1
  I  I6  1  0.94248900  0.15759300  0.75918400  1
  I  I7  1  0.09240700  0.67232300  0.00918400  1
  I  I8  1  0.42775900  0.30751100  0.50918400  1
  I  I9  1  0.07767700  0.15759300  0.75918400  1
  I  I10  1  0.44248900  0.82224100  0.25918400  1
  I  I11  1  0.59240700  0.30751100  0.50918400  1
  I  I12  1  0.92775900  0.67232300  0.00918400  1
  I  I13  1  0.44248900  0.15759300  0.74081600  1
  I  I14  1  0.07767700  0.82224100  0.24081600  1
  I  I15  1  0.92775900  0.30751100  0.99081600  1
  I  I16  1  0.59240700  0.67232300  0.49081600  1
  Cl  Cl1  1  0.91851200  0.79521500  0.90424500  1
  Cl  Cl2  1  0.60165400  0.18461900  0.40424500  1
  Cl  Cl3  1  0.45478500  0.64834600  0.15424500  1
  Cl  Cl4  1  0.06538100  0.33148800  0.65424500  1
  Cl  Cl5  1  0.60165400  0.79521500  0.59575500  1
  Cl  Cl6  1  0.91851200  0.18461900  0.09575500  1
  Cl  Cl7  1  0.06538100  0.64834600  0.34575500  1
  Cl  Cl8  1  0.45478500  0.33148800  0.84575500  1
  Cl  Cl9  1  0.10165400  0.18461900  0.09575500  1
  Cl  Cl10  1  0.41851200  0.79521500  0.59575500  1
  Cl  Cl11  1  0.56538100  0.33148800  0.84575500  1
  Cl  Cl12  1  0.95478500  0.64834600  0.34575500  1
  Cl  Cl13  1  0.41851200  0.18461900  0.40424500  1
  Cl  Cl14  1  0.10165400  0.79521500  0.90424500  1
  Cl  Cl15  1  0.95478500  0.33148800  0.65424500  1
  Cl  Cl16  1  0.56538100  0.64834600  0.15424500  1
  O  O1  1  0.06228100  0.99798200  0.92847700  1
  O  O2  1  0.06228100  0.49798200  0.07152300  1
  O  O3  1  0.06228100  0.55567100  0.00877200  1
  O  O4  1  0.06228100  0.42416300  0.99122800  1
  O  O5  1  0.06228100  0.48185200  0.92847700  1
  O  O6  1  0.95788500  0.42416300  0.99122800  1
  O  O7  1  0.95788500  0.48185200  0.92847700  1
  O  O8  1  0.95788500  0.49798200  0.07152300  1
  O  O9  1  0.95788500  0.55567100  0.00877200  1
  O  O10  1  0.06228100  0.98185200  0.07152300  1
  O  O11  1  0.06228100  0.92416300  0.00877200  1
  O  O12  1  0.78311600  0.90391400  0.01489600  1
  O  O13  1  0.73705000  0.07592000  0.51489600  1
  O  O14  1  0.56228100  0.99798200  0.57152300  1
  O  O15  1  0.56228100  0.05567100  0.50877200  1
  O  O16  1  0.34608600  0.51295000  0.26489600  1
  O  O17  1  0.56228100  0.92416300  0.49122800  1
  O  O18  1  0.56228100  0.98185200  0.42847700  1
  O  O19  1  0.17408000  0.46688400  0.76489600  1
  O  O20  1  0.45788500  0.92416300  0.49122800  1
  O  O21  1  0.73705000  0.90391400  0.48510400  1
  O  O22  1  0.45788500  0.98185200  0.42847700  1
  O  O23  1  0.45788500  0.99798200  0.57152300  1
  O  O24  1  0.78311600  0.07592000  0.98510400  1
  O  O25  1  0.45788500  0.05567100  0.50877200  1
  O  O26  1  0.17408000  0.51295000  0.23510400  1
  O  O27  1  0.95788500  0.98185200  0.07152300  1
  O  O28  1  0.26814800  0.68771900  0.32152300  1
  O  O29  1  0.34608600  0.46688400  0.73510400  1
  O  O30  1  0.32583700  0.68771900  0.25877200  1
  O  O31  1  0.19432900  0.68771900  0.24122800  1
  O  O32  1  0.23705000  0.07592000  0.98510400  1
  O  O33  1  0.25201800  0.68771900  0.17847700  1
  O  O34  1  0.28311600  0.90391400  0.48510400  1
  O  O35  1  0.19432900  0.79211500  0.24122800  1
  O  O36  1  0.25201800  0.79211500  0.17847700  1
  O  O37  1  0.67408000  0.46688400  0.73510400  1
  O  O38  1  0.95788500  0.92416300  0.00877200  1
  O  O39  1  0.26814800  0.79211500  0.32152300  1
  O  O40  1  0.32583700  0.79211500  0.25877200  1
  O  O41  1  0.84608600  0.51295000  0.23510400  1
  O  O42  1  0.28311600  0.07592000  0.51489600  1
  O  O43  1  0.25201800  0.29211500  0.82152300  1
  O  O44  1  0.19432900  0.29211500  0.75877200  1
  O  O45  1  0.23705000  0.90391400  0.01489600  1
  O  O46  1  0.32583700  0.29211500  0.74122800  1
  O  O47  1  0.26814800  0.29211500  0.67847700  1
  O  O48  1  0.84608600  0.46688400  0.76489600  1
  O  O49  1  0.32583700  0.18771900  0.74122800  1
  O  O50  1  0.26814800  0.18771900  0.67847700  1
  O  O51  1  0.67408000  0.51295000  0.26489600  1
  O  O52  1  0.25201800  0.18771900  0.82152300  1
  O  O53  1  0.19432900  0.18771900  0.75877200  1
  O  O54  1  0.75201800  0.29211500  0.67847700  1
  O  O55  1  0.95788500  0.05567100  0.99122800  1
  O  O56  1  0.69432900  0.29211500  0.74122800  1
  O  O57  1  0.82583700  0.29211500  0.75877200  1
  O  O58  1  0.76814800  0.29211500  0.82152300  1
  O  O59  1  0.82583700  0.18771900  0.75877200  1
  O  O60  1  0.76814800  0.18771900  0.82152300  1
  O  O61  1  0.75201800  0.18771900  0.67847700  1
  O  O62  1  0.69432900  0.18771900  0.74122800  1
  O  O63  1  0.95788500  0.99798200  0.92847700  1
  O  O64  1  0.76814800  0.68771900  0.17847700  1
  O  O65  1  0.82583700  0.68771900  0.24122800  1
  O  O66  1  0.69432900  0.68771900  0.25877200  1
  O  O67  1  0.75201800  0.68771900  0.32152300  1
  O  O68  1  0.69432900  0.79211500  0.25877200  1
  O  O69  1  0.75201800  0.79211500  0.32152300  1
  O  O70  1  0.76814800  0.79211500  0.17847700  1
  O  O71  1  0.82583700  0.79211500  0.24122800  1
  O  O72  1  0.45788500  0.48185200  0.57152300  1
  O  O73  1  0.45788500  0.42416300  0.50877200  1
  O  O74  1  0.06228100  0.05567100  0.99122800  1
  O  O75  1  0.45788500  0.55567100  0.49122800  1
  O  O76  1  0.45788500  0.49798200  0.42847700  1
  O  O77  1  0.56228100  0.55567100  0.49122800  1
  O  O78  1  0.56228100  0.49798200  0.42847700  1
  O  O79  1  0.56228100  0.48185200  0.57152300  1
  O  O80  1  0.56228100  0.42416300  0.50877200  1
