# Generated by REPEAT Assigner based on pymatgen
data_DB13-lvt-Syn033394
_audit_creation_date              2022-05-24
_audit_creation_method            REPEAT_Assigner
_cell_length_a                    33.015900
_cell_length_b                    33.015900
_cell_length_c                    30.926700
_cell_angle_alpha                 90.000000
_cell_angle_beta                  90.000000
_cell_angle_gamma                 90.000000
_cell_volume                      33711.638598
_symmetry_space_group_name_H-M    P1
_symmetry_Int_Tables_number       1
loop_
    _symmetry_equiv_pos_site_id
    _symmetry_equiv_pos_as_xyz
    1  x,y,z
loop_
    _atom_site_type_symbol
    _atom_site_label
    _atom_site_fract_x
    _atom_site_fract_y
    _atom_site_fract_z
    _atom_type_partial_charge
    C   C1    0.061923  0.530283  0.040773  0.859249
    C   C2    0.061923  0.453897  0.959227  0.863444
    C   C3    0.953897  0.453897  0.959227  0.859853
    C   C4    0.953897  0.530283  0.040773  0.863920
    C   C5    0.061923  0.953897  0.040773  0.824555
    C   C6    0.885959  0.911852  0.259274  0.361284
    C   C7    0.869441  0.882605  0.223481  0.020195
    C   C8    0.880072  0.889764  0.180960  -0.071779
    C   C9    0.866461  0.867755  0.144355  -0.059721
    C   C10   0.841614  0.836486  0.156023  0.008333
    C   C11   0.826469  0.829108  0.198945  -0.192681
    C   C12   0.841647  0.852047  0.232166  -0.134227
    C   C13   0.859197  0.859930  0.947556  0.089660
    C   C14   0.874921  0.869024  0.021366  0.536695
    C   C15   0.863516  0.858408  0.063724  -0.473565
    C   C16   0.878691  0.878164  0.100110  0.291629
    C   C17   0.908344  0.909022  0.088794  -0.338752
    C   C18   0.922276  0.919607  0.047793  -0.026307
    C   C19   0.902192  0.900564  0.013183  -0.278480
    C   C20   0.629861  0.072328  0.759274  0.361284
    C   C21   0.646379  0.101575  0.723481  0.021874
    C   C22   0.635748  0.094416  0.680960  -0.073484
    C   C23   0.649359  0.116425  0.644355  -0.057262
    C   C24   0.674206  0.147694  0.656023  0.006987
    C   C25   0.689351  0.155072  0.698945  -0.190045
    C   C26   0.674173  0.132133  0.732166  -0.137106
    C   C27   0.656623  0.124250  0.447556  0.090735
    C   C28   0.640899  0.115156  0.521366  0.530862
    C   C29   0.652304  0.125771  0.563724  -0.465828
    C   C30   0.637129  0.106015  0.600110  0.285428
    C   C31   0.607476  0.075158  0.588794  -0.334312
    C   C32   0.593544  0.064573  0.547793  -0.030567
    C   C33   0.613628  0.083615  0.513183  -0.274671
    C   C34   0.561923  0.030283  0.540773  0.824065
    C   C35   0.338148  0.620139  0.509274  0.370060
    C   C36   0.367395  0.603621  0.473481  0.006341
    C   C37   0.360236  0.614252  0.430960  -0.064719
    C   C38   0.382245  0.600641  0.394355  -0.051493
    C   C39   0.413514  0.575794  0.406023  -0.004847
    C   C40   0.420892  0.560649  0.448945  -0.182284
    C   C41   0.397953  0.575827  0.482166  -0.129864
    C   C42   0.390070  0.593377  0.197556  0.093395
    C   C43   0.380976  0.609101  0.271366  0.533694
    C   C44   0.391592  0.597696  0.313724  -0.463762
    C   C45   0.371836  0.612871  0.350110  0.283971
    C   C46   0.340978  0.642524  0.338794  -0.341275
    C   C47   0.330393  0.656456  0.297793  -0.024347
    C   C48   0.349436  0.636372  0.263183  -0.274476
    C   C49   0.561923  0.953897  0.459227  0.824560
    C   C50   0.177672  0.364041  0.009274  0.369300
    C   C51   0.148425  0.380559  0.973481  0.007572
    C   C52   0.155584  0.369928  0.930960  -0.066862
    C   C53   0.133575  0.383539  0.894355  -0.050066
    C   C54   0.102306  0.408386  0.906023  -0.005451
    C   C55   0.094928  0.423531  0.948945  -0.182095
    C   C56   0.117867  0.408353  0.982166  -0.129955
    C   C57   0.953897  0.953897  0.040773  0.824103
    C   C58   0.125750  0.390803  0.697556  0.093604
    C   C59   0.134844  0.375079  0.771366  0.531002
    C   C60   0.124229  0.386484  0.813724  -0.458715
    C   C61   0.143985  0.371309  0.850110  0.281047
    C   C62   0.174842  0.341656  0.838794  -0.339837
    C   C63   0.185427  0.327724  0.797793  -0.024670
    C   C64   0.166385  0.347808  0.763183  -0.272842
    C   C65   0.629861  0.911852  0.240726  0.358583
    C   C66   0.646379  0.882605  0.276519  0.023314
    C   C67   0.635748  0.889764  0.319040  -0.073493
    C   C68   0.649359  0.867755  0.355645  -0.057540
    C   C69   0.453897  0.953897  0.459227  0.824110
    C   C70   0.674206  0.836486  0.343977  0.010997
    C   C71   0.689351  0.829108  0.301055  -0.195204
    C   C72   0.674173  0.852047  0.267834  -0.135071
    C   C73   0.656623  0.859930  0.552444  0.095453
    C   C74   0.640899  0.869024  0.478634  0.535096
    C   C75   0.652304  0.858408  0.436276  -0.468792
    C   C76   0.637129  0.878164  0.399890  0.285874
    C   C77   0.607476  0.909022  0.411206  -0.335845
    C   C78   0.593544  0.919607  0.452207  -0.027597
    C   C79   0.613628  0.900564  0.486817  -0.279222
    C   C80   0.885959  0.072328  0.740726  0.363010
    C   C81   0.869441  0.101575  0.776519  0.017890
    C   C82   0.880072  0.094416  0.819040  -0.071699
    C   C83   0.866461  0.116425  0.855645  -0.057961
    C   C84   0.841614  0.147694  0.843977  0.008238
    C   C85   0.826469  0.155072  0.801055  -0.194452
    C   C86   0.841647  0.132133  0.767834  -0.131981
    C   C87   0.453897  0.030283  0.540773  0.826640
    C   C88   0.859197  0.124250  0.052444  0.094202
    C   C89   0.874921  0.115156  0.978634  0.537647
    C   C90   0.863516  0.125771  0.936276  -0.473583
    C   C91   0.878691  0.106015  0.899890  0.289837
    C   C92   0.908344  0.075158  0.911206  -0.335772
    C   C93   0.922276  0.064573  0.952207  -0.031304
    C   C94   0.902192  0.083615  0.986817  -0.277619
    C   C95   0.177672  0.620139  0.990726  0.368328
    C   C96   0.148425  0.603621  0.026519  0.010044
    C   C97   0.155584  0.614252  0.069040  -0.066452
    C   C98   0.133575  0.600641  0.105645  -0.050213
    C   C99   0.102306  0.575794  0.093977  -0.006896
    C   C100  0.094928  0.560649  0.051055  -0.177166
    C   C101  0.117867  0.575827  0.017834  -0.134625
    C   C102  0.125750  0.593377  0.302444  0.097919
    C   C103  0.134844  0.609101  0.228634  0.532691
    C   C104  0.124229  0.597696  0.186276  -0.461595
    C   C105  0.143985  0.612871  0.149890  0.282241
    C   C106  0.174842  0.642524  0.161206  -0.341943
    C   C107  0.185427  0.656456  0.202207  -0.024899
    C   C108  0.166385  0.636372  0.236817  -0.272172
    C   C109  0.338148  0.364041  0.490726  0.371208
    C   C110  0.367395  0.380559  0.526519  0.010226
    C   C111  0.360236  0.369928  0.569040  -0.070521
    C   C112  0.382245  0.383539  0.605645  -0.049644
    C   C113  0.413514  0.408386  0.593977  -0.005718
    C   C114  0.420892  0.423531  0.551055  -0.176908
    C   C115  0.296103  0.688077  0.290773  0.817477
    C   C116  0.397953  0.408353  0.517834  -0.135827
    C   C117  0.390070  0.390803  0.802444  0.096021
    C   C118  0.380976  0.375079  0.728634  0.532353
    C   C119  0.391592  0.386484  0.686276  -0.462485
    C   C120  0.371836  0.371309  0.649890  0.285253
    C   C121  0.340978  0.341656  0.661206  -0.343993
    C   C122  0.330393  0.327724  0.702207  -0.024773
    C   C123  0.349436  0.347808  0.736817  -0.271952
    C   C124  0.129861  0.072328  0.740726  0.361319
    C   C125  0.146379  0.101575  0.776519  0.021834
    C   C126  0.135748  0.094416  0.819040  -0.073443
    C   C127  0.149359  0.116425  0.855645  -0.057285
    C   C128  0.174206  0.147694  0.843977  0.006993
    C   C129  0.189351  0.155072  0.801055  -0.190055
    C   C130  0.174173  0.132133  0.767834  -0.137080
    C   C131  0.219717  0.688077  0.209227  0.818173
    C   C132  0.156623  0.124250  0.052444  0.090863
    C   C133  0.140899  0.115156  0.978634  0.530875
    C   C134  0.152304  0.125771  0.936276  -0.465858
    C   C135  0.137129  0.106015  0.899890  0.285454
    C   C136  0.107476  0.075158  0.911206  -0.334326
    C   C137  0.093544  0.064573  0.952207  -0.030553
    C   C138  0.113628  0.083615  0.986817  -0.274672
    C   C139  0.385959  0.911852  0.240726  0.361295
    C   C140  0.369441  0.882605  0.276519  0.020185
    C   C141  0.380072  0.889764  0.319040  -0.071767
    C   C142  0.366461  0.867755  0.355645  -0.059728
    C   C143  0.341614  0.836486  0.343977  0.008342
    C   C144  0.326469  0.829108  0.301055  -0.192694
    C   C145  0.341647  0.852047  0.267834  -0.134220
    C   C146  0.359197  0.859930  0.552444  0.089632
    C   C147  0.374921  0.869024  0.478634  0.536707
    C   C148  0.219717  0.796103  0.209227  0.872830
    C   C149  0.363516  0.858408  0.436276  -0.473568
    C   C150  0.378691  0.878164  0.399890  0.291630
    C   C151  0.408344  0.909022  0.411206  -0.338754
    C   C152  0.422276  0.919607  0.452207  -0.026297
    C   C153  0.402192  0.900564  0.486817  -0.278500
    C   C154  0.677672  0.364041  0.490726  0.369327
    C   C155  0.648425  0.380559  0.526519  0.007540
    C   C156  0.655584  0.369928  0.569040  -0.066823
    C   C157  0.633575  0.383539  0.605645  -0.050096
    C   C158  0.602306  0.408386  0.593977  -0.005397
    C   C159  0.594928  0.423531  0.551055  -0.182186
    C   C160  0.617867  0.408353  0.517834  -0.129923
    C   C161  0.625750  0.390803  0.802444  0.093583
    C   C162  0.634844  0.375079  0.728634  0.531014
    C   C163  0.624229  0.386484  0.686276  -0.458739
    C   C164  0.643985  0.371309  0.649890  0.281064
    C   C165  0.674842  0.341656  0.661206  -0.339843
    C   C166  0.685427  0.327724  0.702207  -0.024659
    C   C167  0.296103  0.796103  0.290773  0.873118
    C   C168  0.666385  0.347808  0.736817  -0.272850
    C   C169  0.838148  0.620139  0.990726  0.370189
    C   C170  0.867395  0.603621  0.026519  0.006242
    C   C171  0.860236  0.614252  0.069040  -0.064677
    C   C172  0.882245  0.600641  0.105645  -0.051512
    C   C173  0.913514  0.575794  0.093977  -0.004816
    C   C174  0.920892  0.560649  0.051055  -0.182309
    C   C175  0.897953  0.575827  0.017834  -0.129795
    C   C176  0.890070  0.593377  0.302444  0.093397
    C   C177  0.880976  0.609101  0.228634  0.533685
    C   C178  0.891592  0.597696  0.186276  -0.463757
    C   C179  0.871836  0.612871  0.149890  0.283957
    C   C180  0.840978  0.642524  0.161206  -0.341246
    C   C181  0.830393  0.656456  0.202207  -0.024381
    C   C182  0.849436  0.636372  0.236817  -0.274450
    C   C183  0.385959  0.072328  0.759274  0.362971
    C   C184  0.369441  0.101575  0.723481  0.017936
    C   C185  0.380072  0.094416  0.680960  -0.071746
    C   C186  0.366461  0.116425  0.644355  -0.057927
    C   C187  0.341614  0.147694  0.656023  0.008221
    C   C188  0.326469  0.155072  0.698945  -0.194436
    C   C189  0.341647  0.132133  0.732166  -0.132007
    C   C190  0.359197  0.124250  0.447556  0.094200
    C   C191  0.374921  0.115156  0.521366  0.537647
    C   C192  0.363516  0.125771  0.563724  -0.473554
    C   C193  0.378691  0.106015  0.600110  0.289802
    C   C194  0.219717  0.296103  0.790773  0.816678
    C   C195  0.408344  0.075158  0.588794  -0.335757
    C   C196  0.422276  0.064573  0.547793  -0.031309
    C   C197  0.402192  0.083615  0.513183  -0.277629
    C   C198  0.129861  0.911852  0.259274  0.358570
    C   C199  0.146379  0.882605  0.223481  0.023329
    C   C200  0.135748  0.889764  0.180960  -0.073507
    C   C201  0.149359  0.867755  0.144355  -0.057538
    C   C202  0.174206  0.836486  0.156023  0.010992
    C   C203  0.189351  0.829108  0.198945  -0.195193
    C   C204  0.174173  0.852047  0.232166  -0.135080
    C   C205  0.156623  0.859930  0.947556  0.095471
    C   C206  0.140899  0.869024  0.021366  0.535074
    C   C207  0.152304  0.858408  0.063724  -0.468786
    C   C208  0.137129  0.878164  0.100110  0.285876
    C   C209  0.107476  0.909022  0.088794  -0.335842
    C   C210  0.093544  0.919607  0.047793  -0.027607
    C   C211  0.113628  0.900564  0.013183  -0.279197
    C   C212  0.296103  0.296103  0.709227  0.818599
    C   C213  0.838148  0.364041  0.009274  0.371164
    C   C214  0.867395  0.380559  0.973481  0.010286
    C   C215  0.860236  0.369928  0.930960  -0.070586
    C   C216  0.882245  0.383539  0.894355  -0.049551
    C   C217  0.913514  0.408386  0.906023  -0.005725
    C   C218  0.920892  0.423531  0.948945  -0.177037
    C   C219  0.897953  0.408353  0.982166  -0.135807
    C   C220  0.890070  0.390803  0.697556  0.096127
    C   C221  0.880976  0.375079  0.771366  0.532368
    C   C222  0.891592  0.386484  0.813724  -0.462452
    C   C223  0.871836  0.371309  0.850110  0.285176
    C   C224  0.840978  0.341656  0.838794  -0.343964
    C   C225  0.830393  0.327724  0.797793  -0.024787
    C   C226  0.849436  0.347808  0.763183  -0.271951
    C   C227  0.953897  0.030283  0.959227  0.826627
    C   C228  0.296103  0.188077  0.709227  0.872847
    C   C229  0.677672  0.620139  0.509274  0.368316
    C   C230  0.648425  0.603621  0.473481  0.010054
    C   C231  0.655584  0.614252  0.430960  -0.066468
    C   C232  0.633575  0.600641  0.394355  -0.050203
    C   C233  0.602306  0.575794  0.406023  -0.006921
    C   C234  0.594928  0.560649  0.448945  -0.177100
    C   C235  0.617867  0.575827  0.482166  -0.134664
    C   C236  0.625750  0.593377  0.197556  0.097919
    C   C237  0.634844  0.609101  0.271366  0.532687
    C   C238  0.624229  0.597696  0.313724  -0.461587
    C   C239  0.643985  0.612871  0.350110  0.282234
    C   C240  0.674842  0.642524  0.338794  -0.341943
    C   C241  0.685427  0.656456  0.297793  -0.024901
    C   C242  0.666385  0.636372  0.263183  -0.272169
    C   C243  0.219717  0.188077  0.790773  0.870329
    C   C244  0.719717  0.296103  0.709227  0.816668
    C   C245  0.796103  0.296103  0.790773  0.818597
    C   C246  0.796103  0.188077  0.790773  0.872878
    C   C247  0.719717  0.188077  0.709227  0.870313
    C   C248  0.796103  0.688077  0.209227  0.817452
    C   C249  0.719717  0.688077  0.290773  0.818180
    C   C250  0.719717  0.796103  0.290773  0.872842
    C   C251  0.061923  0.030283  0.959227  0.824044
    C   C252  0.796103  0.796103  0.209227  0.873111
    C   C253  0.453897  0.453897  0.540773  0.859693
    C   C254  0.453897  0.530283  0.459227  0.863957
    C   C255  0.561923  0.530283  0.459227  0.859187
    C   C256  0.561923  0.453897  0.540773  0.863523
    Cu  Cu1   0.007910  0.963656  0.969645  0.971652
    Cu  Cu2   0.007910  0.020524  0.030355  0.971050
    Cu  Cu3   0.507910  0.020524  0.469645  0.971069
    Cu  Cu4   0.507910  0.963656  0.530355  0.971701
    Cu  Cu5   0.286344  0.742090  0.219645  0.972878
    Cu  Cu6   0.229476  0.742090  0.280355  0.972132
    Cu  Cu7   0.229476  0.242090  0.719645  0.971520
    Cu  Cu8   0.286344  0.242090  0.780355  0.972681
    Cu  Cu9   0.729476  0.242090  0.780355  0.971540
    Cu  Cu10  0.786344  0.242090  0.719645  0.972654
    Cu  Cu11  0.786344  0.742090  0.280355  0.972890
    Cu  Cu12  0.729476  0.742090  0.219645  0.972123
    Cu  Cu13  0.507910  0.463656  0.469645  0.975307
    Cu  Cu14  0.507910  0.520524  0.530355  0.975844
    Cu  Cu15  0.007910  0.520524  0.969645  0.975805
    Cu  Cu16  0.007910  0.463656  0.030355  0.975286
    H   H1    0.874657  0.907507  0.290872  0.031451
    H   H2    0.900226  0.916566  0.176201  0.107408
    H   H3    0.829791  0.818092  0.131028  0.069143
    H   H4    0.834022  0.845108  0.267095  0.105019
    H   H5    0.840972  0.840972  0.924645  0.061902
    H   H6    0.846626  0.891749  0.942531  0.015339
    H   H7    0.889958  0.854085  0.934922  0.037696
    H   H8    0.844046  0.831898  0.065745  0.186978
    H   H9    0.924601  0.924748  0.114926  0.137612
    H   H10   0.913544  0.902619  0.981102  0.109891
    H   H11   0.641163  0.076673  0.790872  0.031551
    H   H12   0.615594  0.067614  0.676201  0.108333
    H   H13   0.686030  0.166088  0.631028  0.069485
    H   H14   0.681799  0.139072  0.767095  0.105543
    H   H15   0.674848  0.143208  0.424645  0.061864
    H   H16   0.669194  0.092431  0.442531  0.015270
    H   H17   0.625862  0.130095  0.434922  0.037207
    H   H18   0.671775  0.152282  0.565745  0.185208
    H   H19   0.591219  0.059432  0.614926  0.136997
    H   H20   0.602277  0.081561  0.481102  0.108646
    H   H21   0.342493  0.608837  0.540872  0.030489
    H   H22   0.333434  0.634406  0.426201  0.106509
    H   H23   0.431908  0.563970  0.381028  0.072221
    H   H24   0.404892  0.568201  0.517095  0.106772
    H   H25   0.409028  0.575152  0.174645  0.061857
    H   H26   0.358251  0.580806  0.192531  0.014335
    H   H27   0.395915  0.624138  0.184922  0.038104
    H   H28   0.418102  0.578225  0.315745  0.182927
    H   H29   0.325252  0.658781  0.364926  0.137063
    H   H30   0.347381  0.647723  0.231102  0.110387
    H   H31   0.173327  0.375343  0.040872  0.031151
    H   H32   0.182386  0.349774  0.926201  0.107495
    H   H33   0.083912  0.420209  0.881028  0.072207
    H   H34   0.110928  0.415978  0.017095  0.106241
    H   H35   0.106792  0.409028  0.674645  0.062153
    H   H36   0.157569  0.403374  0.692531  0.014006
    H   H37   0.119905  0.360042  0.684922  0.038112
    H   H38   0.097718  0.405954  0.815745  0.181451
    H   H39   0.190568  0.325399  0.864926  0.136779
    H   H40   0.168439  0.336456  0.731102  0.110104
    H   H41   0.641163  0.907507  0.209128  0.032290
    H   H42   0.615594  0.916566  0.323799  0.107677
    H   H43   0.686030  0.818092  0.368972  0.067821
    H   H44   0.681799  0.845108  0.232905  0.105172
    H   H45   0.674848  0.840972  0.575355  0.060676
    H   H46   0.669194  0.891749  0.557469  0.013930
    H   H47   0.625862  0.854085  0.565078  0.036044
    H   H48   0.671775  0.831898  0.434255  0.186462
    H   H49   0.591219  0.924748  0.385074  0.137359
    H   H50   0.602277  0.902619  0.518898  0.110478
    H   H51   0.874657  0.076673  0.709128  0.030669
    H   H52   0.900226  0.067614  0.823799  0.107276
    H   H53   0.829791  0.166088  0.868972  0.069219
    H   H54   0.834022  0.139072  0.732905  0.105093
    H   H55   0.840972  0.143208  0.075355  0.061175
    H   H56   0.846626  0.092431  0.057469  0.013961
    H   H57   0.889958  0.130095  0.065078  0.036318
    H   H58   0.844046  0.152282  0.934255  0.187045
    H   H59   0.924601  0.059432  0.885074  0.137258
    H   H60   0.913544  0.081561  0.018898  0.109757
    H   H61   0.173327  0.608837  0.959128  0.031297
    H   H62   0.182386  0.634406  0.073799  0.106612
    H   H63   0.083912  0.563970  0.118972  0.072412
    H   H64   0.110928  0.568201  0.982905  0.107083
    H   H65   0.106792  0.575152  0.325355  0.061090
    H   H66   0.157569  0.580806  0.307469  0.012692
    H   H67   0.119905  0.624138  0.315078  0.036914
    H   H68   0.097718  0.578225  0.184255  0.182694
    H   H69   0.190568  0.658781  0.135074  0.137940
    H   H70   0.168439  0.647723  0.268898  0.109672
    H   H71   0.342493  0.375343  0.459128  0.030295
    H   H72   0.333434  0.349774  0.573799  0.108680
    H   H73   0.431908  0.420209  0.618972  0.071915
    H   H74   0.404892  0.415978  0.482905  0.107724
    H   H75   0.409028  0.409028  0.825355  0.061484
    H   H76   0.358251  0.403374  0.807469  0.013132
    H   H77   0.395915  0.360042  0.815078  0.037438
    H   H78   0.418102  0.405954  0.684255  0.182481
    H   H79   0.325252  0.325399  0.635074  0.137812
    H   H80   0.347381  0.336456  0.768898  0.109463
    H   H81   0.141163  0.076673  0.709128  0.031537
    H   H82   0.115594  0.067614  0.823799  0.108308
    H   H83   0.186030  0.166088  0.868972  0.069478
    H   H84   0.181799  0.139072  0.732905  0.105538
    H   H85   0.174848  0.143208  0.075355  0.061834
    H   H86   0.169194  0.092431  0.057469  0.015242
    H   H87   0.125862  0.130095  0.065078  0.037183
    H   H88   0.171775  0.152282  0.934255  0.185231
    H   H89   0.091219  0.059432  0.885074  0.137006
    H   H90   0.102277  0.081561  0.018898  0.108627
    H   H91   0.374657  0.907507  0.209128  0.031447
    H   H92   0.400226  0.916566  0.323799  0.107401
    H   H93   0.329791  0.818092  0.368972  0.069135
    H   H94   0.334022  0.845108  0.232905  0.105015
    H   H95   0.340972  0.840972  0.575355  0.061910
    H   H96   0.346626  0.891749  0.557469  0.015348
    H   H97   0.389958  0.854085  0.565078  0.037704
    H   H98   0.344046  0.831898  0.434255  0.186990
    H   H99   0.424601  0.924748  0.385074  0.137612
    H   H100  0.413544  0.902619  0.518898  0.109904
    H   H101  0.673327  0.375343  0.459128  0.031150
    H   H102  0.682386  0.349774  0.573799  0.107468
    H   H103  0.583912  0.420209  0.618972  0.072186
    H   H104  0.610928  0.415978  0.482905  0.106226
    H   H105  0.606792  0.409028  0.825355  0.062158
    H   H106  0.657569  0.403374  0.807469  0.014016
    H   H107  0.619905  0.360042  0.815078  0.038121
    H   H108  0.597718  0.405954  0.684255  0.181471
    H   H109  0.690568  0.325399  0.635074  0.136787
    H   H110  0.668439  0.336456  0.768898  0.110102
    H   H111  0.842493  0.608837  0.959128  0.030418
    H   H112  0.833434  0.634406  0.073799  0.106495
    H   H113  0.931908  0.563970  0.118972  0.072214
    H   H114  0.904892  0.568201  0.982905  0.106757
    H   H115  0.909028  0.575152  0.325355  0.061855
    H   H116  0.858251  0.580806  0.307469  0.014337
    H   H117  0.895915  0.624138  0.315078  0.038107
    H   H118  0.918102  0.578225  0.184255  0.182930
    H   H119  0.825252  0.658781  0.135074  0.137064
    H   H120  0.847381  0.647723  0.268898  0.110364
    H   H121  0.374657  0.076673  0.790872  0.030687
    H   H122  0.400226  0.067614  0.676201  0.107304
    H   H123  0.329791  0.166088  0.631028  0.069229
    H   H124  0.334022  0.139072  0.767095  0.105090
    H   H125  0.340972  0.143208  0.424645  0.061177
    H   H126  0.346626  0.092431  0.442531  0.013960
    H   H127  0.389958  0.130095  0.434922  0.036315
    H   H128  0.344046  0.152282  0.565745  0.187029
    H   H129  0.424601  0.059432  0.614926  0.137249
    H   H130  0.413544  0.081561  0.481102  0.109771
    H   H131  0.141163  0.907507  0.290872  0.032295
    H   H132  0.115594  0.916566  0.176201  0.107684
    H   H133  0.186030  0.818092  0.131028  0.067829
    H   H134  0.181799  0.845108  0.267095  0.105174
    H   H135  0.174848  0.840972  0.924645  0.060667
    H   H136  0.169194  0.891749  0.942531  0.013925
    H   H137  0.125862  0.854085  0.934922  0.036039
    H   H138  0.171775  0.831898  0.065745  0.186448
    H   H139  0.091219  0.924748  0.114926  0.137358
    H   H140  0.102277  0.902619  0.981102  0.110465
    H   H141  0.842493  0.375343  0.040872  0.030305
    H   H142  0.833434  0.349774  0.926201  0.108712
    H   H143  0.931908  0.420209  0.881028  0.071911
    H   H144  0.904892  0.415978  0.017095  0.107696
    H   H145  0.909028  0.409028  0.674645  0.061463
    H   H146  0.858251  0.403374  0.692531  0.013102
    H   H147  0.895915  0.360042  0.684922  0.037409
    H   H148  0.918102  0.405954  0.815745  0.182472
    H   H149  0.825252  0.325399  0.864926  0.137797
    H   H150  0.847381  0.336456  0.731102  0.109461
    H   H151  0.673327  0.608837  0.540872  0.031311
    H   H152  0.682386  0.634406  0.426201  0.106617
    H   H153  0.583912  0.563970  0.381028  0.072426
    H   H154  0.610928  0.568201  0.517095  0.107098
    H   H155  0.606792  0.575152  0.174645  0.061090
    H   H156  0.657569  0.580806  0.192531  0.012691
    H   H157  0.619905  0.624138  0.184922  0.036912
    H   H158  0.597718  0.578225  0.315745  0.182684
    H   H159  0.690568  0.658781  0.364926  0.137944
    H   H160  0.668439  0.647723  0.231102  0.109674
    O   O1    0.048859  0.998417  0.944932  -0.663519
    O   O2    0.048859  0.498417  0.055068  -0.678526
    O   O3    0.048859  0.543673  0.006754  -0.576449
    O   O4    0.048859  0.440507  0.993246  -0.578155
    O   O5    0.048859  0.485763  0.944932  -0.679467
    O   O6    0.966961  0.440507  0.993246  -0.576815
    O   O7    0.966961  0.485763  0.944932  -0.679088
    O   O8    0.966961  0.498417  0.055068  -0.679716
    O   O9    0.966961  0.543673  0.006754  -0.578808
    O   O10   0.048859  0.985763  0.055068  -0.663341
    O   O11   0.856380  0.845155  0.990372  -0.361362
    O   O12   0.048859  0.940507  0.006754  -0.561996
    O   O13   0.909796  0.938039  0.248270  -0.415654
    O   O14   0.659441  0.139025  0.490372  -0.360742
    O   O15   0.606024  0.046141  0.748270  -0.416139
    O   O16   0.548859  0.998417  0.555068  -0.663537
    O   O17   0.404845  0.590559  0.240372  -0.366628
    O   O18   0.548859  0.043673  0.506754  -0.559778
    O   O19   0.311961  0.643976  0.498270  -0.421871
    O   O20   0.548859  0.940507  0.493246  -0.562021
    O   O21   0.110975  0.393620  0.740372  -0.367034
    O   O22   0.548859  0.985763  0.444932  -0.663346
    O   O23   0.203859  0.340204  0.998270  -0.421958
    O   O24   0.659441  0.845155  0.509628  -0.362881
    O   O25   0.466961  0.940507  0.493246  -0.562437
    O   O26   0.466961  0.985763  0.444932  -0.662960
    O   O27   0.606024  0.938039  0.251730  -0.414952
    O   O28   0.856380  0.139025  0.009628  -0.362831
    O   O29   0.466961  0.998417  0.555068  -0.663528
    O   O30   0.909796  0.046141  0.751730  -0.415878
    O   O31   0.466961  0.043673  0.506754  -0.562220
    O   O32   0.110975  0.590559  0.259628  -0.368306
    O   O33   0.203859  0.643976  0.001730  -0.421601
    O   O34   0.966961  0.985763  0.055068  -0.662954
    O   O35   0.404845  0.393620  0.759628  -0.367426
    O   O36   0.264237  0.701141  0.305068  -0.660871
    O   O37   0.311961  0.340204  0.501730  -0.422905
    O   O38   0.309493  0.701141  0.256754  -0.560883
    O   O39   0.159441  0.139025  0.009628  -0.360788
    O   O40   0.206327  0.701141  0.243246  -0.561126
    O   O41   0.106024  0.046141  0.751730  -0.416143
    O   O42   0.251583  0.701141  0.194932  -0.661999
    O   O43   0.356380  0.845155  0.509628  -0.361370
    O   O44   0.206327  0.783039  0.243246  -0.577748
    O   O45   0.409796  0.938039  0.251730  -0.415656
    O   O46   0.251583  0.783039  0.194932  -0.680140
    O   O47   0.610975  0.393620  0.759628  -0.367043
    O   O48   0.703859  0.340204  0.501730  -0.421964
    O   O49   0.966961  0.940507  0.006754  -0.562412
    O   O50   0.264237  0.783039  0.305068  -0.680739
    O   O51   0.309493  0.783039  0.256754  -0.578493
    O   O52   0.904845  0.590559  0.259628  -0.366631
    O   O53   0.811961  0.643976  0.001730  -0.421895
    O   O54   0.356380  0.139025  0.490372  -0.362830
    O   O55   0.409796  0.046141  0.748270  -0.415874
    O   O56   0.251583  0.283039  0.805068  -0.660971
    O   O57   0.206327  0.283039  0.756754  -0.560760
    O   O58   0.159441  0.845155  0.990372  -0.362863
    O   O59   0.106024  0.938039  0.248270  -0.414950
    O   O60   0.309493  0.283039  0.743246  -0.560627
    O   O61   0.904845  0.393620  0.740372  -0.367468
    O   O62   0.264237  0.283039  0.694932  -0.661443
    O   O63   0.811961  0.340204  0.998270  -0.422898
    O   O64   0.309493  0.201141  0.743246  -0.578641
    O   O65   0.610975  0.590559  0.240372  -0.368301
    O   O66   0.264237  0.201141  0.694932  -0.679937
    O   O67   0.703859  0.643976  0.498270  -0.421600
    O   O68   0.251583  0.201141  0.805068  -0.680193
    O   O69   0.206327  0.201141  0.756754  -0.576810
    O   O70   0.751583  0.283039  0.694932  -0.660962
    O   O71   0.966961  0.043673  0.993246  -0.562208
    O   O72   0.706327  0.283039  0.743246  -0.560768
    O   O73   0.809493  0.283039  0.756754  -0.560603
    O   O74   0.764237  0.283039  0.805068  -0.661445
    O   O75   0.809493  0.201141  0.756754  -0.578663
    O   O76   0.764237  0.201141  0.805068  -0.679953
    O   O77   0.751583  0.201141  0.694932  -0.680175
    O   O78   0.706327  0.201141  0.743246  -0.576809
    O   O79   0.966961  0.998417  0.944932  -0.663512
    O   O80   0.764237  0.701141  0.194932  -0.660859
    O   O81   0.809493  0.701141  0.243246  -0.560838
    O   O82   0.706327  0.701141  0.256754  -0.561130
    O   O83   0.751583  0.701141  0.305068  -0.662013
    O   O84   0.706327  0.783039  0.256754  -0.577744
    O   O85   0.751583  0.783039  0.305068  -0.680143
    O   O86   0.764237  0.783039  0.194932  -0.680737
    O   O87   0.809493  0.783039  0.243246  -0.578514
    O   O88   0.466961  0.485763  0.555068  -0.679048
    O   O89   0.466961  0.440507  0.506754  -0.576855
    O   O90   0.048859  0.043673  0.993246  -0.559757
    O   O91   0.466961  0.543673  0.493246  -0.578828
    O   O92   0.466961  0.498417  0.444932  -0.679729
    O   O93   0.548859  0.543673  0.493246  -0.576458
    O   O94   0.548859  0.498417  0.444932  -0.678520
    O   O95   0.548859  0.485763  0.555068  -0.679501
    O   O96   0.548859  0.440507  0.506754  -0.578122
