# Generated by REPEAT Assigner based on pymatgen
data_DB13-nbo-Syn036189
_audit_creation_date              2022-05-24
_audit_creation_method            REPEAT_Assigner
_cell_length_a                    22.572900
_cell_length_b                    22.572900
_cell_length_c                    22.572900
_cell_angle_alpha                 90.000000
_cell_angle_beta                  90.000000
_cell_angle_gamma                 90.000000
_cell_volume                      11501.700985
_symmetry_space_group_name_H-M    P1
_symmetry_Int_Tables_number       1
loop_
    _symmetry_equiv_pos_site_id
    _symmetry_equiv_pos_as_xyz
    1  x,y,z
loop_
    _atom_site_type_symbol
    _atom_site_label
    _atom_site_fract_x
    _atom_site_fract_y
    _atom_site_fract_z
    _atom_type_partial_charge
    C   C1    0.822945  0.388399  0.118900  0.525405
    C   C2    0.824845  0.341222  0.203573  0.245819
    C   C3    0.872015  0.375767  0.223330  -0.437384
    C   C4    0.038891  0.540233  0.288224  -0.004503
    C   C5    0.001628  0.503992  0.318124  -0.418724
    C   C6    0.000000  0.611725  0.500000  0.863017
    C   C7    0.956220  0.467369  0.282968  0.696285
    C   C8    0.949448  0.462890  0.212603  -0.304392
    C   C9    0.987425  0.498091  0.180381  -0.197183
    C   C10   0.028879  0.538154  0.217202  0.422118
    C   C11   0.915449  0.574727  0.688833  0.061484
    C   C12   0.870987  0.549719  0.654153  0.142472
    C   C13   0.822723  0.589555  0.634850  -0.238419
    C   C14   0.860499  0.483407  0.642667  -0.289566
    C   C15   0.912221  0.637008  0.710873  -0.253928
    C   C16   0.100658  0.419289  0.812528  0.569079
    C   C17   0.129503  0.424304  0.868246  -0.555509
    C   C18   0.177055  0.388399  0.881100  0.552581
    C   C19   0.175155  0.341222  0.796427  0.348733
    C   C20   0.127985  0.375767  0.776670  -0.530991
    C   C21   0.961109  0.540233  0.711776  -0.043418
    C   C22   0.998372  0.503992  0.681876  -0.363247
    C   C23   0.043780  0.467369  0.717032  0.633941
    C   C24   0.050552  0.462890  0.787397  -0.259823
    C   C25   0.012575  0.498091  0.819619  -0.244878
    C   C26   0.971121  0.538154  0.782798  0.477187
    C   C27   0.311167  0.084551  0.574727  0.068120
    C   C28   0.345847  0.129013  0.549719  0.105310
    C   C29   0.365150  0.177277  0.589555  -0.254650
    C   C30   0.357333  0.139501  0.483407  -0.225795
    C   C31   0.289127  0.087779  0.637008  -0.352065
    C   C32   0.388275  0.000000  0.500000  0.794861
    C   C33   0.187472  0.899342  0.419289  0.380531
    C   C34   0.131754  0.870497  0.424304  -0.472575
    C   C35   0.118900  0.822945  0.388399  0.512807
    C   C36   0.203573  0.824845  0.341222  0.222013
    C   C37   0.223330  0.872015  0.375767  -0.339967
    C   C38   0.288224  0.038891  0.540233  0.095940
    C   C39   0.318124  0.001628  0.503992  -0.329361
    C   C40   0.282968  0.956220  0.467369  0.547857
    C   C41   0.212603  0.949448  0.462890  -0.215673
    C   C42   0.180381  0.987425  0.498091  -0.207605
    C   C43   0.217202  0.028879  0.538154  0.342766
    C   C44   0.688833  0.915449  0.574727  -0.046635
    C   C45   0.654153  0.870987  0.549719  0.225811
    C   C46   0.634850  0.822723  0.589555  -0.217561
    C   C47   0.642667  0.860499  0.483407  -0.422565
    C   C48   0.710873  0.912221  0.637008  -0.193133
    C   C49   0.500000  0.000000  0.388275  0.862370
    C   C50   0.812528  0.100658  0.419289  0.428265
    C   C51   0.868246  0.129503  0.424304  -0.530880
    C   C52   0.881100  0.177055  0.388399  0.580619
    C   C53   0.796427  0.175155  0.341222  0.314368
    C   C54   0.776670  0.127985  0.375767  -0.419992
    C   C55   0.000000  0.500000  0.388275  0.890751
    C   C56   0.711776  0.961109  0.540233  0.176723
    C   C57   0.681876  0.998372  0.503992  -0.429787
    C   C58   0.717032  0.043780  0.467369  0.604722
    C   C59   0.787397  0.050552  0.462890  -0.260845
    C   C60   0.819619  0.012575  0.498091  -0.183590
    C   C61   0.782798  0.971121  0.538154  0.302995
    C   C62   0.574727  0.311167  0.084551  0.117695
    C   C63   0.549719  0.345847  0.129013  0.114697
    C   C64   0.589555  0.365150  0.177277  -0.247697
    C   C65   0.483407  0.357333  0.139501  -0.273121
    C   C66   0.637008  0.289127  0.087779  -0.362025
    C   C67   0.611725  0.000000  0.500000  0.863016
    C   C68   0.419289  0.187472  0.899342  0.558478
    C   C69   0.424304  0.131754  0.870497  -0.559936
    C   C70   0.388399  0.118900  0.822945  0.528747
    C   C71   0.341222  0.203573  0.824845  0.250900
    C   C72   0.375767  0.223330  0.872015  -0.453387
    C   C73   0.540233  0.288224  0.038891  -0.041891
    C   C74   0.503992  0.318124  0.001628  -0.365425
    C   C75   0.467369  0.282968  0.956220  0.650529
    C   C76   0.462890  0.212603  0.949448  -0.282507
    C   C77   0.498091  0.180381  0.987425  -0.222995
    C   C78   0.538154  0.217202  0.028879  0.456998
    C   C79   0.574727  0.688833  0.915449  0.052590
    C   C80   0.549719  0.654153  0.870987  0.200353
    C   C81   0.589555  0.634850  0.822723  -0.211557
    C   C82   0.483407  0.642667  0.860499  -0.425920
    C   C83   0.637008  0.710873  0.912221  -0.282443
    C   C84   0.500000  0.000000  0.611725  0.890749
    C   C85   0.419289  0.812528  0.100658  0.549002
    C   C86   0.424304  0.868246  0.129503  -0.542439
    C   C87   0.388399  0.881100  0.177055  0.542498
    C   C88   0.341222  0.796427  0.175155  0.324119
    C   C89   0.375767  0.776670  0.127985  -0.497449
    C   C90   0.540233  0.711776  0.961109  0.003930
    C   C91   0.503992  0.681876  0.998372  -0.424050
    C   C92   0.467369  0.717032  0.043780  0.693264
    C   C93   0.462890  0.787397  0.050552  -0.291402
    C   C94   0.498091  0.819619  0.012575  -0.213263
    C   C95   0.538154  0.782798  0.971121  0.434031
    C   C96   0.574727  0.084551  0.688833  0.109465
    C   C97   0.549719  0.129013  0.654153  0.167965
    C   C98   0.589555  0.177277  0.634850  -0.229000
    C   C99   0.483407  0.139501  0.642667  -0.398772
    C   C100  0.637008  0.087779  0.710873  -0.367701
    C   C101  0.419289  0.899342  0.812528  0.539007
    C   C102  0.424304  0.870497  0.868246  -0.545632
    C   C103  0.388399  0.822945  0.881100  0.525405
    C   C104  0.341222  0.824845  0.796427  0.245820
    C   C105  0.375767  0.872015  0.776670  -0.437385
    C   C106  0.500000  0.388275  0.000000  0.851935
    C   C107  0.540233  0.038891  0.711776  -0.004504
    C   C108  0.503992  0.001628  0.681876  -0.418723
    C   C109  0.467369  0.956220  0.717032  0.696284
    C   C110  0.462890  0.949448  0.787397  -0.304391
    C   C111  0.498091  0.987425  0.819619  -0.197184
    C   C112  0.538154  0.028879  0.782798  0.422119
    C   C113  0.574727  0.915449  0.311167  0.061484
    C   C114  0.549719  0.870987  0.345847  0.142472
    C   C115  0.589555  0.822723  0.365150  -0.238419
    C   C116  0.483407  0.860499  0.357333  -0.289566
    C   C117  0.637008  0.912221  0.289127  -0.253928
    C   C118  0.419289  0.100658  0.187472  0.569079
    C   C119  0.424304  0.129503  0.131754  -0.555509
    C   C120  0.388399  0.177055  0.118900  0.552581
    C   C121  0.341222  0.175155  0.203573  0.348732
    C   C122  0.375767  0.127985  0.223330  -0.530990
    C   C123  0.388275  0.500000  0.000000  0.851936
    C   C124  0.540233  0.961109  0.288224  -0.043416
    C   C125  0.503992  0.998372  0.318124  -0.363248
    C   C126  0.467369  0.043780  0.282968  0.633942
    C   C127  0.462890  0.050552  0.212603  -0.259823
    C   C128  0.498091  0.012575  0.180381  -0.244877
    C   C129  0.538154  0.971121  0.217202  0.477185
    C   C130  0.084551  0.311167  0.425273  0.068119
    C   C131  0.129013  0.345847  0.450281  0.105311
    C   C132  0.177277  0.365150  0.410445  -0.254651
    C   C133  0.139501  0.357333  0.516593  -0.225798
    C   C134  0.087779  0.289127  0.362992  -0.352065
    C   C135  0.899342  0.187472  0.580711  0.380533
    C   C136  0.870497  0.131754  0.575696  -0.472577
    C   C137  0.822945  0.118900  0.611601  0.512808
    C   C138  0.824845  0.203573  0.658778  0.222013
    C   C139  0.872015  0.223330  0.624233  -0.339967
    C   C140  0.500000  0.611725  0.000000  0.896261
    C   C141  0.038891  0.288224  0.459767  0.095941
    C   C142  0.001628  0.318124  0.496008  -0.329363
    C   C143  0.956220  0.282968  0.532631  0.547860
    C   C144  0.949448  0.212603  0.537110  -0.215676
    C   C145  0.987425  0.180381  0.501909  -0.207601
    C   C146  0.028879  0.217202  0.461846  0.342764
    C   C147  0.915449  0.688833  0.425273  -0.046635
    C   C148  0.870987  0.654153  0.450281  0.225813
    C   C149  0.822723  0.634850  0.410445  -0.217561
    C   C150  0.860499  0.642667  0.516593  -0.422567
    C   C151  0.912221  0.710873  0.362992  -0.193134
    C   C152  0.100658  0.812528  0.580711  0.428268
    C   C153  0.129503  0.868246  0.575696  -0.530883
    C   C154  0.177055  0.881100  0.611601  0.580621
    C   C155  0.611725  0.500000  0.000000  0.896259
    C   C156  0.175155  0.796427  0.658778  0.314368
    C   C157  0.127985  0.776670  0.624233  -0.419992
    C   C158  0.961109  0.711776  0.459767  0.176724
    C   C159  0.998372  0.681876  0.496008  -0.429790
    C   C160  0.043780  0.717032  0.532631  0.604725
    C   C161  0.050552  0.787397  0.537110  -0.260849
    C   C162  0.012575  0.819619  0.501909  -0.183586
    C   C163  0.971121  0.782798  0.461846  0.302992
    C   C164  0.311167  0.574727  0.915449  0.117694
    C   C165  0.345847  0.549719  0.870987  0.114697
    C   C166  0.365150  0.589555  0.822723  -0.247696
    C   C167  0.357333  0.483407  0.860499  -0.273120
    C   C168  0.289127  0.637008  0.912221  -0.362024
    C   C169  0.187472  0.419289  0.100658  0.558480
    C   C170  0.131754  0.424304  0.129503  -0.559939
    C   C171  0.118900  0.388399  0.177055  0.528749
    C   C172  0.203573  0.341222  0.175155  0.250901
    C   C173  0.223330  0.375767  0.127985  -0.453389
    C   C174  0.288224  0.540233  0.961109  -0.041890
    C   C175  0.318124  0.503992  0.998372  -0.365426
    C   C176  0.282968  0.467369  0.043780  0.650530
    C   C177  0.212603  0.462890  0.050552  -0.282509
    C   C178  0.180381  0.498091  0.012575  -0.222994
    C   C179  0.217202  0.538154  0.971121  0.456997
    C   C180  0.688833  0.574727  0.084551  0.052592
    C   C181  0.654153  0.549719  0.129013  0.200352
    C   C182  0.634850  0.589555  0.177277  -0.211558
    C   C183  0.642667  0.483407  0.139501  -0.425920
    C   C184  0.500000  0.000000  0.888275  0.897346
    C   C185  0.710873  0.637008  0.087779  -0.282445
    C   C186  0.812528  0.419289  0.899342  0.549000
    C   C187  0.868246  0.424304  0.870497  -0.542436
    C   C188  0.881100  0.388399  0.822945  0.542496
    C   C189  0.796427  0.341222  0.824845  0.324118
    C   C190  0.776670  0.375767  0.872015  -0.497447
    C   C191  0.711776  0.540233  0.038891  0.003929
    C   C192  0.681876  0.503992  0.001628  -0.424048
    C   C193  0.717032  0.467369  0.956220  0.693262
    C   C194  0.787397  0.462890  0.949448  -0.291401
    C   C195  0.819619  0.498091  0.987425  -0.213263
    C   C196  0.782798  0.538154  0.028879  0.434032
    C   C197  0.500000  0.888275  0.000000  0.902698
    C   C198  0.000000  0.388275  0.500000  0.794862
    C   C199  0.500000  0.000000  0.111725  0.912007
    C   C200  0.500000  0.111725  0.000000  0.907357
    C   C201  0.888275  0.500000  0.000000  0.902698
    C   C202  0.000000  0.500000  0.888275  0.912008
    C   C203  0.111725  0.500000  0.000000  0.907356
    C   C204  0.000000  0.500000  0.111725  0.897345
    C   C205  0.000000  0.888275  0.500000  0.927046
    C   C206  0.888275  0.000000  0.500000  0.927047
    C   C207  0.000000  0.111725  0.500000  0.915627
    C   C208  0.000000  0.500000  0.611725  0.862368
    C   C209  0.111725  0.000000  0.500000  0.915628
    C   C210  0.084551  0.574727  0.311167  0.109464
    C   C211  0.129013  0.549719  0.345847  0.167966
    C   C212  0.177277  0.589555  0.365150  -0.228999
    C   C213  0.139501  0.483407  0.357333  -0.398773
    C   C214  0.087779  0.637008  0.289127  -0.367700
    C   C215  0.899342  0.419289  0.187472  0.539007
    C   C216  0.870497  0.424304  0.131754  -0.545631
    Cl  Cl1   0.787392  0.394915  0.048276  -0.179726
    Cl  Cl2   0.212608  0.394915  0.951724  -0.182145
    Cl  Cl3   0.048276  0.787392  0.394915  -0.116719
    Cl  Cl4   0.951724  0.212608  0.394915  -0.154634
    Cl  Cl5   0.394915  0.048276  0.787392  -0.176003
    Cl  Cl6   0.394915  0.951724  0.212608  -0.186948
    Cl  Cl7   0.394915  0.787392  0.951724  -0.179726
    Cl  Cl8   0.394915  0.212608  0.048276  -0.182145
    Cl  Cl9   0.787392  0.048276  0.605085  -0.116719
    Cl  Cl10  0.212608  0.951724  0.605085  -0.154635
    Cl  Cl11  0.048276  0.394915  0.212608  -0.176004
    Cl  Cl12  0.951724  0.394915  0.787392  -0.186947
    Cu  Cu1   0.941184  0.500000  0.500000  0.965001
    Cu  Cu2   0.058816  0.500000  0.500000  0.965508
    Cu  Cu3   0.500000  0.941184  0.500000  0.965002
    Cu  Cu4   0.500000  0.058816  0.500000  0.965508
    Cu  Cu5   0.500000  0.500000  0.941184  0.979441
    Cu  Cu6   0.500000  0.500000  0.058816  0.979444
    Cu  Cu7   0.441184  0.000000  0.000000  0.918569
    Cu  Cu8   0.558816  0.000000  0.000000  1.024407
    Cu  Cu9   0.000000  0.441184  0.000000  0.918569
    Cu  Cu10  0.000000  0.558816  0.000000  1.024407
    Cu  Cu11  0.000000  0.000000  0.441184  0.984353
    Cu  Cu12  0.000000  0.000000  0.558816  0.984354
    H   H1    0.880593  0.454602  0.096241  0.213390
    H   H2    0.807459  0.307459  0.230672  0.083113
    H   H3    0.893036  0.363353  0.264749  0.192793
    H   H4    0.840370  0.633771  0.617720  0.069616
    H   H5    0.792335  0.595653  0.671752  0.086140
    H   H6    0.798192  0.574136  0.596467  0.058413
    H   H7    0.854216  0.473548  0.596296  0.086825
    H   H8    0.900348  0.458705  0.657450  0.088147
    H   H9    0.822586  0.464428  0.663314  0.105870
    H   H10   0.873769  0.646038  0.731714  0.096279
    H   H11   0.916459  0.669983  0.676574  0.055353
    H   H12   0.951025  0.646906  0.739819  0.117147
    H   H13   0.119407  0.454602  0.903759  0.209987
    H   H14   0.192541  0.307459  0.769328  0.053053
    H   H15   0.106964  0.363353  0.735251  0.214617
    H   H16   0.382280  0.159630  0.633771  0.082668
    H   H17   0.328248  0.207665  0.595653  0.106731
    H   H18   0.403533  0.201808  0.574136  0.052475
    H   H19   0.403704  0.145784  0.473548  0.083777
    H   H20   0.342550  0.099652  0.458705  0.039335
    H   H21   0.336686  0.177414  0.464428  0.081937
    H   H22   0.268286  0.126231  0.646038  0.118425
    H   H23   0.323426  0.083541  0.669983  0.083778
    H   H24   0.260181  0.048975  0.646906  0.151142
    H   H25   0.096241  0.880593  0.454602  0.231455
    H   H26   0.230672  0.807459  0.307459  0.091425
    H   H27   0.264749  0.893036  0.363353  0.141840
    H   H28   0.617720  0.840370  0.633771  0.061935
    H   H29   0.671752  0.792335  0.595653  0.076915
    H   H30   0.596467  0.798192  0.574136  0.062478
    H   H31   0.596296  0.854216  0.473548  0.171871
    H   H32   0.657450  0.900348  0.458705  0.106366
    H   H33   0.663314  0.822586  0.464428  0.114876
    H   H34   0.731714  0.873769  0.646038  0.080874
    H   H35   0.676574  0.916459  0.669983  0.052565
    H   H36   0.739819  0.951025  0.646906  0.104678
    H   H37   0.903759  0.119407  0.454602  0.256836
    H   H38   0.769328  0.192541  0.307459  0.066245
    H   H39   0.735251  0.106964  0.363353  0.163491
    H   H40   0.633771  0.382280  0.159630  0.079534
    H   H41   0.595653  0.328248  0.207665  0.097727
    H   H42   0.574136  0.403533  0.201808  0.055679
    H   H43   0.473548  0.403704  0.145784  0.084961
    H   H44   0.458705  0.342550  0.099652  0.081642
    H   H45   0.464428  0.336686  0.177414  0.101027
    H   H46   0.646038  0.268286  0.126231  0.122186
    H   H47   0.669983  0.323426  0.083541  0.084624
    H   H48   0.646906  0.260181  0.048975  0.134351
    H   H49   0.454602  0.096241  0.880593  0.216876
    H   H50   0.307459  0.230672  0.807459  0.082025
    H   H51   0.363353  0.264749  0.893036  0.196704
    H   H52   0.633771  0.617720  0.840370  0.060356
    H   H53   0.595653  0.671752  0.792335  0.075637
    H   H54   0.574136  0.596467  0.798192  0.063779
    H   H55   0.473548  0.596296  0.854216  0.171309
    H   H56   0.458705  0.657450  0.900348  0.121175
    H   H57   0.464428  0.663314  0.822586  0.125627
    H   H58   0.646038  0.731714  0.873769  0.101963
    H   H59   0.669983  0.676574  0.916459  0.066509
    H   H60   0.646906  0.739819  0.951025  0.123767
    H   H61   0.454602  0.903759  0.119407  0.209941
    H   H62   0.307459  0.769328  0.192541  0.057695
    H   H63   0.363353  0.735251  0.106964  0.206040
    H   H64   0.633771  0.159630  0.617720  0.080565
    H   H65   0.595653  0.207665  0.671752  0.087466
    H   H66   0.574136  0.201808  0.596467  0.062386
    H   H67   0.473548  0.145784  0.596296  0.170004
    H   H68   0.458705  0.099652  0.657450  0.113541
    H   H69   0.464428  0.177414  0.663314  0.119689
    H   H70   0.646038  0.126231  0.731714  0.123463
    H   H71   0.669983  0.083541  0.676574  0.075404
    H   H72   0.646906  0.048975  0.739819  0.141638
    H   H73   0.454602  0.880593  0.903759  0.213390
    H   H74   0.307459  0.807459  0.769328  0.083113
    H   H75   0.363353  0.893036  0.735251  0.192793
    H   H76   0.633771  0.840370  0.382280  0.069616
    H   H77   0.595653  0.792335  0.328248  0.086140
    H   H78   0.574136  0.798192  0.403533  0.058412
    H   H79   0.473548  0.854216  0.403704  0.086825
    H   H80   0.458705  0.900348  0.342550  0.088147
    H   H81   0.464428  0.822586  0.336686  0.105870
    H   H82   0.646038  0.873769  0.268286  0.096279
    H   H83   0.669983  0.916459  0.323426  0.055353
    H   H84   0.646906  0.951025  0.260181  0.117147
    H   H85   0.454602  0.119407  0.096241  0.209987
    H   H86   0.307459  0.192541  0.230672  0.053054
    H   H87   0.363353  0.106964  0.264749  0.214617
    H   H88   0.159630  0.382280  0.366229  0.082668
    H   H89   0.207665  0.328248  0.404347  0.106731
    H   H90   0.201808  0.403533  0.425864  0.052476
    H   H91   0.145784  0.403704  0.526452  0.083778
    H   H92   0.099652  0.342550  0.541295  0.039336
    H   H93   0.177414  0.336686  0.535572  0.081937
    H   H94   0.126231  0.268286  0.353962  0.118425
    H   H95   0.083541  0.323426  0.330017  0.083778
    H   H96   0.048975  0.260181  0.353094  0.151142
    H   H97   0.880593  0.096241  0.545398  0.231456
    H   H98   0.807459  0.230672  0.692541  0.091425
    H   H99   0.893036  0.264749  0.636647  0.141840
    H   H100  0.840370  0.617720  0.366229  0.061935
    H   H101  0.792335  0.671752  0.404347  0.076915
    H   H102  0.798192  0.596467  0.425864  0.062478
    H   H103  0.854216  0.596296  0.526452  0.171871
    H   H104  0.900348  0.657450  0.541295  0.106366
    H   H105  0.822586  0.663314  0.535572  0.114876
    H   H106  0.873769  0.731714  0.353962  0.080874
    H   H107  0.916459  0.676574  0.330017  0.052565
    H   H108  0.951025  0.739819  0.353094  0.104678
    H   H109  0.119407  0.903759  0.545398  0.256837
    H   H110  0.192541  0.769328  0.692541  0.066245
    H   H111  0.106964  0.735251  0.636647  0.163491
    H   H112  0.382280  0.633771  0.840370  0.079534
    H   H113  0.328248  0.595653  0.792335  0.097727
    H   H114  0.403533  0.574136  0.798192  0.055679
    H   H115  0.403704  0.473548  0.854216  0.084961
    H   H116  0.342550  0.458705  0.900348  0.081642
    H   H117  0.336686  0.464428  0.822586  0.101027
    H   H118  0.268286  0.646038  0.873769  0.122186
    H   H119  0.323426  0.669983  0.916459  0.084624
    H   H120  0.260181  0.646906  0.951025  0.134351
    H   H121  0.096241  0.454602  0.119407  0.216877
    H   H122  0.230672  0.307459  0.192541  0.082025
    H   H123  0.264749  0.363353  0.106964  0.196704
    H   H124  0.617720  0.633771  0.159630  0.060356
    H   H125  0.671752  0.595653  0.207665  0.075637
    H   H126  0.596467  0.574136  0.201808  0.063780
    H   H127  0.596296  0.473548  0.145784  0.171309
    H   H128  0.657450  0.458705  0.099652  0.121174
    H   H129  0.663314  0.464428  0.177414  0.125628
    H   H130  0.731714  0.646038  0.126231  0.101963
    H   H131  0.676574  0.669983  0.083541  0.066509
    H   H132  0.739819  0.646906  0.048975  0.123767
    H   H133  0.903759  0.454602  0.880593  0.209940
    H   H134  0.769328  0.307459  0.807459  0.057695
    H   H135  0.735251  0.363353  0.893036  0.206040
    H   H136  0.159630  0.633771  0.382280  0.080565
    H   H137  0.207665  0.595653  0.328248  0.087465
    H   H138  0.201808  0.574136  0.403533  0.062385
    H   H139  0.145784  0.473548  0.403704  0.170004
    H   H140  0.099652  0.458705  0.342550  0.113541
    H   H141  0.177414  0.464428  0.336686  0.119689
    H   H142  0.126231  0.646038  0.268286  0.123463
    H   H143  0.083541  0.669983  0.323426  0.075404
    H   H144  0.048975  0.646906  0.260181  0.141637
    N   N1    0.796470  0.346708  0.151293  -0.471405
    N   N2    0.203530  0.346708  0.848707  -0.530107
    N   N3    0.151293  0.796470  0.346708  -0.468075
    N   N4    0.848707  0.203530  0.346708  -0.533769
    N   N5    0.346708  0.151293  0.796470  -0.474038
    N   N6    0.346708  0.848707  0.203530  -0.514701
    N   N7    0.346708  0.796470  0.848707  -0.471405
    N   N8    0.346708  0.203530  0.151293  -0.530107
    N   N9    0.796470  0.151293  0.653292  -0.468076
    N   N10   0.203530  0.848707  0.653292  -0.533770
    N   N11   0.151293  0.346708  0.203530  -0.474039
    N   N12   0.848707  0.346708  0.796470  -0.514700
    O   O1    0.953194  0.500000  0.584702  -0.554022
    O   O2    0.922219  0.436229  0.309475  -0.431111
    O   O3    0.061515  0.573651  0.190344  -0.400138
    O   O4    0.046806  0.584702  0.500000  -0.629479
    O   O5    0.953194  0.584702  0.500000  -0.618261
    O   O6    0.077781  0.436229  0.690525  -0.404271
    O   O7    0.938485  0.573651  0.809656  -0.413987
    O   O8    0.415298  0.046806  0.500000  -0.525288
    O   O9    0.309475  0.922219  0.436229  -0.378948
    O   O10   0.190344  0.061515  0.573651  -0.382622
    O   O11   0.415298  0.953194  0.500000  -0.636089
    O   O12   0.500000  0.046806  0.415298  -0.667793
    O   O13   0.690525  0.077781  0.436229  -0.399009
    O   O14   0.500000  0.953194  0.415298  -0.554023
    O   O15   0.809656  0.938485  0.573651  -0.389762
    O   O16   0.584702  0.046806  0.500000  -0.629479
    O   O17   0.436229  0.309475  0.922219  -0.412405
    O   O18   0.584702  0.953194  0.500000  -0.618261
    O   O19   0.573651  0.190344  0.061515  -0.401094
    O   O20   0.500000  0.046806  0.584702  -0.628150
    O   O21   0.500000  0.953194  0.584702  -0.650595
    O   O22   0.436229  0.690525  0.077781  -0.430575
    O   O23   0.573651  0.809656  0.938485  -0.406984
    O   O24   0.046806  0.500000  0.415298  -0.628151
    O   O25   0.436229  0.922219  0.690525  -0.431111
    O   O26   0.573651  0.061515  0.809656  -0.400138
    O   O27   0.500000  0.415298  0.046806  -0.546731
    O   O28   0.500000  0.415298  0.953194  -0.663433
    O   O29   0.436229  0.077781  0.309475  -0.404272
    O   O30   0.573651  0.938485  0.190344  -0.413987
    O   O31   0.415298  0.500000  0.046806  -0.663435
    O   O32   0.415298  0.500000  0.953194  -0.546731
    O   O33   0.922219  0.309475  0.563771  -0.378948
    O   O34   0.500000  0.584702  0.046806  -0.652524
    O   O35   0.061515  0.190344  0.426349  -0.382621
    O   O36   0.500000  0.584702  0.953194  -0.630549
    O   O37   0.077781  0.690525  0.563771  -0.399010
    O   O38   0.953194  0.500000  0.415298  -0.650595
    O   O39   0.584702  0.500000  0.046806  -0.630550
    O   O40   0.938485  0.809656  0.426349  -0.389761
    O   O41   0.584702  0.500000  0.953194  -0.652522
    O   O42   0.309475  0.436229  0.077781  -0.412405
    O   O43   0.190344  0.573651  0.938485  -0.401093
    O   O44   0.546806  0.000000  0.915298  -0.637312
    O   O45   0.453194  0.000000  0.915298  -0.615605
    O   O46   0.690525  0.436229  0.922219  -0.430574
    O   O47   0.809656  0.573651  0.061515  -0.406985
    O   O48   0.546806  0.915298  0.000000  -0.638604
    O   O49   0.453194  0.915298  0.000000  -0.619376
    O   O50   0.546806  0.000000  0.084702  -0.639789
    O   O51   0.453194  0.000000  0.084702  -0.621450
    O   O52   0.546806  0.084702  0.000000  -0.639941
    O   O53   0.453194  0.084702  0.000000  -0.617886
    O   O54   0.915298  0.546806  0.000000  -0.638604
    O   O55   0.046806  0.415298  0.500000  -0.525288
    O   O56   0.915298  0.453194  0.000000  -0.619377
    O   O57   0.000000  0.546806  0.915298  -0.639789
    O   O58   0.000000  0.453194  0.915298  -0.621450
    O   O59   0.084702  0.546806  0.000000  -0.639941
    O   O60   0.084702  0.453194  0.000000  -0.617885
    O   O61   0.000000  0.546806  0.084702  -0.637312
    O   O62   0.000000  0.453194  0.084702  -0.615605
    O   O63   0.953194  0.415298  0.500000  -0.636089
    O   O64   0.000000  0.915298  0.546806  -0.680949
    O   O65   0.000000  0.915298  0.453194  -0.621381
    O   O66   0.915298  0.000000  0.546806  -0.621382
    O   O67   0.915298  0.000000  0.453194  -0.680948
    O   O68   0.000000  0.084702  0.546806  -0.674157
    O   O69   0.000000  0.084702  0.453194  -0.615127
    O   O70   0.084702  0.000000  0.546806  -0.615128
    O   O71   0.084702  0.000000  0.453194  -0.674157
    O   O72   0.046806  0.500000  0.584702  -0.667792
