# generated using pymatgen
data_TiH3C4NO3
_symmetry_space_group_name_H-M   'P 1'
_cell_length_a   20.68130000
_cell_length_b   20.68130000
_cell_length_c   20.68130000
_cell_angle_alpha   90.00000000
_cell_angle_beta   90.00000000
_cell_angle_gamma   90.00000000
_symmetry_Int_Tables_number   1
_chemical_formula_structural   TiH3C4NO3
_chemical_formula_sum   'Ti24 H72 C96 N24 O72'
_cell_volume   8845.72642021
_cell_formula_units_Z   24
loop_
 _symmetry_equiv_pos_site_id
 _symmetry_equiv_pos_as_xyz
  1  'x, y, z'
loop_
 _atom_site_type_symbol
 _atom_site_label
 _atom_site_symmetry_multiplicity
 _atom_site_fract_x
 _atom_site_fract_y
 _atom_site_fract_z
 _atom_site_occupancy
  Ti  Ti1  1  0.99466600  0.99433200  0.11274200  1
  Ti  Ti2  1  0.00533300  0.00566800  0.88726000  1
  Ti  Ti3  1  0.88767300  0.00663700  0.00897800  1
  Ti  Ti4  1  0.11232800  0.99336300  0.99102100  1
  Ti  Ti5  1  0.00747200  0.88737800  0.00873300  1
  Ti  Ti6  1  0.99252900  0.11262100  0.99126600  1
  Ti  Ti7  1  0.50533400  0.50566800  0.11274200  1
  Ti  Ti8  1  0.49466700  0.49433200  0.88726000  1
  Ti  Ti9  1  0.61232700  0.49336300  0.00897800  1
  Ti  Ti10  1  0.38767200  0.50663700  0.99102100  1
  Ti  Ti11  1  0.49252800  0.61262200  0.00873300  1
  Ti  Ti12  1  0.50747100  0.38737900  0.99126600  1
  Ti  Ti13  1  0.50533400  0.99433200  0.38725800  1
  Ti  Ti14  1  0.49466700  0.00566800  0.61274000  1
  Ti  Ti15  1  0.61232700  0.00663700  0.49102200  1
  Ti  Ti16  1  0.38767200  0.99336300  0.50897900  1
  Ti  Ti17  1  0.49252800  0.88737800  0.49126700  1
  Ti  Ti18  1  0.50747100  0.11262100  0.50873400  1
  Ti  Ti19  1  0.99466600  0.50566800  0.38725800  1
  Ti  Ti20  1  0.00533300  0.49433200  0.61274000  1
  Ti  Ti21  1  0.88767300  0.49336300  0.49102200  1
  Ti  Ti22  1  0.11232800  0.50663700  0.50897900  1
  Ti  Ti23  1  0.00747200  0.61262200  0.49126700  1
  Ti  Ti24  1  0.99252900  0.38737900  0.50873400  1
  H  H1  1  0.79474600  0.10445500  0.21484400  1
  H  H2  1  0.72266000  0.09955200  0.30963000  1
  H  H3  1  0.70848300  0.83556200  0.25126300  1
  H  H4  1  0.65319300  0.81277100  0.34680700  1
  H  H5  1  0.65729600  0.88149200  0.36929200  1
  H  H6  1  0.63506900  0.87286200  0.25397900  1
  H  H7  1  0.70525400  0.39554500  0.21484400  1
  H  H8  1  0.77734000  0.40044800  0.30963000  1
  H  H9  1  0.79151700  0.66443800  0.25126300  1
  H  H10  1  0.84680700  0.68722900  0.34680700  1
  H  H11  1  0.84270400  0.61850800  0.36929200  1
  H  H12  1  0.86493100  0.62713800  0.25397900  1
  H  H13  1  0.21484400  0.79474600  0.10445500  1
  H  H14  1  0.30963000  0.72266000  0.09955200  1
  H  H15  1  0.25126300  0.70848300  0.83556200  1
  H  H16  1  0.34680700  0.65319300  0.81277100  1
  H  H17  1  0.36929200  0.65729600  0.88149200  1
  H  H18  1  0.25397900  0.63506900  0.87286200  1
  H  H19  1  0.21484400  0.70525400  0.39554500  1
  H  H20  1  0.30963000  0.77734000  0.40044800  1
  H  H21  1  0.25126300  0.79151700  0.66443800  1
  H  H22  1  0.34680700  0.84680700  0.68722900  1
  H  H23  1  0.36929200  0.84270400  0.61850800  1
  H  H24  1  0.25397900  0.86493100  0.62713800  1
  H  H25  1  0.10445500  0.21484400  0.79474600  1
  H  H26  1  0.09955200  0.30963000  0.72266000  1
  H  H27  1  0.83556200  0.25126300  0.70848300  1
  H  H28  1  0.81277100  0.34680700  0.65319300  1
  H  H29  1  0.88149200  0.36929200  0.65729600  1
  H  H30  1  0.87286200  0.25397900  0.63506900  1
  H  H31  1  0.39554500  0.21484400  0.70525400  1
  H  H32  1  0.40044800  0.30963000  0.77734000  1
  H  H33  1  0.66443800  0.25126300  0.79151700  1
  H  H34  1  0.68722900  0.34680700  0.84680700  1
  H  H35  1  0.61850800  0.36929200  0.84270400  1
  H  H36  1  0.62713800  0.25397900  0.86493100  1
  H  H37  1  0.20525400  0.89554500  0.78515600  1
  H  H38  1  0.27734000  0.90044800  0.69037000  1
  H  H39  1  0.29151700  0.16443800  0.74873700  1
  H  H40  1  0.34680700  0.18722900  0.65319300  1
  H  H41  1  0.34270400  0.11850800  0.63070800  1
  H  H42  1  0.36493100  0.12713800  0.74602100  1
  H  H43  1  0.29474600  0.60445500  0.78515600  1
  H  H44  1  0.22266000  0.59955200  0.69037000  1
  H  H45  1  0.20848300  0.33556200  0.74873700  1
  H  H46  1  0.15319300  0.31277100  0.65319300  1
  H  H47  1  0.15729600  0.38149200  0.63070800  1
  H  H48  1  0.13506900  0.37286200  0.74602100  1
  H  H49  1  0.78515600  0.20525400  0.89554500  1
  H  H50  1  0.69037000  0.27734000  0.90044800  1
  H  H51  1  0.74873700  0.29151700  0.16443800  1
  H  H52  1  0.65319300  0.34680700  0.18722900  1
  H  H53  1  0.63070800  0.34270400  0.11850800  1
  H  H54  1  0.74602100  0.36493100  0.12713800  1
  H  H55  1  0.78515600  0.29474600  0.60445500  1
  H  H56  1  0.69037000  0.22266000  0.59955200  1
  H  H57  1  0.74873700  0.20848300  0.33556200  1
  H  H58  1  0.65319300  0.15319300  0.31277100  1
  H  H59  1  0.63070800  0.15729600  0.38149200  1
  H  H60  1  0.74602100  0.13506900  0.37286200  1
  H  H61  1  0.89554500  0.78515600  0.20525400  1
  H  H62  1  0.90044800  0.69037000  0.27734000  1
  H  H63  1  0.16443800  0.74873700  0.29151700  1
  H  H64  1  0.18722900  0.65319300  0.34680700  1
  H  H65  1  0.11850800  0.63070800  0.34270400  1
  H  H66  1  0.12713800  0.74602100  0.36493100  1
  H  H67  1  0.60445500  0.78515600  0.29474600  1
  H  H68  1  0.59955200  0.69037000  0.22266000  1
  H  H69  1  0.33556200  0.74873700  0.20848300  1
  H  H70  1  0.31277100  0.65319300  0.15319300  1
  H  H71  1  0.38149200  0.63070800  0.15729600  1
  H  H72  1  0.37286200  0.74602100  0.13506900  1
  C  C1  1  0.85027000  0.99782500  0.14694100  1
  C  C2  1  0.14973000  0.00217500  0.85305900  1
  C  C3  1  0.00093400  0.85347100  0.15055900  1
  C  C4  1  0.99906700  0.14652900  0.84943900  1
  C  C5  1  0.85326000  0.14984800  0.00185700  1
  C  C6  1  0.14673800  0.85015300  0.99814500  1
  C  C7  1  0.64973000  0.50217500  0.14694100  1
  C  C8  1  0.35027000  0.49782500  0.85305900  1
  C  C9  1  0.49906600  0.64652900  0.15055900  1
  C  C10  1  0.50093300  0.35347100  0.84943900  1
  C  C11  1  0.64674000  0.35015200  0.00185700  1
  C  C12  1  0.35326200  0.64984700  0.99814500  1
  C  C13  1  0.64973000  0.99782500  0.35305900  1
  C  C14  1  0.35027000  0.00217500  0.64694100  1
  C  C15  1  0.49906600  0.85347100  0.34944100  1
  C  C16  1  0.50093300  0.14652900  0.65056100  1
  C  C17  1  0.64674000  0.14984800  0.49814300  1
  C  C18  1  0.35326200  0.85015300  0.50185500  1
  C  C19  1  0.85027000  0.50217500  0.35305900  1
  C  C20  1  0.14973000  0.49782500  0.64694100  1
  C  C21  1  0.00093400  0.64652900  0.34944100  1
  C  C22  1  0.99906700  0.35347100  0.65056100  1
  C  C23  1  0.85326000  0.35015200  0.49814300  1
  C  C24  1  0.14673800  0.64984700  0.50185500  1
  C  C25  1  0.70456000  0.99686900  0.30252400  1
  C  C26  1  0.72058900  0.94215900  0.26812800  1
  C  C27  1  0.80083000  0.00285500  0.20462100  1
  C  C28  1  0.78677700  0.06045900  0.23946800  1
  C  C29  1  0.73801600  0.05495800  0.28757400  1
  C  C30  1  0.68423100  0.87494300  0.27669900  1
  C  C31  1  0.79544000  0.50313100  0.30252400  1
  C  C32  1  0.77941100  0.55784100  0.26812800  1
  C  C33  1  0.69917000  0.49714500  0.20462100  1
  C  C34  1  0.71322300  0.43954100  0.23946800  1
  C  C35  1  0.76198400  0.44504200  0.28757400  1
  C  C36  1  0.81576900  0.62505700  0.27669900  1
  C  C37  1  0.30252400  0.70456000  0.99686900  1
  C  C38  1  0.26812800  0.72058900  0.94215900  1
  C  C39  1  0.20462100  0.80083000  0.00285500  1
  C  C40  1  0.23946800  0.78677700  0.06045900  1
  C  C41  1  0.28757400  0.73801600  0.05495800  1
  C  C42  1  0.27669900  0.68423100  0.87494300  1
  C  C43  1  0.30252400  0.79544000  0.50313100  1
  C  C44  1  0.26812800  0.77941100  0.55784100  1
  C  C45  1  0.20462100  0.69917000  0.49714500  1
  C  C46  1  0.23946800  0.71322300  0.43954100  1
  C  C47  1  0.28757400  0.76198400  0.44504200  1
  C  C48  1  0.27669900  0.81576900  0.62505700  1
  C  C49  1  0.99686900  0.30252400  0.70456000  1
  C  C50  1  0.94215900  0.26812800  0.72058900  1
  C  C51  1  0.00285500  0.20462100  0.80083000  1
  C  C52  1  0.06045900  0.23946800  0.78677700  1
  C  C53  1  0.05495800  0.28757400  0.73801600  1
  C  C54  1  0.87494300  0.27669900  0.68423100  1
  C  C55  1  0.50313100  0.30252400  0.79544000  1
  C  C56  1  0.55784100  0.26812800  0.77941100  1
  C  C57  1  0.49714500  0.20462100  0.69917000  1
  C  C58  1  0.43954100  0.23946800  0.71322300  1
  C  C59  1  0.44504200  0.28757400  0.76198400  1
  C  C60  1  0.62505700  0.27669900  0.81576900  1
  C  C61  1  0.29544000  0.00313100  0.69747600  1
  C  C62  1  0.27941100  0.05784100  0.73187200  1
  C  C63  1  0.19917000  0.99714500  0.79537900  1
  C  C64  1  0.21322300  0.93954100  0.76053200  1
  C  C65  1  0.26198400  0.94504200  0.71242600  1
  C  C66  1  0.31576900  0.12505700  0.72330100  1
  C  C67  1  0.20456000  0.49686900  0.69747600  1
  C  C68  1  0.22058900  0.44215900  0.73187200  1
  C  C69  1  0.30083000  0.50285500  0.79537900  1
  C  C70  1  0.28677700  0.56045900  0.76053200  1
  C  C71  1  0.23801600  0.55495800  0.71242600  1
  C  C72  1  0.18423100  0.37494300  0.72330100  1
  C  C73  1  0.69747600  0.29544000  0.00313100  1
  C  C74  1  0.73187200  0.27941100  0.05784100  1
  C  C75  1  0.79537900  0.19917000  0.99714500  1
  C  C76  1  0.76053200  0.21322300  0.93954100  1
  C  C77  1  0.71242600  0.26198400  0.94504200  1
  C  C78  1  0.72330100  0.31576900  0.12505700  1
  C  C79  1  0.69747600  0.20456000  0.49686900  1
  C  C80  1  0.73187200  0.22058900  0.44215900  1
  C  C81  1  0.79537900  0.30083000  0.50285500  1
  C  C82  1  0.76053200  0.28677700  0.56045900  1
  C  C83  1  0.71242600  0.23801600  0.55495800  1
  C  C84  1  0.72330100  0.18423100  0.37494300  1
  C  C85  1  0.00313100  0.69747600  0.29544000  1
  C  C86  1  0.05784100  0.73187200  0.27941100  1
  C  C87  1  0.99714500  0.79537900  0.19917000  1
  C  C88  1  0.93954100  0.76053200  0.21322300  1
  C  C89  1  0.94504200  0.71242600  0.26198400  1
  C  C90  1  0.12505700  0.72330100  0.31576900  1
  C  C91  1  0.49686900  0.69747600  0.20456000  1
  C  C92  1  0.44215900  0.73187200  0.22058900  1
  C  C93  1  0.50285500  0.79537900  0.30083000  1
  C  C94  1  0.56045900  0.76053200  0.28677700  1
  C  C95  1  0.55495800  0.71242600  0.23801600  1
  C  C96  1  0.37494300  0.72330100  0.18423100  1
  N  N1  1  0.77008400  0.94585100  0.22042200  1
  N  N2  1  0.68575200  0.85161500  0.34519200  1
  N  N3  1  0.72991600  0.55414900  0.22042200  1
  N  N4  1  0.81424800  0.64838500  0.34519200  1
  N  N5  1  0.22042200  0.77008400  0.94585100  1
  N  N6  1  0.34519200  0.68575200  0.85161500  1
  N  N7  1  0.22042200  0.72991600  0.55414900  1
  N  N8  1  0.34519200  0.81424800  0.64838500  1
  N  N9  1  0.94585100  0.22042200  0.77008400  1
  N  N10  1  0.85161500  0.34519200  0.68575200  1
  N  N11  1  0.55414900  0.22042200  0.72991600  1
  N  N12  1  0.64838500  0.34519200  0.81424800  1
  N  N13  1  0.22991600  0.05414900  0.77957800  1
  N  N14  1  0.31424800  0.14838500  0.65480800  1
  N  N15  1  0.27008400  0.44585100  0.77957800  1
  N  N16  1  0.18575200  0.35161500  0.65480800  1
  N  N17  1  0.77957800  0.22991600  0.05414900  1
  N  N18  1  0.65480800  0.31424800  0.14838500  1
  N  N19  1  0.77957800  0.27008400  0.44585100  1
  N  N20  1  0.65480800  0.18575200  0.35161500  1
  N  N21  1  0.05414900  0.77957800  0.22991600  1
  N  N22  1  0.14838500  0.65480800  0.31424800  1
  N  N23  1  0.44585100  0.77957800  0.27008400  1
  N  N24  1  0.35161500  0.65480800  0.18575200  1
  O  O1  1  0.94012100  0.94025700  0.04369300  1
  O  O2  1  0.05988100  0.05974300  0.95630600  1
  O  O3  1  0.96017600  0.06157000  0.05917100  1
  O  O4  1  0.03982500  0.93842900  0.94082700  1
  O  O5  1  0.06103700  0.95977000  0.06075800  1
  O  O6  1  0.93896200  0.04023100  0.93924400  1
  O  O7  1  0.90880000  0.00189600  0.16647500  1
  O  O8  1  0.83140900  0.99892800  0.09014300  1
  O  O9  1  0.09120200  0.99810300  0.83352400  1
  O  O10  1  0.16859200  0.00107100  0.90985600  1
  O  O11  1  0.99715000  0.91253000  0.16830300  1
  O  O12  1  0.00433600  0.83553800  0.09385100  1
  O  O13  1  0.00284800  0.08747100  0.83169900  1
  O  O14  1  0.99566600  0.16446100  0.90614800  1
  O  O15  1  0.83452800  0.09090000  0.00577800  1
  O  O16  1  0.91127500  0.16623800  0.99760700  1
  O  O17  1  0.16547000  0.90910100  0.99422400  1
  O  O18  1  0.08872600  0.83376100  0.00239100  1
  O  O19  1  0.55987900  0.55974300  0.04369300  1
  O  O20  1  0.44011900  0.44025700  0.95630600  1
  O  O21  1  0.53982400  0.43843000  0.05917100  1
  O  O22  1  0.46017500  0.56157100  0.94082700  1
  O  O23  1  0.43896300  0.54023000  0.06075800  1
  O  O24  1  0.56103800  0.45976900  0.93924400  1
  O  O25  1  0.59120000  0.49810400  0.16647500  1
  O  O26  1  0.66859100  0.50107200  0.09014300  1
  O  O27  1  0.40879800  0.50189700  0.83352400  1
  O  O28  1  0.33140800  0.49892900  0.90985600  1
  O  O29  1  0.50285000  0.58747000  0.16830300  1
  O  O30  1  0.49566400  0.66446200  0.09385100  1
  O  O31  1  0.49715200  0.41252900  0.83169900  1
  O  O32  1  0.50433400  0.33553900  0.90614800  1
  O  O33  1  0.66547200  0.40910000  0.00577800  1
  O  O34  1  0.58872500  0.33376200  0.99760700  1
  O  O35  1  0.33453000  0.59089900  0.99422400  1
  O  O36  1  0.41127400  0.66623900  0.00239100  1
  O  O37  1  0.55987900  0.94025700  0.45630700  1
  O  O38  1  0.44011900  0.05974300  0.54369400  1
  O  O39  1  0.53982400  0.06157000  0.44082900  1
  O  O40  1  0.46017500  0.93842900  0.55917300  1
  O  O41  1  0.43896300  0.95977000  0.43924200  1
  O  O42  1  0.56103800  0.04023100  0.56075600  1
  O  O43  1  0.59120000  0.00189600  0.33352500  1
  O  O44  1  0.66859100  0.99892800  0.40985700  1
  O  O45  1  0.40879800  0.99810300  0.66647600  1
  O  O46  1  0.33140800  0.00107100  0.59014400  1
  O  O47  1  0.50285000  0.91253000  0.33169700  1
  O  O48  1  0.49566400  0.83553800  0.40614900  1
  O  O49  1  0.49715200  0.08747100  0.66830100  1
  O  O50  1  0.50433400  0.16446100  0.59385200  1
  O  O51  1  0.66547200  0.09090000  0.49422200  1
  O  O52  1  0.58872500  0.16623800  0.50239300  1
  O  O53  1  0.33453000  0.90910100  0.50577600  1
  O  O54  1  0.41127400  0.83376100  0.49760900  1
  O  O55  1  0.94012100  0.55974300  0.45630700  1
  O  O56  1  0.05988100  0.44025700  0.54369400  1
  O  O57  1  0.96017600  0.43843000  0.44082900  1
  O  O58  1  0.03982500  0.56157100  0.55917300  1
  O  O59  1  0.06103700  0.54023000  0.43924200  1
  O  O60  1  0.93896200  0.45976900  0.56075600  1
  O  O61  1  0.90880000  0.49810400  0.33352500  1
  O  O62  1  0.83140900  0.50107200  0.40985700  1
  O  O63  1  0.09120200  0.50189700  0.66647600  1
  O  O64  1  0.16859200  0.49892900  0.59014400  1
  O  O65  1  0.99715000  0.58747000  0.33169700  1
  O  O66  1  0.00433600  0.66446200  0.40614900  1
  O  O67  1  0.00284800  0.41252900  0.66830100  1
  O  O68  1  0.99566600  0.33553900  0.59385200  1
  O  O69  1  0.83452800  0.40910000  0.49422200  1
  O  O70  1  0.91127500  0.33376200  0.50239300  1
  O  O71  1  0.16547000  0.59089900  0.50577600  1
  O  O72  1  0.08872600  0.66623900  0.49760900  1
