# generated using pymatgen
data_CuH8C15BrNO6
_symmetry_space_group_name_H-M   'P 1'
_cell_length_a   22.30440000
_cell_length_b   22.30440000
_cell_length_c   22.30440000
_cell_angle_alpha   90.00000000
_cell_angle_beta   90.00000000
_cell_angle_gamma   90.00000000
_symmetry_Int_Tables_number   1
_chemical_formula_structural   CuH8C15BrNO6
_chemical_formula_sum   'Cu12 H96 C180 Br12 N12 O72'
_cell_volume   11096.13252327
_cell_formula_units_Z   12
loop_
 _symmetry_equiv_pos_site_id
 _symmetry_equiv_pos_as_xyz
  1  'x, y, z'
loop_
 _atom_site_type_symbol
 _atom_site_label
 _atom_site_symmetry_multiplicity
 _atom_site_fract_x
 _atom_site_fract_y
 _atom_site_fract_z
 _atom_site_occupancy
  Cu  Cu1  1  0.94047600  0.50000000  0.50000000  1
  Cu  Cu2  1  0.05952400  0.50000000  0.50000000  1
  Cu  Cu3  1  0.50000000  0.94047600  0.50000000  1
  Cu  Cu4  1  0.50000000  0.05952400  0.50000000  1
  Cu  Cu5  1  0.50000000  0.50000000  0.94047600  1
  Cu  Cu6  1  0.50000000  0.50000000  0.05952400  1
  Cu  Cu7  1  0.44047600  0.00000000  0.00000000  1
  Cu  Cu8  1  0.55952400  0.00000000  0.00000000  1
  Cu  Cu9  1  0.00000000  0.44047600  0.00000000  1
  Cu  Cu10  1  0.00000000  0.55952400  0.00000000  1
  Cu  Cu11  1  0.00000000  0.00000000  0.44047600  1
  Cu  Cu12  1  0.00000000  0.00000000  0.55952400  1
  H  H1  1  0.10920800  0.43199100  0.60187100  1
  H  H2  1  0.16365800  0.35564200  0.56010900  1
  H  H3  1  0.12716400  0.24856900  0.71654400  1
  H  H4  1  0.05639900  0.32778000  0.75128500  1
  H  H5  1  0.17171500  0.20514300  0.61650800  1
  H  H6  1  0.19996000  0.25595000  0.56237500  1
  H  H7  1  0.27147600  0.28828200  0.63757700  1
  H  H8  1  0.23892400  0.24790500  0.68994000  1
  H  H9  1  0.39812900  0.89079200  0.43199100  1
  H  H10  1  0.43989100  0.83634200  0.35564200  1
  H  H11  1  0.28345600  0.87283600  0.24856900  1
  H  H12  1  0.24871500  0.94360100  0.32778000  1
  H  H13  1  0.38349200  0.82828500  0.20514300  1
  H  H14  1  0.43762500  0.80004000  0.25595000  1
  H  H15  1  0.36242300  0.72852400  0.28828200  1
  H  H16  1  0.31006000  0.76107600  0.24790500  1
  H  H17  1  0.60187100  0.10920800  0.43199100  1
  H  H18  1  0.56010900  0.16365800  0.35564200  1
  H  H19  1  0.71654400  0.12716400  0.24856900  1
  H  H20  1  0.75128500  0.05639900  0.32778000  1
  H  H21  1  0.61650800  0.17171500  0.20514300  1
  H  H22  1  0.56237500  0.19996000  0.25595000  1
  H  H23  1  0.63757700  0.27147600  0.28828200  1
  H  H24  1  0.68994000  0.23892400  0.24790500  1
  H  H25  1  0.43199100  0.39812900  0.89079200  1
  H  H26  1  0.35564200  0.43989100  0.83634200  1
  H  H27  1  0.24856900  0.28345600  0.87283600  1
  H  H28  1  0.32778000  0.24871500  0.94360100  1
  H  H29  1  0.20514300  0.38349200  0.82828500  1
  H  H30  1  0.25595000  0.43762500  0.80004000  1
  H  H31  1  0.28828200  0.36242300  0.72852400  1
  H  H32  1  0.24790500  0.31006000  0.76107600  1
  H  H33  1  0.43199100  0.60187100  0.10920800  1
  H  H34  1  0.35564200  0.56010900  0.16365800  1
  H  H35  1  0.24856900  0.71654400  0.12716400  1
  H  H36  1  0.32778000  0.75128500  0.05639900  1
  H  H37  1  0.20514300  0.61650800  0.17171500  1
  H  H38  1  0.25595000  0.56237500  0.19996000  1
  H  H39  1  0.28828200  0.63757700  0.27147600  1
  H  H40  1  0.24790500  0.68994000  0.23892400  1
  H  H41  1  0.43199100  0.89079200  0.60187100  1
  H  H42  1  0.35564200  0.83634200  0.56010900  1
  H  H43  1  0.24856900  0.87283600  0.71654400  1
  H  H44  1  0.32778000  0.94360100  0.75128500  1
  H  H45  1  0.20514300  0.82828500  0.61650800  1
  H  H46  1  0.25595000  0.80004000  0.56237500  1
  H  H47  1  0.28828200  0.72852400  0.63757700  1
  H  H48  1  0.24790500  0.76107600  0.68994000  1
  H  H49  1  0.43199100  0.10920800  0.39812900  1
  H  H50  1  0.35564200  0.16365800  0.43989100  1
  H  H51  1  0.24856900  0.12716400  0.28345600  1
  H  H52  1  0.32778000  0.05639900  0.24871500  1
  H  H53  1  0.20514300  0.17171500  0.38349200  1
  H  H54  1  0.25595000  0.19996000  0.43762500  1
  H  H55  1  0.28828200  0.27147600  0.36242300  1
  H  H56  1  0.24790500  0.23892400  0.31006000  1
  H  H57  1  0.89079200  0.39812900  0.56800900  1
  H  H58  1  0.83634200  0.43989100  0.64435800  1
  H  H59  1  0.87283600  0.28345600  0.75143100  1
  H  H60  1  0.94360100  0.24871500  0.67222000  1
  H  H61  1  0.82828500  0.38349200  0.79485700  1
  H  H62  1  0.80004000  0.43762500  0.74405000  1
  H  H63  1  0.72852400  0.36242300  0.71171800  1
  H  H64  1  0.76107600  0.31006000  0.75209500  1
  H  H65  1  0.10920800  0.60187100  0.56800900  1
  H  H66  1  0.16365800  0.56010900  0.64435800  1
  H  H67  1  0.12716400  0.71654400  0.75143100  1
  H  H68  1  0.05639900  0.75128500  0.67222000  1
  H  H69  1  0.17171500  0.61650800  0.79485700  1
  H  H70  1  0.19996000  0.56237500  0.74405000  1
  H  H71  1  0.27147600  0.63757700  0.71171800  1
  H  H72  1  0.23892400  0.68994000  0.75209500  1
  H  H73  1  0.39812900  0.43199100  0.10920800  1
  H  H74  1  0.43989100  0.35564200  0.16365800  1
  H  H75  1  0.28345600  0.24856900  0.12716400  1
  H  H76  1  0.24871500  0.32778000  0.05639900  1
  H  H77  1  0.38349200  0.20514300  0.17171500  1
  H  H78  1  0.43762500  0.25595000  0.19996000  1
  H  H79  1  0.36242300  0.28828200  0.27147600  1
  H  H80  1  0.31006000  0.24790500  0.23892400  1
  H  H81  1  0.60187100  0.43199100  0.89079200  1
  H  H82  1  0.56010900  0.35564200  0.83634200  1
  H  H83  1  0.71654400  0.24856900  0.87283600  1
  H  H84  1  0.75128500  0.32778000  0.94360100  1
  H  H85  1  0.61650800  0.20514300  0.82828500  1
  H  H86  1  0.56237500  0.25595000  0.80004000  1
  H  H87  1  0.63757700  0.28828200  0.72852400  1
  H  H88  1  0.68994000  0.24790500  0.76107600  1
  H  H89  1  0.89079200  0.43199100  0.39812900  1
  H  H90  1  0.83634200  0.35564200  0.43989100  1
  H  H91  1  0.87283600  0.24856900  0.28345600  1
  H  H92  1  0.94360100  0.32778000  0.24871500  1
  H  H93  1  0.82828500  0.20514300  0.38349200  1
  H  H94  1  0.80004000  0.25595000  0.43762500  1
  H  H95  1  0.72852400  0.28828200  0.36242300  1
  H  H96  1  0.76107600  0.24790500  0.31006000  1
  C  C1  1  0.96621400  0.44617800  0.28977300  1
  C  C2  1  0.98986800  0.49154900  0.32030900  1
  C  C3  1  0.01656400  0.54367700  0.28317600  1
  C  C4  1  0.01364000  0.55126200  0.21529200  1
  C  C5  1  0.99401200  0.50294800  0.18113300  1
  C  C6  1  0.97114800  0.45138800  0.21816800  1
  C  C7  1  0.07440100  0.39120100  0.68012400  1
  C  C8  1  0.00000000  0.61307000  0.50000000  1
  C  C9  1  0.10501200  0.39291600  0.62749000  1
  C  C10  1  0.14152200  0.34623600  0.60334400  1
  C  C11  1  0.14911800  0.29295100  0.63386900  1
  C  C12  1  0.11908900  0.28836900  0.69073800  1
  C  C13  1  0.08066400  0.33541500  0.71079400  1
  C  C14  1  0.19318000  0.24807600  0.61119300  1
  C  C15  1  0.03378600  0.44617800  0.71022700  1
  C  C16  1  0.01013200  0.49154900  0.67969100  1
  C  C17  1  0.98343600  0.54367700  0.71682400  1
  C  C18  1  0.98636000  0.55126200  0.78470800  1
  C  C19  1  0.00598800  0.50294800  0.81886700  1
  C  C20  1  0.02885200  0.45138800  0.78183200  1
  C  C21  1  0.31987600  0.92559900  0.39120100  1
  C  C22  1  0.37251000  0.89498800  0.39291600  1
  C  C23  1  0.39665600  0.85847800  0.34623600  1
  C  C24  1  0.36613100  0.85088200  0.29295100  1
  C  C25  1  0.30926200  0.88091100  0.28836900  1
  C  C26  1  0.28920600  0.91933600  0.33541500  1
  C  C27  1  0.38880700  0.80682000  0.24807600  1
  C  C28  1  0.28977300  0.96621400  0.44617800  1
  C  C29  1  0.32030900  0.98986800  0.49154900  1
  C  C30  1  0.28317600  0.01656400  0.54367700  1
  C  C31  1  0.21529200  0.01364000  0.55126200  1
  C  C32  1  0.18113300  0.99401200  0.50294800  1
  C  C33  1  0.21816800  0.97114800  0.45138800  1
  C  C34  1  0.68012400  0.07440100  0.39120100  1
  C  C35  1  0.38693000  0.00000000  0.50000000  1
  C  C36  1  0.62749000  0.10501200  0.39291600  1
  C  C37  1  0.60334400  0.14152200  0.34623600  1
  C  C38  1  0.63386900  0.14911800  0.29295100  1
  C  C39  1  0.69073800  0.11908900  0.28836900  1
  C  C40  1  0.71079400  0.08066400  0.33541500  1
  C  C41  1  0.61119300  0.19318000  0.24807600  1
  C  C42  1  0.71022700  0.03378600  0.44617800  1
  C  C43  1  0.67969100  0.01013200  0.49154900  1
  C  C44  1  0.71682400  0.98343600  0.54367700  1
  C  C45  1  0.78470800  0.98636000  0.55126200  1
  C  C46  1  0.81886700  0.00598800  0.50294800  1
  C  C47  1  0.78183200  0.02885200  0.45138800  1
  C  C48  1  0.39120100  0.31987600  0.92559900  1
  C  C49  1  0.39291600  0.37251000  0.89498800  1
  C  C50  1  0.34623600  0.39665600  0.85847800  1
  C  C51  1  0.29295100  0.36613100  0.85088200  1
  C  C52  1  0.28836900  0.30926200  0.88091100  1
  C  C53  1  0.33541500  0.28920600  0.91933600  1
  C  C54  1  0.50000000  0.00000000  0.38693000  1
  C  C55  1  0.24807600  0.38880700  0.80682000  1
  C  C56  1  0.00000000  0.50000000  0.38693000  1
  C  C57  1  0.44617800  0.28977300  0.96621400  1
  C  C58  1  0.49154900  0.32030900  0.98986800  1
  C  C59  1  0.54367700  0.28317600  0.01656400  1
  C  C60  1  0.55126200  0.21529200  0.01364000  1
  C  C61  1  0.50294800  0.18113300  0.99401200  1
  C  C62  1  0.45138800  0.21816800  0.97114800  1
  C  C63  1  0.39120100  0.68012400  0.07440100  1
  C  C64  1  0.39291600  0.62749000  0.10501200  1
  C  C65  1  0.34623600  0.60334400  0.14152200  1
  C  C66  1  0.29295100  0.63386900  0.14911800  1
  C  C67  1  0.28836900  0.69073800  0.11908900  1
  C  C68  1  0.33541500  0.71079400  0.08066400  1
  C  C69  1  0.24807600  0.61119300  0.19318000  1
  C  C70  1  0.61307000  0.00000000  0.50000000  1
  C  C71  1  0.44617800  0.71022700  0.03378600  1
  C  C72  1  0.49154900  0.67969100  0.01013200  1
  C  C73  1  0.54367700  0.71682400  0.98343600  1
  C  C74  1  0.55126200  0.78470800  0.98636000  1
  C  C75  1  0.50294800  0.81886700  0.00598800  1
  C  C76  1  0.45138800  0.78183200  0.02885200  1
  C  C77  1  0.39120100  0.92559900  0.68012400  1
  C  C78  1  0.39291600  0.89498800  0.62749000  1
  C  C79  1  0.34623600  0.85847800  0.60334400  1
  C  C80  1  0.29295100  0.85088200  0.63386900  1
  C  C81  1  0.28836900  0.88091100  0.69073800  1
  C  C82  1  0.33541500  0.91933600  0.71079400  1
  C  C83  1  0.24807600  0.80682000  0.61119300  1
  C  C84  1  0.50000000  0.00000000  0.61307000  1
  C  C85  1  0.44617800  0.96621400  0.71022700  1
  C  C86  1  0.49154900  0.98986800  0.67969100  1
  C  C87  1  0.54367700  0.01656400  0.71682400  1
  C  C88  1  0.55126200  0.01364000  0.78470800  1
  C  C89  1  0.50294800  0.99401200  0.81886700  1
  C  C90  1  0.45138800  0.97114800  0.78183200  1
  C  C91  1  0.39120100  0.07440100  0.31987600  1
  C  C92  1  0.39291600  0.10501200  0.37251000  1
  C  C93  1  0.34623600  0.14152200  0.39665600  1
  C  C94  1  0.29295100  0.14911800  0.36613100  1
  C  C95  1  0.28836900  0.11908900  0.30926200  1
  C  C96  1  0.33541500  0.08066400  0.28920600  1
  C  C97  1  0.24807600  0.19318000  0.38880700  1
  C  C98  1  0.44617800  0.03378600  0.28977300  1
  C  C99  1  0.49154900  0.01013200  0.32030900  1
  C  C100  1  0.54367700  0.98343600  0.28317600  1
  C  C101  1  0.55126200  0.98636000  0.21529200  1
  C  C102  1  0.50294800  0.00598800  0.18113300  1
  C  C103  1  0.45138800  0.02885200  0.21816800  1
  C  C104  1  0.92559900  0.31987600  0.60879900  1
  C  C105  1  0.89498800  0.37251000  0.60708400  1
  C  C106  1  0.85847800  0.39665600  0.65376400  1
  C  C107  1  0.85088200  0.36613100  0.70704900  1
  C  C108  1  0.88091100  0.30926200  0.71163100  1
  C  C109  1  0.91933600  0.28920600  0.66458500  1
  C  C110  1  0.80682000  0.38880700  0.75192400  1
  C  C111  1  0.50000000  0.38693000  0.00000000  1
  C  C112  1  0.96621400  0.28977300  0.55382200  1
  C  C113  1  0.98986800  0.32030900  0.50845100  1
  C  C114  1  0.01656400  0.28317600  0.45632300  1
  C  C115  1  0.01364000  0.21529200  0.44873800  1
  C  C116  1  0.99401200  0.18113300  0.49705200  1
  C  C117  1  0.97114800  0.21816800  0.54861200  1
  C  C118  1  0.07440100  0.68012400  0.60879900  1
  C  C119  1  0.10501200  0.62749000  0.60708400  1
  C  C120  1  0.14152200  0.60334400  0.65376400  1
  C  C121  1  0.14911800  0.63386900  0.70704900  1
  C  C122  1  0.11908900  0.69073800  0.71163100  1
  C  C123  1  0.08066400  0.71079400  0.66458500  1
  C  C124  1  0.19318000  0.61119300  0.75192400  1
  C  C125  1  0.03378600  0.71022700  0.55382200  1
  C  C126  1  0.01013200  0.67969100  0.50845100  1
  C  C127  1  0.98343600  0.71682400  0.45632300  1
  C  C128  1  0.98636000  0.78470800  0.44873800  1
  C  C129  1  0.38693000  0.50000000  0.00000000  1
  C  C130  1  0.00598800  0.81886700  0.49705200  1
  C  C131  1  0.02885200  0.78183200  0.54861200  1
  C  C132  1  0.31987600  0.39120100  0.07440100  1
  C  C133  1  0.37251000  0.39291600  0.10501200  1
  C  C134  1  0.39665600  0.34623600  0.14152200  1
  C  C135  1  0.36613100  0.29295100  0.14911800  1
  C  C136  1  0.30926200  0.28836900  0.11908900  1
  C  C137  1  0.28920600  0.33541500  0.08066400  1
  C  C138  1  0.38880700  0.24807600  0.19318000  1
  C  C139  1  0.28977300  0.44617800  0.03378600  1
  C  C140  1  0.32030900  0.49154900  0.01013200  1
  C  C141  1  0.28317600  0.54367700  0.98343600  1
  C  C142  1  0.21529200  0.55126200  0.98636000  1
  C  C143  1  0.18113300  0.50294800  0.00598800  1
  C  C144  1  0.21816800  0.45138800  0.02885200  1
  C  C145  1  0.68012400  0.39120100  0.92559900  1
  C  C146  1  0.50000000  0.61307000  0.00000000  1
  C  C147  1  0.62749000  0.39291600  0.89498800  1
  C  C148  1  0.60334400  0.34623600  0.85847800  1
  C  C149  1  0.63386900  0.29295100  0.85088200  1
  C  C150  1  0.69073800  0.28836900  0.88091100  1
  C  C151  1  0.71079400  0.33541500  0.91933600  1
  C  C152  1  0.61119300  0.24807600  0.80682000  1
  C  C153  1  0.71022700  0.44617800  0.96621400  1
  C  C154  1  0.67969100  0.49154900  0.98986800  1
  C  C155  1  0.71682400  0.54367700  0.01656400  1
  C  C156  1  0.78470800  0.55126200  0.01364000  1
  C  C157  1  0.81886700  0.50294800  0.99401200  1
  C  C158  1  0.78183200  0.45138800  0.97114800  1
  C  C159  1  0.61307000  0.50000000  0.00000000  1
  C  C160  1  0.50000000  0.00000000  0.88693000  1
  C  C161  1  0.50000000  0.88693000  0.00000000  1
  C  C162  1  0.00000000  0.38693000  0.50000000  1
  C  C163  1  0.50000000  0.00000000  0.11307000  1
  C  C164  1  0.50000000  0.11307000  0.00000000  1
  C  C165  1  0.88693000  0.50000000  0.00000000  1
  C  C166  1  0.00000000  0.50000000  0.88693000  1
  C  C167  1  0.11307000  0.50000000  0.00000000  1
  C  C168  1  0.00000000  0.50000000  0.11307000  1
  C  C169  1  0.00000000  0.88693000  0.50000000  1
  C  C170  1  0.88693000  0.00000000  0.50000000  1
  C  C171  1  0.00000000  0.11307000  0.50000000  1
  C  C172  1  0.00000000  0.50000000  0.61307000  1
  C  C173  1  0.11307000  0.00000000  0.50000000  1
  C  C174  1  0.92559900  0.39120100  0.31987600  1
  C  C175  1  0.89498800  0.39291600  0.37251000  1
  C  C176  1  0.85847800  0.34623600  0.39665600  1
  C  C177  1  0.85088200  0.29295100  0.36613100  1
  C  C178  1  0.88091100  0.28836900  0.30926200  1
  C  C179  1  0.91933600  0.33541500  0.28920600  1
  C  C180  1  0.80682000  0.24807600  0.38880700  1
  Br  Br1  1  0.05135400  0.62176600  0.18574600  1
  Br  Br2  1  0.94864600  0.62176600  0.81425400  1
  Br  Br3  1  0.18574600  0.05135400  0.62176600  1
  Br  Br4  1  0.81425400  0.94864600  0.62176600  1
  Br  Br5  1  0.62176600  0.18574600  0.05135400  1
  Br  Br6  1  0.62176600  0.81425400  0.94864600  1
  Br  Br7  1  0.62176600  0.05135400  0.81425400  1
  Br  Br8  1  0.62176600  0.94864600  0.18574600  1
  Br  Br9  1  0.05135400  0.18574600  0.37823400  1
  Br  Br10  1  0.94864600  0.81425400  0.37823400  1
  Br  Br11  1  0.18574600  0.62176600  0.94864600  1
  Br  Br12  1  0.81425400  0.62176600  0.05135400  1
  N  N1  1  0.25037100  0.24962900  0.64523700  1
  N  N2  1  0.35476300  0.74962900  0.24962900  1
  N  N3  1  0.64523700  0.25037100  0.24962900  1
  N  N4  1  0.24962900  0.35476300  0.74962900  1
  N  N5  1  0.24962900  0.64523700  0.25037100  1
  N  N6  1  0.24962900  0.74962900  0.64523700  1
  N  N7  1  0.24962900  0.25037100  0.35476300  1
  N  N8  1  0.74962900  0.35476300  0.75037100  1
  N  N9  1  0.25037100  0.64523700  0.75037100  1
  N  N10  1  0.35476300  0.24962900  0.25037100  1
  N  N11  1  0.64523700  0.24962900  0.74962900  1
  N  N12  1  0.74962900  0.24962900  0.35476300  1
  O  O1  1  0.95263000  0.50000000  0.58572100  1
  O  O2  1  0.03967900  0.58547300  0.31205300  1
  O  O3  1  0.95449300  0.41141100  0.18688400  1
  O  O4  1  0.04737000  0.58572100  0.50000000  1
  O  O5  1  0.96032100  0.58547300  0.68794700  1
  O  O6  1  0.95263000  0.58572100  0.50000000  1
  O  O7  1  0.04550700  0.41141100  0.81311600  1
  O  O8  1  0.31205300  0.03967900  0.58547300  1
  O  O9  1  0.18688400  0.95449300  0.41141100  1
  O  O10  1  0.41427900  0.04737000  0.50000000  1
  O  O11  1  0.68794700  0.96032100  0.58547300  1
  O  O12  1  0.41427900  0.95263000  0.50000000  1
  O  O13  1  0.81311600  0.04550700  0.41141100  1
  O  O14  1  0.50000000  0.04737000  0.41427900  1
  O  O15  1  0.58547300  0.31205300  0.03967900  1
  O  O16  1  0.41141100  0.18688400  0.95449300  1
  O  O17  1  0.50000000  0.95263000  0.41427900  1
  O  O18  1  0.58547300  0.68794700  0.96032100  1
  O  O19  1  0.58572100  0.04737000  0.50000000  1
  O  O20  1  0.41141100  0.81311600  0.04550700  1
  O  O21  1  0.58572100  0.95263000  0.50000000  1
  O  O22  1  0.58547300  0.03967900  0.68794700  1
  O  O23  1  0.41141100  0.95449300  0.81311600  1
  O  O24  1  0.50000000  0.04737000  0.58572100  1
  O  O25  1  0.50000000  0.95263000  0.58572100  1
  O  O26  1  0.58547300  0.96032100  0.31205300  1
  O  O27  1  0.41141100  0.04550700  0.18688400  1
  O  O28  1  0.04737000  0.50000000  0.41427900  1
  O  O29  1  0.03967900  0.31205300  0.41452700  1
  O  O30  1  0.95449300  0.18688400  0.58858900  1
  O  O31  1  0.50000000  0.41427900  0.04737000  1
  O  O32  1  0.50000000  0.41427900  0.95263000  1
  O  O33  1  0.96032100  0.68794700  0.41452700  1
  O  O34  1  0.04550700  0.81311600  0.58858900  1
  O  O35  1  0.41427900  0.50000000  0.04737000  1
  O  O36  1  0.41427900  0.50000000  0.95263000  1
  O  O37  1  0.31205300  0.58547300  0.96032100  1
  O  O38  1  0.18688400  0.41141100  0.04550700  1
  O  O39  1  0.50000000  0.58572100  0.04737000  1
  O  O40  1  0.68794700  0.58547300  0.03967900  1
  O  O41  1  0.50000000  0.58572100  0.95263000  1
  O  O42  1  0.81311600  0.41141100  0.95449300  1
  O  O43  1  0.95263000  0.50000000  0.41427900  1
  O  O44  1  0.58572100  0.50000000  0.04737000  1
  O  O45  1  0.58572100  0.50000000  0.95263000  1
  O  O46  1  0.54737000  0.00000000  0.91427900  1
  O  O47  1  0.45263000  0.00000000  0.91427900  1
  O  O48  1  0.54737000  0.91427900  0.00000000  1
  O  O49  1  0.45263000  0.91427900  0.00000000  1
  O  O50  1  0.54737000  0.00000000  0.08572100  1
  O  O51  1  0.45263000  0.00000000  0.08572100  1
  O  O52  1  0.54737000  0.08572100  0.00000000  1
  O  O53  1  0.45263000  0.08572100  0.00000000  1
  O  O54  1  0.91427900  0.54737000  0.00000000  1
  O  O55  1  0.04737000  0.41427900  0.50000000  1
  O  O56  1  0.91427900  0.45263000  0.00000000  1
  O  O57  1  0.00000000  0.54737000  0.91427900  1
  O  O58  1  0.00000000  0.45263000  0.91427900  1
  O  O59  1  0.08572100  0.54737000  0.00000000  1
  O  O60  1  0.08572100  0.45263000  0.00000000  1
  O  O61  1  0.00000000  0.54737000  0.08572100  1
  O  O62  1  0.00000000  0.45263000  0.08572100  1
  O  O63  1  0.95263000  0.41427900  0.50000000  1
  O  O64  1  0.00000000  0.91427900  0.54737000  1
  O  O65  1  0.00000000  0.91427900  0.45263000  1
  O  O66  1  0.91427900  0.00000000  0.54737000  1
  O  O67  1  0.91427900  0.00000000  0.45263000  1
  O  O68  1  0.00000000  0.08572100  0.54737000  1
  O  O69  1  0.00000000  0.08572100  0.45263000  1
  O  O70  1  0.08572100  0.00000000  0.54737000  1
  O  O71  1  0.08572100  0.00000000  0.45263000  1
  O  O72  1  0.04737000  0.50000000  0.58572100  1
