# Generated by REPEAT Assigner based on pymatgen
data_DB13-nbo-Syn031316
_audit_creation_date              2022-05-24
_audit_creation_method            REPEAT_Assigner
_cell_length_a                    26.755000
_cell_length_b                    26.755000
_cell_length_c                    26.755000
_cell_angle_alpha                 90.000000
_cell_angle_beta                  90.000000
_cell_angle_gamma                 90.000000
_cell_volume                      19152.032319
_symmetry_space_group_name_H-M    P1
_symmetry_Int_Tables_number       1
loop_
    _symmetry_equiv_pos_site_id
    _symmetry_equiv_pos_as_xyz
    1  x,y,z
loop_
    _atom_site_type_symbol
    _atom_site_label
    _atom_site_fract_x
    _atom_site_fract_y
    _atom_site_fract_z
    _atom_type_partial_charge
    C   C1    0.008493  0.489035  0.762681  0.705264
    C   C2    0.000000  0.594261  0.500000  0.956709
    C   C3    0.985525  0.505182  0.843685  0.482959
    C   C4    0.935192  0.530429  0.781215  0.609866
    C   C5    0.966537  0.511709  0.745051  -0.557649
    C   C6    0.964830  0.516665  0.688411  0.642665
    C   C7    0.003303  0.494660  0.652748  -0.424189
    C   C8    0.039875  0.472276  0.675952  0.019845
    C   C9    0.885689  0.554166  0.766917  -0.129775
    C   C10   0.088172  0.447445  0.752469  0.238091
    C   C11   0.086106  0.391900  0.763076  -0.185451
    C   C12   0.237319  0.991507  0.489035  0.734696
    C   C13   0.156315  0.014475  0.505182  0.523717
    C   C14   0.218785  0.064808  0.530429  0.599472
    C   C15   0.254949  0.033463  0.511709  -0.581709
    C   C16   0.311589  0.035170  0.516665  0.663749
    C   C17   0.347252  0.996697  0.494660  -0.448349
    C   C18   0.324048  0.960125  0.472276  0.021141
    C   C19   0.233083  0.114311  0.554166  -0.157573
    C   C20   0.247531  0.911828  0.447445  0.183788
    C   C21   0.236924  0.913894  0.391900  -0.168955
    C   C22   0.762681  0.008493  0.489035  0.736065
    C   C23   0.843685  0.985525  0.505182  0.528846
    C   C24   0.781215  0.935192  0.530429  0.594147
    C   C25   0.745051  0.966537  0.511709  -0.575902
    C   C26   0.405739  0.000000  0.500000  0.985806
    C   C27   0.688411  0.964830  0.516665  0.656296
    C   C28   0.652748  0.003303  0.494660  -0.417755
    C   C29   0.675952  0.039875  0.472276  0.015560
    C   C30   0.766917  0.885689  0.554166  -0.138530
    C   C31   0.752469  0.088172  0.447445  0.187831
    C   C32   0.763076  0.086106  0.391900  -0.165401
    C   C33   0.489035  0.237319  0.991507  0.697296
    C   C34   0.505182  0.156315  0.014475  0.478478
    C   C35   0.530429  0.218785  0.064808  0.614400
    C   C36   0.511709  0.254949  0.033463  -0.551357
    C   C37   0.516665  0.311589  0.035170  0.639329
    C   C38   0.494660  0.347252  0.996697  -0.423348
    C   C39   0.472276  0.324048  0.960125  0.014842
    C   C40   0.554166  0.233083  0.114311  -0.142841
    C   C41   0.447445  0.247531  0.911828  0.236758
    C   C42   0.391900  0.236924  0.913894  -0.190350
    C   C43   0.500000  0.000000  0.405739  0.958293
    C   C44   0.000000  0.500000  0.405739  0.926145
    C   C45   0.489035  0.762681  0.008493  0.703749
    C   C46   0.505182  0.843685  0.985525  0.483586
    C   C47   0.530429  0.781215  0.935192  0.613422
    C   C48   0.511709  0.745051  0.966537  -0.552448
    C   C49   0.516665  0.688411  0.964830  0.637338
    C   C50   0.494660  0.652748  0.003303  -0.399924
    C   C51   0.472276  0.675952  0.039875  0.018394
    C   C52   0.554166  0.766917  0.885689  -0.128905
    C   C53   0.447445  0.752469  0.088172  0.238500
    C   C54   0.391900  0.763076  0.086106  -0.189575
    C   C55   0.594261  0.000000  0.500000  0.956710
    C   C56   0.489035  0.991507  0.762681  0.692919
    C   C57   0.505182  0.014475  0.843685  0.480785
    C   C58   0.530429  0.064808  0.781215  0.618556
    C   C59   0.511709  0.033463  0.745051  -0.545855
    C   C60   0.516665  0.035170  0.688411  0.632321
    C   C61   0.494660  0.996697  0.652748  -0.386533
    C   C62   0.472276  0.960125  0.675952  0.010915
    C   C63   0.554166  0.114311  0.766917  -0.138120
    C   C64   0.447445  0.911828  0.752469  0.240010
    C   C65   0.391900  0.913894  0.763076  -0.192001
    C   C66   0.489035  0.008493  0.237319  0.705266
    C   C67   0.505182  0.985525  0.156315  0.482964
    C   C68   0.500000  0.000000  0.594261  0.926152
    C   C69   0.530429  0.935192  0.218785  0.609868
    C   C70   0.511709  0.966537  0.254949  -0.557652
    C   C71   0.516665  0.964830  0.311589  0.642664
    C   C72   0.494660  0.003303  0.347252  -0.424189
    C   C73   0.472276  0.039875  0.324048  0.019847
    C   C74   0.554166  0.885689  0.233083  -0.129774
    C   C75   0.447445  0.088172  0.247531  0.238096
    C   C76   0.391900  0.086106  0.236924  -0.185451
    C   C77   0.991507  0.237319  0.510965  0.734697
    C   C78   0.014475  0.156315  0.494818  0.523718
    C   C79   0.064808  0.218785  0.469571  0.599477
    C   C80   0.033463  0.254949  0.488291  -0.581716
    C   C81   0.035170  0.311589  0.483335  0.663759
    C   C82   0.996697  0.347252  0.505340  -0.448353
    C   C83   0.960125  0.324048  0.527724  0.021142
    C   C84   0.114311  0.233083  0.445834  -0.157574
    C   C85   0.911828  0.247531  0.552555  0.183789
    C   C86   0.913894  0.236924  0.608100  -0.168959
    C   C87   0.008493  0.762681  0.510965  0.736066
    C   C88   0.985525  0.843685  0.494818  0.528846
    C   C89   0.935192  0.781215  0.469571  0.594153
    C   C90   0.966537  0.745051  0.488291  -0.575909
    C   C91   0.964830  0.688411  0.483335  0.656306
    C   C92   0.500000  0.405739  0.000000  0.963184
    C   C93   0.003303  0.652748  0.505340  -0.417760
    C   C94   0.039875  0.675952  0.527724  0.015562
    C   C95   0.885689  0.766917  0.445834  -0.138531
    C   C96   0.088172  0.752469  0.552555  0.187836
    C   C97   0.086106  0.763076  0.608100  -0.165407
    C   C98   0.237319  0.489035  0.008493  0.697295
    C   C99   0.156315  0.505182  0.985525  0.478480
    C   C100  0.218785  0.530429  0.935192  0.614400
    C   C101  0.254949  0.511709  0.966537  -0.551357
    C   C102  0.311589  0.516665  0.964830  0.639334
    C   C103  0.347252  0.494660  0.003303  -0.423353
    C   C104  0.324048  0.472276  0.039875  0.014846
    C   C105  0.233083  0.554166  0.885689  -0.142839
    C   C106  0.247531  0.447445  0.088172  0.236756
    C   C107  0.236924  0.391900  0.086106  -0.190345
    C   C108  0.405739  0.500000  0.000000  0.963188
    C   C109  0.762681  0.489035  0.991507  0.703750
    C   C110  0.843685  0.505182  0.014475  0.483583
    C   C111  0.781215  0.530429  0.064808  0.613422
    C   C112  0.745051  0.511709  0.033463  -0.552448
    C   C113  0.688411  0.516665  0.035170  0.637334
    C   C114  0.652748  0.494660  0.996697  -0.399918
    C   C115  0.675952  0.472276  0.960125  0.018390
    C   C116  0.766917  0.554166  0.114311  -0.128907
    C   C117  0.752469  0.447445  0.911828  0.238502
    C   C118  0.763076  0.391900  0.913894  -0.189580
    C   C119  0.500000  0.594261  0.000000  0.936349
    C   C120  0.594261  0.500000  0.000000  0.936344
    C   C121  0.500000  0.000000  0.905739  0.817618
    C   C122  0.500000  0.905739  0.000000  0.817757
    C   C123  0.000000  0.405739  0.500000  0.985805
    C   C124  0.500000  0.000000  0.094261  0.816751
    C   C125  0.500000  0.094261  0.000000  0.818103
    C   C126  0.905739  0.500000  0.000000  0.817759
    C   C127  0.000000  0.500000  0.905739  0.816753
    C   C128  0.094261  0.500000  0.000000  0.818101
    C   C129  0.000000  0.500000  0.094261  0.817615
    C   C130  0.000000  0.905739  0.500000  0.814005
    C   C131  0.905739  0.000000  0.500000  0.814006
    C   C132  0.000000  0.094261  0.500000  0.814317
    C   C133  0.000000  0.500000  0.594261  0.958297
    C   C134  0.094261  0.000000  0.500000  0.814317
    C   C135  0.991507  0.489035  0.237319  0.692921
    C   C136  0.014475  0.505182  0.156315  0.480790
    C   C137  0.064808  0.530429  0.218785  0.618558
    C   C138  0.033463  0.511709  0.254949  -0.545858
    C   C139  0.035170  0.516665  0.311589  0.632319
    C   C140  0.996697  0.494660  0.347252  -0.386531
    C   C141  0.960125  0.472276  0.324048  0.010916
    C   C142  0.114311  0.554166  0.233083  -0.138118
    C   C143  0.911828  0.447445  0.247531  0.240014
    C   C144  0.913894  0.391900  0.236924  -0.192001
    Cl  Cl1   0.163223  0.504575  0.236401  -0.149603
    Cl  Cl2   0.836777  0.504575  0.763599  -0.153431
    Cl  Cl3   0.236401  0.163223  0.504575  -0.109413
    Cl  Cl4   0.763599  0.836777  0.504575  -0.108500
    Cl  Cl5   0.504575  0.236401  0.163223  -0.150847
    Cl  Cl6   0.504575  0.763599  0.836777  -0.151410
    Cl  Cl7   0.504575  0.163223  0.763599  -0.149603
    Cl  Cl8   0.504575  0.836777  0.236401  -0.153432
    Cl  Cl9   0.163223  0.236401  0.495425  -0.109412
    Cl  Cl10  0.836777  0.763599  0.495425  -0.108499
    Cl  Cl11  0.236401  0.504575  0.836777  -0.150847
    Cl  Cl12  0.763599  0.504575  0.163223  -0.151409
    Cu  Cu1   0.950378  0.500000  0.500000  1.021064
    Cu  Cu2   0.049622  0.500000  0.500000  1.020604
    Cu  Cu3   0.500000  0.950378  0.500000  1.021065
    Cu  Cu4   0.500000  0.049622  0.500000  1.020606
    Cu  Cu5   0.500000  0.500000  0.950378  1.021031
    Cu  Cu6   0.500000  0.500000  0.049622  1.021023
    Cu  Cu7   0.450378  0.000000  0.000000  1.094232
    Cu  Cu8   0.549622  0.000000  0.000000  1.040122
    Cu  Cu9   0.000000  0.450378  0.000000  1.094232
    Cu  Cu10  0.000000  0.549622  0.000000  1.040122
    Cu  Cu11  0.000000  0.000000  0.450378  1.074921
    Cu  Cu12  0.000000  0.000000  0.549622  1.074918
    H   H1    0.132233  0.576293  0.203051  0.085630
    H   H2    0.900798  0.469703  0.214570  -0.016656
    H   H3    0.879813  0.448382  0.273724  0.022207
    H   H4    0.914943  0.371782  0.272092  0.050875
    H   H5    0.879431  0.379431  0.221280  0.074211
    H   H6    0.947012  0.378732  0.212504  0.034568
    H   H7    0.066031  0.451573  0.652816  0.161855
    H   H8    0.883606  0.578308  0.732819  0.143271
    H   H9    0.867767  0.576293  0.796949  0.088049
    H   H10   0.099202  0.469703  0.785430  -0.017024
    H   H11   0.120187  0.448382  0.726276  0.020906
    H   H12   0.085057  0.371782  0.727908  0.051037
    H   H13   0.120569  0.379431  0.778720  0.074450
    H   H14   0.052988  0.378732  0.787496  0.031915
    H   H15   0.347184  0.933969  0.451573  0.167700
    H   H16   0.267181  0.116394  0.578308  0.146131
    H   H17   0.203051  0.132233  0.576293  0.100828
    H   H18   0.214570  0.900798  0.469703  0.017600
    H   H19   0.273724  0.879813  0.448382  0.016128
    H   H20   0.272092  0.914943  0.371782  0.054946
    H   H21   0.221280  0.879431  0.379431  0.062359
    H   H22   0.212504  0.947012  0.378732  0.037741
    H   H23   0.652816  0.066031  0.451573  0.167683
    H   H24   0.732819  0.883606  0.578308  0.136609
    H   H25   0.796949  0.867767  0.576293  0.096207
    H   H26   0.785430  0.099202  0.469703  0.015102
    H   H27   0.726276  0.120187  0.448382  0.014532
    H   H28   0.727908  0.085057  0.371782  0.051593
    H   H29   0.778720  0.120569  0.379431  0.058695
    H   H30   0.787496  0.052988  0.378732  0.038485
    H   H31   0.451573  0.347184  0.933969  0.163673
    H   H32   0.578308  0.267181  0.116394  0.146745
    H   H33   0.576293  0.203051  0.132233  0.088582
    H   H34   0.469703  0.214570  0.900798  -0.017425
    H   H35   0.448382  0.273724  0.879813  0.021745
    H   H36   0.371782  0.272092  0.914943  0.053070
    H   H37   0.379431  0.221280  0.879431  0.077340
    H   H38   0.378732  0.212504  0.947012  0.032677
    H   H39   0.451573  0.652816  0.066031  0.160569
    H   H40   0.578308  0.732819  0.883606  0.139944
    H   H41   0.576293  0.796949  0.867767  0.086287
    H   H42   0.469703  0.785430  0.099202  -0.015418
    H   H43   0.448382  0.726276  0.120187  0.022491
    H   H44   0.371782  0.727908  0.085057  0.050473
    H   H45   0.379431  0.778720  0.120569  0.072635
    H   H46   0.378732  0.787496  0.052988  0.034271
    H   H47   0.451573  0.933969  0.652816  0.161058
    H   H48   0.578308  0.116394  0.732819  0.141195
    H   H49   0.576293  0.132233  0.796949  0.085630
    H   H50   0.469703  0.900798  0.785430  -0.016656
    H   H51   0.448382  0.879813  0.726276  0.022208
    H   H52   0.371782  0.914943  0.727908  0.050875
    H   H53   0.379431  0.879431  0.778720  0.074212
    H   H54   0.378732  0.947012  0.787496  0.034568
    H   H55   0.451573  0.066031  0.347184  0.161853
    H   H56   0.578308  0.883606  0.267181  0.143269
    H   H57   0.576293  0.867767  0.203051  0.088049
    H   H58   0.469703  0.099202  0.214570  -0.017024
    H   H59   0.448382  0.120187  0.273724  0.020905
    H   H60   0.371782  0.085057  0.272092  0.051038
    H   H61   0.379431  0.120569  0.221280  0.074450
    H   H62   0.378732  0.052988  0.212504  0.031915
    H   H63   0.933969  0.347184  0.548427  0.167700
    H   H64   0.116394  0.267181  0.421692  0.146131
    H   H65   0.132233  0.203051  0.423707  0.100828
    H   H66   0.900798  0.214570  0.530297  0.017600
    H   H67   0.879813  0.273724  0.551618  0.016129
    H   H68   0.914943  0.272092  0.628218  0.054947
    H   H69   0.879431  0.221280  0.620569  0.062360
    H   H70   0.947012  0.212504  0.621268  0.037742
    H   H71   0.066031  0.652816  0.548427  0.167683
    H   H72   0.883606  0.732819  0.421692  0.136609
    H   H73   0.867767  0.796949  0.423707  0.096207
    H   H74   0.099202  0.785430  0.530297  0.015101
    H   H75   0.120187  0.726276  0.551618  0.014532
    H   H76   0.085057  0.727908  0.628218  0.051593
    H   H77   0.120569  0.778720  0.620569  0.058696
    H   H78   0.052988  0.787496  0.621268  0.038487
    H   H79   0.347184  0.451573  0.066031  0.163672
    H   H80   0.267181  0.578308  0.883606  0.146745
    H   H81   0.203051  0.576293  0.867767  0.088581
    H   H82   0.214570  0.469703  0.099202  -0.017424
    H   H83   0.273724  0.448382  0.120187  0.021744
    H   H84   0.272092  0.371782  0.085057  0.053068
    H   H85   0.221280  0.379431  0.120569  0.077338
    H   H86   0.212504  0.378732  0.052988  0.032676
    H   H87   0.652816  0.451573  0.933969  0.160570
    H   H88   0.732819  0.578308  0.116394  0.139945
    H   H89   0.796949  0.576293  0.132233  0.086287
    H   H90   0.785430  0.469703  0.900798  -0.015418
    H   H91   0.726276  0.448382  0.879813  0.022492
    H   H92   0.727908  0.371782  0.914943  0.050474
    H   H93   0.778720  0.379431  0.879431  0.072636
    H   H94   0.787496  0.378732  0.947012  0.034272
    H   H95   0.933969  0.451573  0.347184  0.161056
    H   H96   0.116394  0.578308  0.267181  0.141193
    N   N1    0.043457  0.467073  0.728135  -0.267358
    N   N2    0.018222  0.486811  0.812640  -0.609302
    N   N3    0.943419  0.530469  0.831127  -0.600791
    N   N4    0.271865  0.956543  0.467073  -0.257522
    N   N5    0.187360  0.981778  0.486811  -0.661574
    N   N6    0.168873  0.056581  0.530469  -0.600216
    N   N7    0.728135  0.043457  0.467073  -0.254943
    N   N8    0.812640  0.018222  0.486811  -0.665951
    N   N9    0.831127  0.943419  0.530469  -0.602873
    N   N10   0.467073  0.271865  0.956543  -0.261384
    N   N11   0.486811  0.187360  0.981778  -0.603271
    N   N12   0.530469  0.168873  0.056581  -0.600607
    N   N13   0.467073  0.728135  0.043457  -0.264416
    N   N14   0.486811  0.812640  0.018222  -0.609377
    N   N15   0.530469  0.831127  0.943419  -0.604099
    N   N16   0.467073  0.956543  0.728135  -0.258292
    N   N17   0.486811  0.981778  0.812640  -0.603361
    N   N18   0.530469  0.056581  0.831127  -0.605501
    N   N19   0.467073  0.043457  0.271865  -0.267360
    N   N20   0.486811  0.018222  0.187360  -0.609304
    N   N21   0.530469  0.943419  0.168873  -0.600794
    N   N22   0.956543  0.271865  0.532927  -0.257523
    N   N23   0.981778  0.187360  0.513189  -0.661574
    N   N24   0.056581  0.168873  0.469531  -0.600218
    N   N25   0.043457  0.728135  0.532927  -0.254945
    N   N26   0.018222  0.812640  0.513189  -0.665951
    N   N27   0.943419  0.831127  0.469531  -0.602876
    N   N28   0.271865  0.467073  0.043457  -0.261385
    N   N29   0.187360  0.486811  0.018222  -0.603271
    N   N30   0.168873  0.530469  0.943419  -0.600609
    N   N31   0.728135  0.467073  0.956543  -0.264415
    N   N32   0.812640  0.486811  0.981778  -0.609377
    N   N33   0.831127  0.530469  0.056581  -0.604097
    N   N34   0.956543  0.467073  0.271865  -0.258294
    N   N35   0.981778  0.486811  0.187360  -0.603364
    N   N36   0.056581  0.530469  0.168873  -0.605504
    O   O1    0.960510  0.500000  0.571462  -0.650902
    O   O2    0.927369  0.538190  0.674373  -0.488575
    O   O3    0.039490  0.571462  0.500000  -0.689126
    O   O4    0.960510  0.571462  0.500000  -0.640035
    O   O5    0.325627  0.072631  0.538190  -0.504426
    O   O6    0.674373  0.927369  0.538190  -0.497293
    O   O7    0.428538  0.039490  0.500000  -0.653193
    O   O8    0.428538  0.960510  0.500000  -0.699284
    O   O9    0.538190  0.325627  0.072631  -0.489108
    O   O10   0.500000  0.039490  0.428538  -0.689544
    O   O11   0.538190  0.674373  0.927369  -0.483252
    O   O12   0.500000  0.960510  0.428538  -0.650898
    O   O13   0.571462  0.039490  0.500000  -0.689128
    O   O14   0.538190  0.072631  0.674373  -0.485123
    O   O15   0.571462  0.960510  0.500000  -0.640037
    O   O16   0.538190  0.927369  0.325627  -0.488574
    O   O17   0.500000  0.039490  0.571462  -0.636673
    O   O18   0.500000  0.960510  0.571462  -0.674068
    O   O19   0.072631  0.325627  0.461810  -0.504431
    O   O20   0.927369  0.674373  0.461810  -0.497297
    O   O21   0.039490  0.500000  0.428538  -0.636669
    O   O22   0.500000  0.428538  0.039490  -0.651124
    O   O23   0.500000  0.428538  0.960510  -0.689235
    O   O24   0.325627  0.538190  0.927369  -0.489111
    O   O25   0.428538  0.500000  0.039490  -0.689229
    O   O26   0.674373  0.538190  0.072631  -0.483249
    O   O27   0.428538  0.500000  0.960510  -0.651131
    O   O28   0.500000  0.571462  0.039490  -0.677524
    O   O29   0.500000  0.571462  0.960510  -0.639855
    O   O30   0.960510  0.500000  0.428538  -0.674066
    O   O31   0.571462  0.500000  0.039490  -0.639848
    O   O32   0.571462  0.500000  0.960510  -0.677529
    O   O33   0.539490  0.000000  0.928538  -0.644745
    O   O34   0.460510  0.000000  0.928538  -0.685970
    O   O35   0.539490  0.928538  0.000000  -0.644592
    O   O36   0.460510  0.928538  0.000000  -0.686161
    O   O37   0.539490  0.000000  0.071462  -0.646514
    O   O38   0.460510  0.000000  0.071462  -0.686261
    O   O39   0.539490  0.071462  0.000000  -0.647049
    O   O40   0.460510  0.071462  0.000000  -0.686107
    O   O41   0.928538  0.539490  0.000000  -0.644592
    O   O42   0.039490  0.428538  0.500000  -0.653191
    O   O43   0.928538  0.460510  0.000000  -0.686161
    O   O44   0.000000  0.539490  0.928538  -0.646515
    O   O45   0.000000  0.460510  0.928538  -0.686263
    O   O46   0.071462  0.539490  0.000000  -0.647048
    O   O47   0.071462  0.460510  0.000000  -0.686106
    O   O48   0.000000  0.539490  0.071462  -0.644743
    O   O49   0.000000  0.460510  0.071462  -0.685969
    O   O50   0.960510  0.428538  0.500000  -0.699282
    O   O51   0.000000  0.928538  0.539490  -0.683214
    O   O52   0.000000  0.928538  0.460510  -0.659554
    O   O53   0.928538  0.000000  0.539490  -0.659553
    O   O54   0.928538  0.000000  0.460510  -0.683216
    O   O55   0.000000  0.071462  0.539490  -0.684263
    O   O56   0.000000  0.071462  0.460510  -0.660854
    O   O57   0.071462  0.000000  0.539490  -0.660854
    O   O58   0.071462  0.000000  0.460510  -0.684265
    O   O59   0.039490  0.500000  0.571462  -0.689546
    O   O60   0.072631  0.538190  0.325627  -0.485122
