# generated using pymatgen
data_CuH2C11SBrNO6
_symmetry_space_group_name_H-M   'P 1'
_cell_length_a   22.37370000
_cell_length_b   22.37370000
_cell_length_c   22.37370000
_cell_angle_alpha   90.00000000
_cell_angle_beta   90.00000000
_cell_angle_gamma   90.00000000
_symmetry_Int_Tables_number   1
_chemical_formula_structural   CuH2C11SBrNO6
_chemical_formula_sum   'Cu12 H24 C132 S12 Br12 N12 O72'
_cell_volume   11199.88159938
_cell_formula_units_Z   12
loop_
 _symmetry_equiv_pos_site_id
 _symmetry_equiv_pos_as_xyz
  1  'x, y, z'
loop_
 _atom_site_type_symbol
 _atom_site_label
 _atom_site_symmetry_multiplicity
 _atom_site_fract_x
 _atom_site_fract_y
 _atom_site_fract_z
 _atom_site_occupancy
  Cu  Cu1  1  0.94066100  0.50000000  0.50000000  1
  Cu  Cu2  1  0.05933900  0.50000000  0.50000000  1
  Cu  Cu3  1  0.50000000  0.94066100  0.50000000  1
  Cu  Cu4  1  0.50000000  0.05933900  0.50000000  1
  Cu  Cu5  1  0.50000000  0.50000000  0.94066100  1
  Cu  Cu6  1  0.50000000  0.50000000  0.05933900  1
  Cu  Cu7  1  0.44066100  0.00000000  0.00000000  1
  Cu  Cu8  1  0.55933900  0.00000000  0.00000000  1
  Cu  Cu9  1  0.00000000  0.44066100  0.00000000  1
  Cu  Cu10  1  0.00000000  0.55933900  0.00000000  1
  Cu  Cu11  1  0.00000000  0.00000000  0.44066100  1
  Cu  Cu12  1  0.00000000  0.00000000  0.55933900  1
  H  H1  1  0.06372200  0.38887800  0.91468800  1
  H  H2  1  0.13582100  0.30089900  0.91580200  1
  H  H3  1  0.08531200  0.93627800  0.38887800  1
  H  H4  1  0.08419800  0.86417900  0.30089900  1
  H  H5  1  0.91468800  0.06372200  0.38887800  1
  H  H6  1  0.91580200  0.13582100  0.30089900  1
  H  H7  1  0.38887800  0.08531200  0.93627800  1
  H  H8  1  0.30089900  0.08419800  0.86417900  1
  H  H9  1  0.38887800  0.91468800  0.06372200  1
  H  H10  1  0.30089900  0.91580200  0.13582100  1
  H  H11  1  0.38887800  0.93627800  0.91468800  1
  H  H12  1  0.30089900  0.86417900  0.91580200  1
  H  H13  1  0.38887800  0.06372200  0.08531200  1
  H  H14  1  0.30089900  0.13582100  0.08419800  1
  H  H15  1  0.93627800  0.08531200  0.61112200  1
  H  H16  1  0.86417900  0.08419800  0.69910100  1
  H  H17  1  0.06372200  0.91468800  0.61112200  1
  H  H18  1  0.13582100  0.91580200  0.69910100  1
  H  H19  1  0.08531200  0.38887800  0.06372200  1
  H  H20  1  0.08419800  0.30089900  0.13582100  1
  H  H21  1  0.91468800  0.38887800  0.93627800  1
  H  H22  1  0.91580200  0.30089900  0.86417900  1
  H  H23  1  0.93627800  0.38887800  0.08531200  1
  H  H24  1  0.86417900  0.30089900  0.08419800  1
  C  C1  1  0.09982500  0.41190700  0.82105500  1
  C  C2  1  0.09504300  0.38483900  0.87591200  1
  C  C3  1  0.13593100  0.33467200  0.88021000  1
  C  C4  1  0.94893700  0.51807100  0.71366900  1
  C  C5  1  0.99448500  0.49787800  0.68119400  1
  C  C6  1  0.00000000  0.61272000  0.50000000  1
  C  C7  1  0.04720700  0.46581800  0.71780300  1
  C  C8  1  0.04877100  0.46080500  0.78802200  1
  C  C9  1  0.00294100  0.48464400  0.81917200  1
  C  C10  1  0.94892000  0.51262800  0.78382800  1
  C  C11  1  0.17894500  0.90017500  0.41190700  1
  C  C12  1  0.12408800  0.90495700  0.38483900  1
  C  C13  1  0.11979000  0.86406900  0.33467200  1
  C  C14  1  0.28633100  0.05106300  0.51807100  1
  C  C15  1  0.31880600  0.00551500  0.49787800  1
  C  C16  1  0.28219700  0.95279300  0.46581800  1
  C  C17  1  0.21197800  0.95122900  0.46080500  1
  C  C18  1  0.18082800  0.99705900  0.48464400  1
  C  C19  1  0.21617200  0.05108000  0.51262800  1
  C  C20  1  0.82105500  0.09982500  0.41190700  1
  C  C21  1  0.87591200  0.09504300  0.38483900  1
  C  C22  1  0.88021000  0.13593100  0.33467200  1
  C  C23  1  0.71366900  0.94893700  0.51807100  1
  C  C24  1  0.68119400  0.99448500  0.49787800  1
  C  C25  1  0.71780300  0.04720700  0.46581800  1
  C  C26  1  0.78802200  0.04877100  0.46080500  1
  C  C27  1  0.81917200  0.00294100  0.48464400  1
  C  C28  1  0.78382800  0.94892000  0.51262800  1
  C  C29  1  0.41190700  0.17894500  0.90017500  1
  C  C30  1  0.38483900  0.12408800  0.90495700  1
  C  C31  1  0.33467200  0.11979000  0.86406900  1
  C  C32  1  0.51807100  0.28633100  0.05106300  1
  C  C33  1  0.49787800  0.31880600  0.00551500  1
  C  C34  1  0.46581800  0.28219700  0.95279300  1
  C  C35  1  0.38728000  0.00000000  0.50000000  1
  C  C36  1  0.46080500  0.21197800  0.95122900  1
  C  C37  1  0.48464400  0.18082800  0.99705900  1
  C  C38  1  0.51262800  0.21617200  0.05108000  1
  C  C39  1  0.41190700  0.82105500  0.09982500  1
  C  C40  1  0.38483900  0.87591200  0.09504300  1
  C  C41  1  0.33467200  0.88021000  0.13593100  1
  C  C42  1  0.51807100  0.71366900  0.94893700  1
  C  C43  1  0.49787800  0.68119400  0.99448500  1
  C  C44  1  0.46581800  0.71780300  0.04720700  1
  C  C45  1  0.46080500  0.78802200  0.04877100  1
  C  C46  1  0.48464400  0.81917200  0.00294100  1
  C  C47  1  0.51262800  0.78382800  0.94892000  1
  C  C48  1  0.41190700  0.90017500  0.82105500  1
  C  C49  1  0.38483900  0.90495700  0.87591200  1
  C  C50  1  0.33467200  0.86406900  0.88021000  1
  C  C51  1  0.51807100  0.05106300  0.71366900  1
  C  C52  1  0.49787800  0.00551500  0.68119400  1
  C  C53  1  0.50000000  0.00000000  0.38728000  1
  C  C54  1  0.46581800  0.95279300  0.71780300  1
  C  C55  1  0.46080500  0.95122900  0.78802200  1
  C  C56  1  0.48464400  0.99705900  0.81917200  1
  C  C57  1  0.51262800  0.05108000  0.78382800  1
  C  C58  1  0.41190700  0.09982500  0.17894500  1
  C  C59  1  0.38483900  0.09504300  0.12408800  1
  C  C60  1  0.33467200  0.13593100  0.11979000  1
  C  C61  1  0.00000000  0.50000000  0.38728000  1
  C  C62  1  0.51807100  0.94893700  0.28633100  1
  C  C63  1  0.49787800  0.99448500  0.31880600  1
  C  C64  1  0.46581800  0.04720700  0.28219700  1
  C  C65  1  0.46080500  0.04877100  0.21197800  1
  C  C66  1  0.48464400  0.00294100  0.18082800  1
  C  C67  1  0.51262800  0.94892000  0.21617200  1
  C  C68  1  0.90017500  0.17894500  0.58809300  1
  C  C69  1  0.90495700  0.12408800  0.61516100  1
  C  C70  1  0.86406900  0.11979000  0.66532800  1
  C  C71  1  0.61272000  0.00000000  0.50000000  1
  C  C72  1  0.05106300  0.28633100  0.48192900  1
  C  C73  1  0.00551500  0.31880600  0.50212200  1
  C  C74  1  0.95279300  0.28219700  0.53418200  1
  C  C75  1  0.95122900  0.21197800  0.53919500  1
  C  C76  1  0.99705900  0.18082800  0.51535600  1
  C  C77  1  0.05108000  0.21617200  0.48737200  1
  C  C78  1  0.09982500  0.82105500  0.58809300  1
  C  C79  1  0.09504300  0.87591200  0.61516100  1
  C  C80  1  0.13593100  0.88021000  0.66532800  1
  C  C81  1  0.94893700  0.71366900  0.48192900  1
  C  C82  1  0.99448500  0.68119400  0.50212200  1
  C  C83  1  0.04720700  0.71780300  0.53418200  1
  C  C84  1  0.04877100  0.78802200  0.53919500  1
  C  C85  1  0.00294100  0.81917200  0.51535600  1
  C  C86  1  0.94892000  0.78382800  0.48737200  1
  C  C87  1  0.17894500  0.41190700  0.09982500  1
  C  C88  1  0.12408800  0.38483900  0.09504300  1
  C  C89  1  0.11979000  0.33467200  0.13593100  1
  C  C90  1  0.50000000  0.00000000  0.61272000  1
  C  C91  1  0.28633100  0.51807100  0.94893700  1
  C  C92  1  0.31880600  0.49787800  0.99448500  1
  C  C93  1  0.28219700  0.46581800  0.04720700  1
  C  C94  1  0.21197800  0.46080500  0.04877100  1
  C  C95  1  0.18082800  0.48464400  0.00294100  1
  C  C96  1  0.21617200  0.51262800  0.94892000  1
  C  C97  1  0.82105500  0.41190700  0.90017500  1
  C  C98  1  0.87591200  0.38483900  0.90495700  1
  C  C99  1  0.88021000  0.33467200  0.86406900  1
  C  C100  1  0.71366900  0.51807100  0.05106300  1
  C  C101  1  0.68119400  0.49787800  0.00551500  1
  C  C102  1  0.71780300  0.46581800  0.95279300  1
  C  C103  1  0.78802200  0.46080500  0.95122900  1
  C  C104  1  0.81917200  0.48464400  0.99705900  1
  C  C105  1  0.78382800  0.51262800  0.05108000  1
  C  C106  1  0.50000000  0.38728000  0.00000000  1
  C  C107  1  0.38728000  0.50000000  0.00000000  1
  C  C108  1  0.50000000  0.61272000  0.00000000  1
  C  C109  1  0.61272000  0.50000000  0.00000000  1
  C  C110  1  0.50000000  0.00000000  0.88728000  1
  C  C111  1  0.50000000  0.88728000  0.00000000  1
  C  C112  1  0.00000000  0.38728000  0.50000000  1
  C  C113  1  0.50000000  0.00000000  0.11272000  1
  C  C114  1  0.50000000  0.11272000  0.00000000  1
  C  C115  1  0.88728000  0.50000000  0.00000000  1
  C  C116  1  0.00000000  0.50000000  0.88728000  1
  C  C117  1  0.11272000  0.50000000  0.00000000  1
  C  C118  1  0.00000000  0.50000000  0.11272000  1
  C  C119  1  0.00000000  0.88728000  0.50000000  1
  C  C120  1  0.88728000  0.00000000  0.50000000  1
  C  C121  1  0.00000000  0.11272000  0.50000000  1
  C  C122  1  0.00000000  0.50000000  0.61272000  1
  C  C123  1  0.11272000  0.00000000  0.50000000  1
  C  C124  1  0.90017500  0.41190700  0.17894500  1
  C  C125  1  0.90495700  0.38483900  0.12408800  1
  C  C126  1  0.86406900  0.33467200  0.11979000  1
  C  C127  1  0.05106300  0.51807100  0.28633100  1
  C  C128  1  0.00551500  0.49787800  0.31880600  1
  C  C129  1  0.95279300  0.46581800  0.28219700  1
  C  C130  1  0.95122900  0.46080500  0.21197800  1
  C  C131  1  0.99705900  0.48464400  0.18082800  1
  C  C132  1  0.05108000  0.51262800  0.21617200  1
  S  S1  1  0.15737700  0.37849800  0.78188600  1
  S  S2  1  0.21811400  0.84262300  0.37849800  1
  S  S3  1  0.78188600  0.15737700  0.37849800  1
  S  S4  1  0.37849800  0.21811400  0.84262300  1
  S  S5  1  0.37849800  0.78188600  0.15737700  1
  S  S6  1  0.37849800  0.84262300  0.78188600  1
  S  S7  1  0.37849800  0.15737700  0.21811400  1
  S  S8  1  0.84262300  0.21811400  0.62150200  1
  S  S9  1  0.15737700  0.78188600  0.62150200  1
  S  S10  1  0.21811400  0.37849800  0.15737700  1
  S  S11  1  0.78188600  0.37849800  0.84262300  1
  S  S12  1  0.84262300  0.37849800  0.21811400  1
  Br  Br1  1  0.87932900  0.56332300  0.68470000  1
  Br  Br2  1  0.31530000  0.12067100  0.56332300  1
  Br  Br3  1  0.68470000  0.87932900  0.56332300  1
  Br  Br4  1  0.56332300  0.31530000  0.12067100  1
  Br  Br5  1  0.56332300  0.68470000  0.87932900  1
  Br  Br6  1  0.56332300  0.12067100  0.68470000  1
  Br  Br7  1  0.56332300  0.87932900  0.31530000  1
  Br  Br8  1  0.12067100  0.31530000  0.43667700  1
  Br  Br9  1  0.87932900  0.68470000  0.43667700  1
  Br  Br10  1  0.31530000  0.56332300  0.87932900  1
  Br  Br11  1  0.68470000  0.56332300  0.12067100  1
  Br  Br12  1  0.12067100  0.56332300  0.31530000  1
  N  N1  1  0.17238600  0.32761400  0.83525700  1
  N  N2  1  0.16474300  0.82761400  0.32761400  1
  N  N3  1  0.83525700  0.17238600  0.32761400  1
  N  N4  1  0.32761400  0.16474300  0.82761400  1
  N  N5  1  0.32761400  0.83525700  0.17238600  1
  N  N6  1  0.32761400  0.82761400  0.83525700  1
  N  N7  1  0.32761400  0.17238600  0.16474300  1
  N  N8  1  0.82761400  0.16474300  0.67238600  1
  N  N9  1  0.17238600  0.83525700  0.67238600  1
  N  N10  1  0.16474300  0.32761400  0.17238600  1
  N  N11  1  0.83525700  0.32761400  0.82761400  1
  N  N12  1  0.82761400  0.32761400  0.16474300  1
  O  O1  1  0.95277700  0.50000000  0.58545600  1
  O  O2  1  0.08795700  0.44289200  0.68919200  1
  O  O3  1  0.90709700  0.53077400  0.81125400  1
  O  O4  1  0.04722300  0.58545600  0.50000000  1
  O  O5  1  0.31080800  0.91204300  0.44289200  1
  O  O6  1  0.95277700  0.58545600  0.50000000  1
  O  O7  1  0.18874600  0.09290300  0.53077400  1
  O  O8  1  0.68919200  0.08795700  0.44289200  1
  O  O9  1  0.81125400  0.90709700  0.53077400  1
  O  O10  1  0.44289200  0.31080800  0.91204300  1
  O  O11  1  0.53077400  0.18874600  0.09290300  1
  O  O12  1  0.41454400  0.04722300  0.50000000  1
  O  O13  1  0.44289200  0.68919200  0.08795700  1
  O  O14  1  0.53077400  0.81125400  0.90709700  1
  O  O15  1  0.41454400  0.95277700  0.50000000  1
  O  O16  1  0.44289200  0.91204300  0.68919200  1
  O  O17  1  0.53077400  0.09290300  0.81125400  1
  O  O18  1  0.50000000  0.04722300  0.41454400  1
  O  O19  1  0.44289200  0.08795700  0.31080800  1
  O  O20  1  0.50000000  0.95277700  0.41454400  1
  O  O21  1  0.53077400  0.90709700  0.18874600  1
  O  O22  1  0.91204300  0.31080800  0.55710800  1
  O  O23  1  0.09290300  0.18874600  0.46922600  1
  O  O24  1  0.58545600  0.04722300  0.50000000  1
  O  O25  1  0.08795700  0.68919200  0.55710800  1
  O  O26  1  0.58545600  0.95277700  0.50000000  1
  O  O27  1  0.90709700  0.81125400  0.46922600  1
  O  O28  1  0.31080800  0.44289200  0.08795700  1
  O  O29  1  0.18874600  0.53077400  0.90709700  1
  O  O30  1  0.50000000  0.04722300  0.58545600  1
  O  O31  1  0.50000000  0.95277700  0.58545600  1
  O  O32  1  0.68919200  0.44289200  0.91204300  1
  O  O33  1  0.81125400  0.53077400  0.09290300  1
  O  O34  1  0.04722300  0.50000000  0.41454400  1
  O  O35  1  0.50000000  0.41454400  0.04722300  1
  O  O36  1  0.50000000  0.41454400  0.95277700  1
  O  O37  1  0.41454400  0.50000000  0.04722300  1
  O  O38  1  0.41454400  0.50000000  0.95277700  1
  O  O39  1  0.50000000  0.58545600  0.04722300  1
  O  O40  1  0.50000000  0.58545600  0.95277700  1
  O  O41  1  0.95277700  0.50000000  0.41454400  1
  O  O42  1  0.58545600  0.50000000  0.04722300  1
  O  O43  1  0.58545600  0.50000000  0.95277700  1
  O  O44  1  0.54722300  0.00000000  0.91454400  1
  O  O45  1  0.45277700  0.00000000  0.91454400  1
  O  O46  1  0.54722300  0.91454400  0.00000000  1
  O  O47  1  0.45277700  0.91454400  0.00000000  1
  O  O48  1  0.54722300  0.00000000  0.08545600  1
  O  O49  1  0.45277700  0.00000000  0.08545600  1
  O  O50  1  0.54722300  0.08545600  0.00000000  1
  O  O51  1  0.45277700  0.08545600  0.00000000  1
  O  O52  1  0.91454400  0.54722300  0.00000000  1
  O  O53  1  0.04722300  0.41454400  0.50000000  1
  O  O54  1  0.91454400  0.45277700  0.00000000  1
  O  O55  1  0.00000000  0.54722300  0.91454400  1
  O  O56  1  0.00000000  0.45277700  0.91454400  1
  O  O57  1  0.08545600  0.54722300  0.00000000  1
  O  O58  1  0.08545600  0.45277700  0.00000000  1
  O  O59  1  0.00000000  0.54722300  0.08545600  1
  O  O60  1  0.00000000  0.45277700  0.08545600  1
  O  O61  1  0.95277700  0.41454400  0.50000000  1
  O  O62  1  0.00000000  0.91454400  0.54722300  1
  O  O63  1  0.00000000  0.91454400  0.45277700  1
  O  O64  1  0.91454400  0.00000000  0.54722300  1
  O  O65  1  0.91454400  0.00000000  0.45277700  1
  O  O66  1  0.00000000  0.08545600  0.54722300  1
  O  O67  1  0.00000000  0.08545600  0.45277700  1
  O  O68  1  0.08545600  0.00000000  0.54722300  1
  O  O69  1  0.08545600  0.00000000  0.45277700  1
  O  O70  1  0.04722300  0.50000000  0.58545600  1
  O  O71  1  0.91204300  0.44289200  0.31080800  1
  O  O72  1  0.09290300  0.53077400  0.18874600  1
