# generated using pymatgen
data_CuH10(C9O2)2
_symmetry_space_group_name_H-M   'P 1'
_cell_length_a   25.87510000
_cell_length_b   25.87510000
_cell_length_c   23.78590000
_cell_angle_alpha   90.00000000
_cell_angle_beta   90.00000000
_cell_angle_gamma   90.00000000
_symmetry_Int_Tables_number   1
_chemical_formula_structural   CuH10(C9O2)2
_chemical_formula_sum   'Cu16 H160 C288 O64'
_cell_volume   15925.15479696
_cell_formula_units_Z   16
loop_
 _symmetry_equiv_pos_site_id
 _symmetry_equiv_pos_as_xyz
  1  'x, y, z'
loop_
 _atom_site_type_symbol
 _atom_site_label
 _atom_site_symmetry_multiplicity
 _atom_site_fract_x
 _atom_site_fract_y
 _atom_site_fract_z
 _atom_site_occupancy
  Cu  Cu1  1  0.01009300  0.95362600  0.96053200  1
  Cu  Cu2  1  0.01009300  0.02618800  0.03946800  1
  Cu  Cu3  1  0.51009300  0.02618800  0.46053200  1
  Cu  Cu4  1  0.51009300  0.95362600  0.53946800  1
  Cu  Cu5  1  0.29637400  0.73990700  0.21053200  1
  Cu  Cu6  1  0.22381200  0.73990700  0.28946800  1
  Cu  Cu7  1  0.22381200  0.23990700  0.71053200  1
  Cu  Cu8  1  0.29637400  0.23990700  0.78946800  1
  Cu  Cu9  1  0.72381200  0.23990700  0.78946800  1
  Cu  Cu10  1  0.79637400  0.23990700  0.71053200  1
  Cu  Cu11  1  0.79637400  0.73990700  0.28946800  1
  Cu  Cu12  1  0.72381200  0.73990700  0.21053200  1
  Cu  Cu13  1  0.51009300  0.45362600  0.46053200  1
  Cu  Cu14  1  0.51009300  0.52618800  0.53946800  1
  Cu  Cu15  1  0.01009300  0.52618800  0.96053200  1
  Cu  Cu16  1  0.01009300  0.45362600  0.03946800  1
  H  H1  1  0.92859400  0.86843400  0.97603900  1
  H  H2  1  0.74404500  0.86938300  0.91776200  1
  H  H3  1  0.76731600  0.87988000  0.01339100  1
  H  H4  1  0.76920200  0.85883500  0.81648400  1
  H  H5  1  0.83653000  0.83653000  0.74743400  1
  H  H6  1  0.92803600  0.83613300  0.77969600  1
  H  H7  1  0.95501200  0.84816200  0.87296800  1
  H  H8  1  0.95458300  0.91205800  0.15322200  1
  H  H9  1  0.90135400  0.85569200  0.22182200  1
  H  H10  1  0.79369900  0.83395600  0.08904400  1
  H  H11  1  0.59159200  0.11138000  0.47603900  1
  H  H12  1  0.77614100  0.11043100  0.41776200  1
  H  H13  1  0.75287000  0.09993400  0.51339100  1
  H  H14  1  0.75098400  0.12097900  0.31648400  1
  H  H15  1  0.68365600  0.14328400  0.24743400  1
  H  H16  1  0.59215000  0.14368200  0.27969600  1
  H  H17  1  0.56517400  0.13165200  0.37296800  1
  H  H18  1  0.56560200  0.06775600  0.65322200  1
  H  H19  1  0.61883200  0.12412200  0.72182200  1
  H  H20  1  0.72648700  0.14585800  0.58904400  1
  H  H21  1  0.38156600  0.65840800  0.22603900  1
  H  H22  1  0.38061700  0.47385900  0.16776200  1
  H  H23  1  0.37012000  0.49713000  0.26339100  1
  H  H24  1  0.39116500  0.49901600  0.06648400  1
  H  H25  1  0.41347000  0.56634400  0.99743400  1
  H  H26  1  0.41386700  0.65785000  0.02969600  1
  H  H27  1  0.40183800  0.68482600  0.12296800  1
  H  H28  1  0.33794200  0.68439800  0.40322200  1
  H  H29  1  0.39430800  0.63116800  0.47182200  1
  H  H30  1  0.41604400  0.52351300  0.33904400  1
  H  H31  1  0.13862000  0.32140600  0.72603900  1
  H  H32  1  0.13956900  0.50595500  0.66776200  1
  H  H33  1  0.15006600  0.48268400  0.76339100  1
  H  H34  1  0.12902100  0.48079800  0.56648400  1
  H  H35  1  0.10671600  0.41347000  0.49743400  1
  H  H36  1  0.10631800  0.32196400  0.52969600  1
  H  H37  1  0.11834800  0.29498800  0.62296800  1
  H  H38  1  0.18224400  0.29541700  0.90322200  1
  H  H39  1  0.12587800  0.34864600  0.97182200  1
  H  H40  1  0.10414200  0.45630100  0.83904400  1
  H  H41  1  0.59159200  0.86843400  0.52396100  1
  H  H42  1  0.77614100  0.86938300  0.58223800  1
  H  H43  1  0.75287000  0.87988000  0.48660900  1
  H  H44  1  0.75098400  0.85883500  0.68351600  1
  H  H45  1  0.68365600  0.83653000  0.75256600  1
  H  H46  1  0.59215000  0.83613300  0.72030400  1
  H  H47  1  0.56517400  0.84816200  0.62703200  1
  H  H48  1  0.56560200  0.91205800  0.34677800  1
  H  H49  1  0.61883200  0.85569200  0.27817800  1
  H  H50  1  0.72648700  0.83395600  0.41095600  1
  H  H51  1  0.92859400  0.11138000  0.02396100  1
  H  H52  1  0.74404500  0.11043100  0.08223800  1
  H  H53  1  0.76731600  0.09993400  0.98660900  1
  H  H54  1  0.76920200  0.12097900  0.18351600  1
  H  H55  1  0.83653000  0.14328400  0.25256600  1
  H  H56  1  0.92803600  0.14368200  0.22030400  1
  H  H57  1  0.95501200  0.13165200  0.12703200  1
  H  H58  1  0.95458300  0.06775600  0.84677800  1
  H  H59  1  0.90135400  0.12412200  0.77817800  1
  H  H60  1  0.79369900  0.14585800  0.91095600  1
  H  H61  1  0.13862000  0.65840800  0.27396100  1
  H  H62  1  0.13956900  0.47385900  0.33223800  1
  H  H63  1  0.15006600  0.49713000  0.23660900  1
  H  H64  1  0.12902100  0.49901600  0.43351600  1
  H  H65  1  0.10671600  0.56634400  0.50256600  1
  H  H66  1  0.10631800  0.65785000  0.47030400  1
  H  H67  1  0.11834800  0.68482600  0.37703200  1
  H  H68  1  0.18224400  0.68439800  0.09677800  1
  H  H69  1  0.12587800  0.63116800  0.02817800  1
  H  H70  1  0.10414200  0.52351300  0.16095600  1
  H  H71  1  0.38156600  0.32140600  0.77396100  1
  H  H72  1  0.38061700  0.50595500  0.83223800  1
  H  H73  1  0.37012000  0.48268400  0.73660900  1
  H  H74  1  0.39116500  0.48079800  0.93351600  1
  H  H75  1  0.41347000  0.41347000  0.00256600  1
  H  H76  1  0.41386700  0.32196400  0.97030400  1
  H  H77  1  0.40183800  0.29498800  0.87703200  1
  H  H78  1  0.33794200  0.29541700  0.59677800  1
  H  H79  1  0.39430800  0.34864600  0.52817800  1
  H  H80  1  0.41604400  0.45630100  0.66095600  1
  H  H81  1  0.09159200  0.11138000  0.02396100  1
  H  H82  1  0.27614100  0.11043100  0.08223800  1
  H  H83  1  0.25287000  0.09993400  0.98660900  1
  H  H84  1  0.25098400  0.12097900  0.18351600  1
  H  H85  1  0.18365600  0.14328400  0.25256600  1
  H  H86  1  0.09215000  0.14368200  0.22030400  1
  H  H87  1  0.06517400  0.13165200  0.12703200  1
  H  H88  1  0.06560200  0.06775600  0.84677800  1
  H  H89  1  0.11883200  0.12412200  0.77817800  1
  H  H90  1  0.22648700  0.14585800  0.91095600  1
  H  H91  1  0.42859400  0.86843400  0.52396100  1
  H  H92  1  0.24404500  0.86938300  0.58223800  1
  H  H93  1  0.26731600  0.87988000  0.48660900  1
  H  H94  1  0.26920200  0.85883500  0.68351600  1
  H  H95  1  0.33653000  0.83653000  0.75256600  1
  H  H96  1  0.42803600  0.83613300  0.72030400  1
  H  H97  1  0.45501200  0.84816200  0.62703200  1
  H  H98  1  0.45458300  0.91205800  0.34677800  1
  H  H99  1  0.40135400  0.85569200  0.27817800  1
  H  H100  1  0.29369900  0.83395600  0.41095600  1
  H  H101  1  0.63862000  0.32140600  0.77396100  1
  H  H102  1  0.63956900  0.50595500  0.83223800  1
  H  H103  1  0.65006600  0.48268400  0.73660900  1
  H  H104  1  0.62902100  0.48079800  0.93351600  1
  H  H105  1  0.60671600  0.41347000  0.00256600  1
  H  H106  1  0.60631800  0.32196400  0.97030400  1
  H  H107  1  0.61834800  0.29498800  0.87703200  1
  H  H108  1  0.68224400  0.29541700  0.59677800  1
  H  H109  1  0.62587800  0.34864600  0.52817800  1
  H  H110  1  0.60414200  0.45630100  0.66095600  1
  H  H111  1  0.88156600  0.65840800  0.27396100  1
  H  H112  1  0.88061700  0.47385900  0.33223800  1
  H  H113  1  0.87012000  0.49713000  0.23660900  1
  H  H114  1  0.89116500  0.49901600  0.43351600  1
  H  H115  1  0.91347000  0.56634400  0.50256600  1
  H  H116  1  0.91386700  0.65785000  0.47030400  1
  H  H117  1  0.90183800  0.68482600  0.37703200  1
  H  H118  1  0.83794200  0.68439800  0.09677800  1
  H  H119  1  0.89430800  0.63116800  0.02817800  1
  H  H120  1  0.91604400  0.52351300  0.16095600  1
  H  H121  1  0.42859400  0.11138000  0.47603900  1
  H  H122  1  0.24404500  0.11043100  0.41776200  1
  H  H123  1  0.26731600  0.09993400  0.51339100  1
  H  H124  1  0.26920200  0.12097900  0.31648400  1
  H  H125  1  0.33653000  0.14328400  0.24743400  1
  H  H126  1  0.42803600  0.14368200  0.27969600  1
  H  H127  1  0.45501200  0.13165200  0.37296800  1
  H  H128  1  0.45458300  0.06775600  0.65322200  1
  H  H129  1  0.40135400  0.12412200  0.72182200  1
  H  H130  1  0.29369900  0.14585800  0.58904400  1
  H  H131  1  0.09159200  0.86843400  0.97603900  1
  H  H132  1  0.27614100  0.86938300  0.91776200  1
  H  H133  1  0.25287000  0.87988000  0.01339100  1
  H  H134  1  0.25098400  0.85883500  0.81648400  1
  H  H135  1  0.18365600  0.83653000  0.74743400  1
  H  H136  1  0.09215000  0.83613300  0.77969600  1
  H  H137  1  0.06517400  0.84816200  0.87296800  1
  H  H138  1  0.06560200  0.91205800  0.15322200  1
  H  H139  1  0.11883200  0.85569200  0.22182200  1
  H  H140  1  0.22648700  0.83395600  0.08904400  1
  H  H141  1  0.88156600  0.32140600  0.72603900  1
  H  H142  1  0.88061700  0.50595500  0.66776200  1
  H  H143  1  0.87012000  0.48268400  0.76339100  1
  H  H144  1  0.89116500  0.48079800  0.56648400  1
  H  H145  1  0.91347000  0.41347000  0.49743400  1
  H  H146  1  0.91386700  0.32196400  0.52969600  1
  H  H147  1  0.90183800  0.29498800  0.62296800  1
  H  H148  1  0.83794200  0.29541700  0.90322200  1
  H  H149  1  0.89430800  0.34864600  0.97182200  1
  H  H150  1  0.91604400  0.45630100  0.83904400  1
  H  H151  1  0.63862000  0.65840800  0.22603900  1
  H  H152  1  0.63956900  0.47385900  0.16776200  1
  H  H153  1  0.65006600  0.49713000  0.26339100  1
  H  H154  1  0.62902100  0.49901600  0.06648400  1
  H  H155  1  0.60671600  0.56634400  0.99743400  1
  H  H156  1  0.60631800  0.65785000  0.02969600  1
  H  H157  1  0.61834800  0.68482600  0.12296800  1
  H  H158  1  0.68224400  0.68439800  0.40322200  1
  H  H159  1  0.62587800  0.63116800  0.47182200  1
  H  H160  1  0.60414200  0.52351300  0.33904400  1
  C  C1  1  0.07901200  0.53864000  0.05301400  1
  C  C2  1  0.07901200  0.44117400  0.94698600  1
  C  C3  1  0.94117400  0.44117400  0.94698600  1
  C  C4  1  0.94117400  0.53864000  0.05301400  1
  C  C5  1  0.07901200  0.94117400  0.05301400  1
  C  C6  1  0.84834900  0.87465100  0.00411300  1
  C  C7  1  0.88818200  0.86624400  0.96385900  1
  C  C8  1  0.87595000  0.85798000  0.90567300  1
  C  C9  1  0.82248700  0.86020100  0.88694100  1
  C  C10  1  0.78450800  0.86573000  0.92794800  1
  C  C11  1  0.79772700  0.87367300  0.98491900  1
  C  C12  1  0.80905100  0.85637200  0.83025700  1
  C  C13  1  0.84816700  0.84746200  0.79046900  1
  C  C14  1  0.89975700  0.84294300  0.80921500  1
  C  C15  1  0.91395400  0.84941700  0.86552600  1
  C  C16  1  0.86177800  0.87790400  0.06174000  1
  C  C17  1  0.90660100  0.90115900  0.08326000  1
  C  C18  1  0.91951800  0.89423400  0.14030900  1
  C  C19  1  0.89042200  0.86421400  0.17807800  1
  C  C20  1  0.84327600  0.84625800  0.15791800  1
  C  C21  1  0.82858200  0.85519900  0.10215900  1
  C  C22  1  0.67183700  0.10516300  0.50411300  1
  C  C23  1  0.63200400  0.11357000  0.46385900  1
  C  C24  1  0.64423600  0.12183400  0.40567300  1
  C  C25  1  0.69769900  0.11961300  0.38694100  1
  C  C26  1  0.73567800  0.11408400  0.42794800  1
  C  C27  1  0.72245900  0.10614100  0.48491900  1
  C  C28  1  0.71113500  0.12344200  0.33025700  1
  C  C29  1  0.67201900  0.13235200  0.29046900  1
  C  C30  1  0.62042900  0.13687100  0.30921500  1
  C  C31  1  0.60623200  0.13039700  0.36552600  1
  C  C32  1  0.65840800  0.10191000  0.56174000  1
  C  C33  1  0.61358500  0.07865500  0.58326000  1
  C  C34  1  0.60066800  0.08558000  0.64030900  1
  C  C35  1  0.62976400  0.11560000  0.67807800  1
  C  C36  1  0.57901200  0.03864000  0.55301400  1
  C  C37  1  0.67691000  0.13355600  0.65791800  1
  C  C38  1  0.69160400  0.12461600  0.60215900  1
  C  C39  1  0.37534900  0.57816300  0.25411300  1
  C  C40  1  0.38375600  0.61799600  0.21385900  1
  C  C41  1  0.39202000  0.60576400  0.15567300  1
  C  C42  1  0.38979900  0.55230100  0.13694100  1
  C  C43  1  0.38427000  0.51432200  0.17794800  1
  C  C44  1  0.37632700  0.52754100  0.23491900  1
  C  C45  1  0.39362800  0.53886500  0.08025700  1
  C  C46  1  0.40253800  0.57798100  0.04046900  1
  C  C47  1  0.40705700  0.62957100  0.05921500  1
  C  C48  1  0.40058300  0.64376800  0.11552600  1
  C  C49  1  0.37209600  0.59159200  0.31174000  1
  C  C50  1  0.34884100  0.63641500  0.33326000  1
  C  C51  1  0.35576600  0.64933200  0.39030900  1
  C  C52  1  0.38578600  0.62023600  0.42807800  1
  C  C53  1  0.40374200  0.57309000  0.40791800  1
  C  C54  1  0.39480100  0.55839600  0.35215900  1
  C  C55  1  0.57901200  0.94117400  0.44698600  1
  C  C56  1  0.14483700  0.40165100  0.75411300  1
  C  C57  1  0.13643000  0.36181800  0.71385900  1
  C  C58  1  0.12816600  0.37405000  0.65567300  1
  C  C59  1  0.13038700  0.42751300  0.63694100  1
  C  C60  1  0.13591600  0.46549200  0.67794800  1
  C  C61  1  0.14385900  0.45227300  0.73491900  1
  C  C62  1  0.12655800  0.44094900  0.58025700  1
  C  C63  1  0.11764800  0.40183300  0.54046900  1
  C  C64  1  0.11312900  0.35024300  0.55921500  1
  C  C65  1  0.11960300  0.33604600  0.61552600  1
  C  C66  1  0.94117400  0.94117400  0.05301400  1
  C  C67  1  0.14809000  0.38822200  0.81174000  1
  C  C68  1  0.17134500  0.34339900  0.83326000  1
  C  C69  1  0.16442000  0.33048200  0.89030900  1
  C  C70  1  0.13440000  0.35957800  0.92807800  1
  C  C71  1  0.11644400  0.40672400  0.90791800  1
  C  C72  1  0.12538400  0.42141800  0.85215900  1
  C  C73  1  0.67183700  0.87465100  0.49588700  1
  C  C74  1  0.63200400  0.86624400  0.53614100  1
  C  C75  1  0.64423600  0.85798000  0.59432700  1
  C  C76  1  0.69769900  0.86020100  0.61305900  1
  C  C77  1  0.44117400  0.94117400  0.44698600  1
  C  C78  1  0.73567800  0.86573000  0.57205200  1
  C  C79  1  0.72245900  0.87367300  0.51508100  1
  C  C80  1  0.71113500  0.85637200  0.66974300  1
  C  C81  1  0.67201900  0.84746200  0.70953100  1
  C  C82  1  0.62042900  0.84294300  0.69078500  1
  C  C83  1  0.60623200  0.84941700  0.63447400  1
  C  C84  1  0.65840800  0.87790400  0.43826000  1
  C  C85  1  0.61358500  0.90115900  0.41674000  1
  C  C86  1  0.60066800  0.89423400  0.35969100  1
  C  C87  1  0.62976400  0.86421400  0.32192200  1
  C  C88  1  0.67691000  0.84625800  0.34208200  1
  C  C89  1  0.69160400  0.85519900  0.39784100  1
  C  C90  1  0.84834900  0.10516300  0.99588700  1
  C  C91  1  0.88818200  0.11357000  0.03614100  1
  C  C92  1  0.87595000  0.12183400  0.09432700  1
  C  C93  1  0.82248700  0.11961300  0.11305900  1
  C  C94  1  0.78450800  0.11408400  0.07205200  1
  C  C95  1  0.79772700  0.10614100  0.01508100  1
  C  C96  1  0.80905100  0.12344200  0.16974300  1
  C  C97  1  0.84816700  0.13235200  0.20953100  1
  C  C98  1  0.44117400  0.03864000  0.55301400  1
  C  C99  1  0.89975700  0.13687100  0.19078500  1
  C  C100  1  0.91395400  0.13039700  0.13447400  1
  C  C101  1  0.86177800  0.10191000  0.93826000  1
  C  C102  1  0.90660100  0.07865500  0.91674000  1
  C  C103  1  0.91951800  0.08558000  0.85969100  1
  C  C104  1  0.89042200  0.11560000  0.82192200  1
  C  C105  1  0.84327600  0.13355600  0.84208200  1
  C  C106  1  0.82858200  0.12461600  0.89784100  1
  C  C107  1  0.14483700  0.57816300  0.24588700  1
  C  C108  1  0.13643000  0.61799600  0.28614100  1
  C  C109  1  0.12816600  0.60576400  0.34432700  1
  C  C110  1  0.13038700  0.55230100  0.36305900  1
  C  C111  1  0.13591600  0.51432200  0.32205200  1
  C  C112  1  0.14385900  0.52754100  0.26508100  1
  C  C113  1  0.12655800  0.53886500  0.41974300  1
  C  C114  1  0.11764800  0.57798100  0.45953100  1
  C  C115  1  0.11312900  0.62957100  0.44078500  1
  C  C116  1  0.11960300  0.64376800  0.38447400  1
  C  C117  1  0.14809000  0.59159200  0.18826000  1
  C  C118  1  0.17134500  0.63641500  0.16674000  1
  C  C119  1  0.16442000  0.64933200  0.10969100  1
  C  C120  1  0.13440000  0.62023600  0.07192200  1
  C  C121  1  0.11644400  0.57309000  0.09208200  1
  C  C122  1  0.12538400  0.55839600  0.14784100  1
  C  C123  1  0.37534900  0.40165100  0.74588700  1
  C  C124  1  0.38375600  0.36181800  0.78614100  1
  C  C125  1  0.39202000  0.37405000  0.84432700  1
  C  C126  1  0.38979900  0.42751300  0.86305900  1
  C  C127  1  0.38427000  0.46549200  0.82205200  1
  C  C128  1  0.37632700  0.45227300  0.76508100  1
  C  C129  1  0.30882600  0.67098800  0.30301400  1
  C  C130  1  0.39362800  0.44094900  0.91974300  1
  C  C131  1  0.40253800  0.40183300  0.95953100  1
  C  C132  1  0.40705700  0.35024300  0.94078500  1
  C  C133  1  0.40058300  0.33604600  0.88447400  1
  C  C134  1  0.37209600  0.38822200  0.68826000  1
  C  C135  1  0.34884100  0.34339900  0.66674000  1
  C  C136  1  0.35576600  0.33048200  0.60969100  1
  C  C137  1  0.38578600  0.35957800  0.57192200  1
  C  C138  1  0.40374200  0.40672400  0.59208200  1
  C  C139  1  0.39480100  0.42141800  0.64784100  1
  C  C140  1  0.17183700  0.10516300  0.99588700  1
  C  C141  1  0.13200400  0.11357000  0.03614100  1
  C  C142  1  0.14423600  0.12183400  0.09432700  1
  C  C143  1  0.19769900  0.11961300  0.11305900  1
  C  C144  1  0.23567800  0.11408400  0.07205200  1
  C  C145  1  0.22245900  0.10614100  0.01508100  1
  C  C146  1  0.21113500  0.12344200  0.16974300  1
  C  C147  1  0.17201900  0.13235200  0.20953100  1
  C  C148  1  0.12042900  0.13687100  0.19078500  1
  C  C149  1  0.10623200  0.13039700  0.13447400  1
  C  C150  1  0.21136000  0.67098800  0.19698600  1
  C  C151  1  0.15840800  0.10191000  0.93826000  1
  C  C152  1  0.11358500  0.07865500  0.91674000  1
  C  C153  1  0.10066800  0.08558000  0.85969100  1
  C  C154  1  0.12976400  0.11560000  0.82192200  1
  C  C155  1  0.17691000  0.13355600  0.84208200  1
  C  C156  1  0.19160400  0.12461600  0.89784100  1
  C  C157  1  0.34834900  0.87465100  0.49588700  1
  C  C158  1  0.38818200  0.86624400  0.53614100  1
  C  C159  1  0.37595000  0.85798000  0.59432700  1
  C  C160  1  0.32248700  0.86020100  0.61305900  1
  C  C161  1  0.28450800  0.86573000  0.57205200  1
  C  C162  1  0.29772700  0.87367300  0.51508100  1
  C  C163  1  0.30905100  0.85637200  0.66974300  1
  C  C164  1  0.34816700  0.84746200  0.70953100  1
  C  C165  1  0.39975700  0.84294300  0.69078500  1
  C  C166  1  0.41395400  0.84941700  0.63447400  1
  C  C167  1  0.21136000  0.80882600  0.19698600  1
  C  C168  1  0.36177800  0.87790400  0.43826000  1
  C  C169  1  0.40660100  0.90115900  0.41674000  1
  C  C170  1  0.41951800  0.89423400  0.35969100  1
  C  C171  1  0.39042200  0.86421400  0.32192200  1
  C  C172  1  0.34327600  0.84625800  0.34208200  1
  C  C173  1  0.32858200  0.85519900  0.39784100  1
  C  C174  1  0.64483700  0.40165100  0.74588700  1
  C  C175  1  0.63643000  0.36181800  0.78614100  1
  C  C176  1  0.62816600  0.37405000  0.84432700  1
  C  C177  1  0.63038700  0.42751300  0.86305900  1
  C  C178  1  0.63591600  0.46549200  0.82205200  1
  C  C179  1  0.64385900  0.45227300  0.76508100  1
  C  C180  1  0.62655800  0.44094900  0.91974300  1
  C  C181  1  0.61764800  0.40183300  0.95953100  1
  C  C182  1  0.61312900  0.35024300  0.94078500  1
  C  C183  1  0.61960300  0.33604600  0.88447400  1
  C  C184  1  0.64809000  0.38822200  0.68826000  1
  C  C185  1  0.30882600  0.80882600  0.30301400  1
  C  C186  1  0.67134500  0.34339900  0.66674000  1
  C  C187  1  0.66442000  0.33048200  0.60969100  1
  C  C188  1  0.63440000  0.35957800  0.57192200  1
  C  C189  1  0.61644400  0.40672400  0.59208200  1
  C  C190  1  0.62538400  0.42141800  0.64784100  1
  C  C191  1  0.87534900  0.57816300  0.24588700  1
  C  C192  1  0.88375600  0.61799600  0.28614100  1
  C  C193  1  0.89202000  0.60576400  0.34432700  1
  C  C194  1  0.88979900  0.55230100  0.36305900  1
  C  C195  1  0.88427000  0.51432200  0.32205200  1
  C  C196  1  0.87632700  0.52754100  0.26508100  1
  C  C197  1  0.89362800  0.53886500  0.41974300  1
  C  C198  1  0.90253800  0.57798100  0.45953100  1
  C  C199  1  0.90705700  0.62957100  0.44078500  1
  C  C200  1  0.90058300  0.64376800  0.38447400  1
  C  C201  1  0.87209600  0.59159200  0.18826000  1
  C  C202  1  0.84884100  0.63641500  0.16674000  1
  C  C203  1  0.85576600  0.64933200  0.10969100  1
  C  C204  1  0.88578600  0.62023600  0.07192200  1
  C  C205  1  0.90374200  0.57309000  0.09208200  1
  C  C206  1  0.89480100  0.55839600  0.14784100  1
  C  C207  1  0.34834900  0.10516300  0.50411300  1
  C  C208  1  0.38818200  0.11357000  0.46385900  1
  C  C209  1  0.37595000  0.12183400  0.40567300  1
  C  C210  1  0.32248700  0.11961300  0.38694100  1
  C  C211  1  0.28450800  0.11408400  0.42794800  1
  C  C212  1  0.29772700  0.10614100  0.48491900  1
  C  C213  1  0.30905100  0.12344200  0.33025700  1
  C  C214  1  0.34816700  0.13235200  0.29046900  1
  C  C215  1  0.39975700  0.13687100  0.30921500  1
  C  C216  1  0.41395400  0.13039700  0.36552600  1
  C  C217  1  0.21136000  0.30882600  0.80301400  1
  C  C218  1  0.36177800  0.10191000  0.56174000  1
  C  C219  1  0.40660100  0.07865500  0.58326000  1
  C  C220  1  0.41951800  0.08558000  0.64030900  1
  C  C221  1  0.39042200  0.11560000  0.67807800  1
  C  C222  1  0.34327600  0.13355600  0.65791800  1
  C  C223  1  0.32858200  0.12461600  0.60215900  1
  C  C224  1  0.17183700  0.87465100  0.00411300  1
  C  C225  1  0.13200400  0.86624400  0.96385900  1
  C  C226  1  0.14423600  0.85798000  0.90567300  1
  C  C227  1  0.19769900  0.86020100  0.88694100  1
  C  C228  1  0.23567800  0.86573000  0.92794800  1
  C  C229  1  0.22245900  0.87367300  0.98491900  1
  C  C230  1  0.21113500  0.85637200  0.83025700  1
  C  C231  1  0.17201900  0.84746200  0.79046900  1
  C  C232  1  0.12042900  0.84294300  0.80921500  1
  C  C233  1  0.10623200  0.84941700  0.86552600  1
  C  C234  1  0.15840800  0.87790400  0.06174000  1
  C  C235  1  0.11358500  0.90115900  0.08326000  1
  C  C236  1  0.10066800  0.89423400  0.14030900  1
  C  C237  1  0.30882600  0.30882600  0.69698600  1
  C  C238  1  0.12976400  0.86421400  0.17807800  1
  C  C239  1  0.17691000  0.84625800  0.15791800  1
  C  C240  1  0.19160400  0.85519900  0.10215900  1
  C  C241  1  0.87534900  0.40165100  0.75411300  1
  C  C242  1  0.88375600  0.36181800  0.71385900  1
  C  C243  1  0.89202000  0.37405000  0.65567300  1
  C  C244  1  0.88979900  0.42751300  0.63694100  1
  C  C245  1  0.88427000  0.46549200  0.67794800  1
  C  C246  1  0.87632700  0.45227300  0.73491900  1
  C  C247  1  0.89362800  0.44094900  0.58025700  1
  C  C248  1  0.90253800  0.40183300  0.54046900  1
  C  C249  1  0.90705700  0.35024300  0.55921500  1
  C  C250  1  0.90058300  0.33604600  0.61552600  1
  C  C251  1  0.87209600  0.38822200  0.81174000  1
  C  C252  1  0.84884100  0.34339900  0.83326000  1
  C  C253  1  0.85576600  0.33048200  0.89030900  1
  C  C254  1  0.88578600  0.35957800  0.92807800  1
  C  C255  1  0.90374200  0.40672400  0.90791800  1
  C  C256  1  0.94117400  0.03864000  0.94698600  1
  C  C257  1  0.30882600  0.17098800  0.69698600  1
  C  C258  1  0.89480100  0.42141800  0.85215900  1
  C  C259  1  0.64483700  0.57816300  0.25411300  1
  C  C260  1  0.63643000  0.61799600  0.21385900  1
  C  C261  1  0.62816600  0.60576400  0.15567300  1
  C  C262  1  0.63038700  0.55230100  0.13694100  1
  C  C263  1  0.63591600  0.51432200  0.17794800  1
  C  C264  1  0.64385900  0.52754100  0.23491900  1
  C  C265  1  0.62655800  0.53886500  0.08025700  1
  C  C266  1  0.61764800  0.57798100  0.04046900  1
  C  C267  1  0.61312900  0.62957100  0.05921500  1
  C  C268  1  0.61960300  0.64376800  0.11552600  1
  C  C269  1  0.64809000  0.59159200  0.31174000  1
  C  C270  1  0.67134500  0.63641500  0.33326000  1
  C  C271  1  0.66442000  0.64933200  0.39030900  1
  C  C272  1  0.63440000  0.62023600  0.42807800  1
  C  C273  1  0.61644400  0.57309000  0.40791800  1
  C  C274  1  0.62538400  0.55839600  0.35215900  1
  C  C275  1  0.21136000  0.17098800  0.80301400  1
  C  C276  1  0.71136000  0.30882600  0.69698600  1
  C  C277  1  0.80882600  0.30882600  0.80301400  1
  C  C278  1  0.80882600  0.17098800  0.80301400  1
  C  C279  1  0.71136000  0.17098800  0.69698600  1
  C  C280  1  0.80882600  0.67098800  0.19698600  1
  C  C281  1  0.71136000  0.67098800  0.30301400  1
  C  C282  1  0.71136000  0.80882600  0.30301400  1
  C  C283  1  0.07901200  0.03864000  0.94698600  1
  C  C284  1  0.80882600  0.80882600  0.19698600  1
  C  C285  1  0.44117400  0.44117400  0.55301400  1
  C  C286  1  0.44117400  0.53864000  0.44698600  1
  C  C287  1  0.57901200  0.53864000  0.44698600  1
  C  C288  1  0.57901200  0.44117400  0.55301400  1
  O  O1  1  0.06234200  0.99798000  0.92840000  1
  O  O2  1  0.06234200  0.49798000  0.07160000  1
  O  O3  1  0.06234200  0.55572600  0.00878200  1
  O  O4  1  0.06234200  0.42408800  0.99121800  1
  O  O5  1  0.06234200  0.48183400  0.92840000  1
  O  O6  1  0.95784400  0.42408800  0.99121800  1
  O  O7  1  0.95784400  0.48183400  0.92840000  1
  O  O8  1  0.95784400  0.49798000  0.07160000  1
  O  O9  1  0.95784400  0.55572600  0.00878200  1
  O  O10  1  0.06234200  0.98183400  0.07160000  1
  O  O11  1  0.06234200  0.92408800  0.00878200  1
  O  O12  1  0.56234200  0.99798000  0.57160000  1
  O  O13  1  0.56234200  0.05572600  0.50878200  1
  O  O14  1  0.56234200  0.92408800  0.49121800  1
  O  O15  1  0.56234200  0.98183400  0.42840000  1
  O  O16  1  0.45784400  0.92408800  0.49121800  1
  O  O17  1  0.45784400  0.98183400  0.42840000  1
  O  O18  1  0.45784400  0.99798000  0.57160000  1
  O  O19  1  0.45784400  0.05572600  0.50878200  1
  O  O20  1  0.95784400  0.98183400  0.07160000  1
  O  O21  1  0.26816600  0.68765800  0.32160000  1
  O  O22  1  0.32591200  0.68765800  0.25878200  1
  O  O23  1  0.19427400  0.68765800  0.24121800  1
  O  O24  1  0.25202000  0.68765800  0.17840000  1
  O  O25  1  0.19427400  0.79215600  0.24121800  1
  O  O26  1  0.25202000  0.79215600  0.17840000  1
  O  O27  1  0.95784400  0.92408800  0.00878200  1
  O  O28  1  0.26816600  0.79215600  0.32160000  1
  O  O29  1  0.32591200  0.79215600  0.25878200  1
  O  O30  1  0.25202000  0.29215600  0.82160000  1
  O  O31  1  0.19427400  0.29215600  0.75878200  1
  O  O32  1  0.32591200  0.29215600  0.74121800  1
  O  O33  1  0.26816600  0.29215600  0.67840000  1
  O  O34  1  0.32591200  0.18765800  0.74121800  1
  O  O35  1  0.26816600  0.18765800  0.67840000  1
  O  O36  1  0.25202000  0.18765800  0.82160000  1
  O  O37  1  0.19427400  0.18765800  0.75878200  1
  O  O38  1  0.75202000  0.29215600  0.67840000  1
  O  O39  1  0.95784400  0.05572600  0.99121800  1
  O  O40  1  0.69427400  0.29215600  0.74121800  1
  O  O41  1  0.82591200  0.29215600  0.75878200  1
  O  O42  1  0.76816600  0.29215600  0.82160000  1
  O  O43  1  0.82591200  0.18765800  0.75878200  1
  O  O44  1  0.76816600  0.18765800  0.82160000  1
  O  O45  1  0.75202000  0.18765800  0.67840000  1
  O  O46  1  0.69427400  0.18765800  0.74121800  1
  O  O47  1  0.95784400  0.99798000  0.92840000  1
  O  O48  1  0.76816600  0.68765800  0.17840000  1
  O  O49  1  0.82591200  0.68765800  0.24121800  1
  O  O50  1  0.69427400  0.68765800  0.25878200  1
  O  O51  1  0.75202000  0.68765800  0.32160000  1
  O  O52  1  0.69427400  0.79215600  0.25878200  1
  O  O53  1  0.75202000  0.79215600  0.32160000  1
  O  O54  1  0.76816600  0.79215600  0.17840000  1
  O  O55  1  0.82591200  0.79215600  0.24121800  1
  O  O56  1  0.45784400  0.48183400  0.57160000  1
  O  O57  1  0.45784400  0.42408800  0.50878200  1
  O  O58  1  0.06234200  0.05572600  0.99121800  1
  O  O59  1  0.45784400  0.55572600  0.49121800  1
  O  O60  1  0.45784400  0.49798000  0.42840000  1
  O  O61  1  0.56234200  0.55572600  0.49121800  1
  O  O62  1  0.56234200  0.49798000  0.42840000  1
  O  O63  1  0.56234200  0.48183400  0.57160000  1
  O  O64  1  0.56234200  0.42408800  0.50878200  1
