# generated using pymatgen
data_CuH7C13NO4
_symmetry_space_group_name_H-M   'P 1'
_cell_length_a   25.72300000
_cell_length_b   25.72300000
_cell_length_c   23.63370000
_cell_angle_alpha   90.00000000
_cell_angle_beta   90.00000000
_cell_angle_gamma   90.00000000
_symmetry_Int_Tables_number   1
_chemical_formula_structural   CuH7C13NO4
_chemical_formula_sum   'Cu16 H112 C208 N16 O64'
_cell_volume   15637.77477537
_cell_formula_units_Z   16
loop_
 _symmetry_equiv_pos_site_id
 _symmetry_equiv_pos_as_xyz
  1  'x, y, z'
loop_
 _atom_site_type_symbol
 _atom_site_label
 _atom_site_symmetry_multiplicity
 _atom_site_fract_x
 _atom_site_fract_y
 _atom_site_fract_z
 _atom_site_occupancy
  Cu  Cu1  1  0.01015300  0.95335100  0.96027800  1
  Cu  Cu2  1  0.01015300  0.02634300  0.03972200  1
  Cu  Cu3  1  0.51015300  0.02634300  0.46027800  1
  Cu  Cu4  1  0.51015300  0.95335100  0.53972200  1
  Cu  Cu5  1  0.29664900  0.73984700  0.21027800  1
  Cu  Cu6  1  0.22365700  0.73984700  0.28972200  1
  Cu  Cu7  1  0.22365700  0.23984700  0.71027800  1
  Cu  Cu8  1  0.29664900  0.23984700  0.78972200  1
  Cu  Cu9  1  0.72365700  0.23984700  0.78972200  1
  Cu  Cu10  1  0.79664900  0.23984700  0.71027800  1
  Cu  Cu11  1  0.79664900  0.73984700  0.28972200  1
  Cu  Cu12  1  0.72365700  0.73984700  0.21027800  1
  Cu  Cu13  1  0.51015300  0.45335100  0.46027800  1
  Cu  Cu14  1  0.51015300  0.52634300  0.53972200  1
  Cu  Cu15  1  0.01015300  0.52634300  0.96027800  1
  Cu  Cu16  1  0.01015300  0.45335100  0.03972200  1
  H  H1  1  0.86670600  0.92579000  0.88718400  1
  H  H2  1  0.84429900  0.84429900  0.83379300  1
  H  H3  1  0.83788900  0.76553900  0.89805800  1
  H  H4  1  0.85711500  0.76798100  0.99660700  1
  H  H5  1  0.86138500  0.89845500  0.22039100  1
  H  H6  1  0.91736400  0.94936000  0.15495900  1
  H  H7  1  0.82443800  0.79718000  0.08207300  1
  H  H8  1  0.65360000  0.05390500  0.38718400  1
  H  H9  1  0.67600600  0.13539600  0.33379300  1
  H  H10  1  0.68241600  0.21415500  0.39805800  1
  H  H11  1  0.66319000  0.21171300  0.49660700  1
  H  H12  1  0.65892000  0.08124000  0.72039100  1
  H  H13  1  0.60294100  0.03033400  0.65495900  1
  H  H14  1  0.69586700  0.18251500  0.58207300  1
  H  H15  1  0.32421000  0.59640000  0.13718400  1
  H  H16  1  0.40570100  0.57399400  0.08379300  1
  H  H17  1  0.48446100  0.56758400  0.14805800  1
  H  H18  1  0.48201900  0.58681000  0.24660700  1
  H  H19  1  0.35154500  0.59108000  0.47039100  1
  H  H20  1  0.30064000  0.64705900  0.40495900  1
  H  H21  1  0.45282000  0.55413300  0.33207300  1
  H  H22  1  0.19609500  0.38329400  0.63718400  1
  H  H23  1  0.11460400  0.40570100  0.58379300  1
  H  H24  1  0.03584500  0.41211100  0.64805800  1
  H  H25  1  0.03828700  0.39288500  0.74660700  1
  H  H26  1  0.16876000  0.38861500  0.97039100  1
  H  H27  1  0.21966600  0.33263600  0.90495900  1
  H  H28  1  0.06748500  0.42556200  0.83207300  1
  H  H29  1  0.65360000  0.92579000  0.61281600  1
  H  H30  1  0.67600600  0.84429900  0.66620700  1
  H  H31  1  0.68241600  0.76553900  0.60194200  1
  H  H32  1  0.66319000  0.76798100  0.50339300  1
  H  H33  1  0.65892000  0.89845500  0.27960900  1
  H  H34  1  0.60294100  0.94936000  0.34504100  1
  H  H35  1  0.69586700  0.79718000  0.41792700  1
  H  H36  1  0.86670600  0.05390500  0.11281600  1
  H  H37  1  0.84429900  0.13539600  0.16620700  1
  H  H38  1  0.83788900  0.21415500  0.10194200  1
  H  H39  1  0.85711500  0.21171300  0.00339300  1
  H  H40  1  0.86138500  0.08124000  0.77960900  1
  H  H41  1  0.91736400  0.03033400  0.84504100  1
  H  H42  1  0.82443800  0.18251500  0.91792700  1
  H  H43  1  0.19609500  0.59640000  0.36281600  1
  H  H44  1  0.11460400  0.57399400  0.41620700  1
  H  H45  1  0.03584500  0.56758400  0.35194200  1
  H  H46  1  0.03828700  0.58681000  0.25339300  1
  H  H47  1  0.16876000  0.59108000  0.02960900  1
  H  H48  1  0.21966600  0.64705900  0.09504100  1
  H  H49  1  0.06748500  0.55413300  0.16792700  1
  H  H50  1  0.32421000  0.38329400  0.86281600  1
  H  H51  1  0.40570100  0.40570100  0.91620700  1
  H  H52  1  0.48446100  0.41211100  0.85194200  1
  H  H53  1  0.48201900  0.39288500  0.75339300  1
  H  H54  1  0.35154500  0.38861500  0.52960900  1
  H  H55  1  0.30064000  0.33263600  0.59504100  1
  H  H56  1  0.45282000  0.42556200  0.66792700  1
  H  H57  1  0.15360000  0.05390500  0.11281600  1
  H  H58  1  0.17600600  0.13539600  0.16620700  1
  H  H59  1  0.18241600  0.21415500  0.10194200  1
  H  H60  1  0.16319000  0.21171300  0.00339300  1
  H  H61  1  0.15892000  0.08124000  0.77960900  1
  H  H62  1  0.10294100  0.03033400  0.84504100  1
  H  H63  1  0.19586700  0.18251500  0.91792700  1
  H  H64  1  0.36670600  0.92579000  0.61281600  1
  H  H65  1  0.34429900  0.84429900  0.66620700  1
  H  H66  1  0.33788900  0.76553900  0.60194200  1
  H  H67  1  0.35711500  0.76798100  0.50339300  1
  H  H68  1  0.36138500  0.89845500  0.27960900  1
  H  H69  1  0.41736400  0.94936000  0.34504100  1
  H  H70  1  0.32443800  0.79718000  0.41792700  1
  H  H71  1  0.69609500  0.38329400  0.86281600  1
  H  H72  1  0.61460400  0.40570100  0.91620700  1
  H  H73  1  0.53584500  0.41211100  0.85194200  1
  H  H74  1  0.53828700  0.39288500  0.75339300  1
  H  H75  1  0.66876000  0.38861500  0.52960900  1
  H  H76  1  0.71966600  0.33263600  0.59504100  1
  H  H77  1  0.56748500  0.42556200  0.66792700  1
  H  H78  1  0.82421000  0.59640000  0.36281600  1
  H  H79  1  0.90570100  0.57399400  0.41620700  1
  H  H80  1  0.98446100  0.56758400  0.35194200  1
  H  H81  1  0.98201900  0.58681000  0.25339300  1
  H  H82  1  0.85154500  0.59108000  0.02960900  1
  H  H83  1  0.80064000  0.64705900  0.09504100  1
  H  H84  1  0.95282000  0.55413300  0.16792700  1
  H  H85  1  0.36670600  0.05390500  0.38718400  1
  H  H86  1  0.34429900  0.13539600  0.33379300  1
  H  H87  1  0.33788900  0.21415500  0.39805800  1
  H  H88  1  0.35711500  0.21171300  0.49660700  1
  H  H89  1  0.36138500  0.08124000  0.72039100  1
  H  H90  1  0.41736400  0.03033400  0.65495900  1
  H  H91  1  0.32443800  0.18251500  0.58207300  1
  H  H92  1  0.15360000  0.92579000  0.88718400  1
  H  H93  1  0.17600600  0.84429900  0.83379300  1
  H  H94  1  0.18241600  0.76553900  0.89805800  1
  H  H95  1  0.16319000  0.76798100  0.99660700  1
  H  H96  1  0.15892000  0.89845500  0.22039100  1
  H  H97  1  0.10294100  0.94936000  0.15495900  1
  H  H98  1  0.19586700  0.79718000  0.08207300  1
  H  H99  1  0.82421000  0.38329400  0.63718400  1
  H  H100  1  0.90570100  0.40570100  0.58379300  1
  H  H101  1  0.98446100  0.41211100  0.64805800  1
  H  H102  1  0.98201900  0.39288500  0.74660700  1
  H  H103  1  0.85154500  0.38861500  0.97039100  1
  H  H104  1  0.80064000  0.33263600  0.90495900  1
  H  H105  1  0.95282000  0.42556200  0.83207300  1
  H  H106  1  0.69609500  0.59640000  0.13718400  1
  H  H107  1  0.61460400  0.57399400  0.08379300  1
  H  H108  1  0.53584500  0.56758400  0.14805800  1
  H  H109  1  0.53828700  0.58681000  0.24660700  1
  H  H110  1  0.66876000  0.59108000  0.47039100  1
  H  H111  1  0.71966600  0.64705900  0.40495900  1
  H  H112  1  0.56748500  0.55413300  0.33207300  1
  C  C1  1  0.07948000  0.53886900  0.05335500  1
  C  C2  1  0.07948000  0.44082600  0.94664500  1
  C  C3  1  0.94082600  0.44082600  0.94664500  1
  C  C4  1  0.94082600  0.53886900  0.05335500  1
  C  C5  1  0.07948000  0.94082600  0.05335500  1
  C  C6  1  0.86956700  0.85259600  0.99789900  1
  C  C7  1  0.86167300  0.88996700  0.90818600  1
  C  C8  1  0.84984400  0.84444100  0.88039600  1
  C  C9  1  0.84633500  0.80209300  0.91697000  1
  C  C10  1  0.85686200  0.80382300  0.97562400  1
  C  C11  1  0.84100900  0.84318600  0.15527300  1
  C  C12  1  0.86507500  0.88523800  0.17716600  1
  C  C13  1  0.89420600  0.91591200  0.14168100  1
  C  C14  1  0.89947700  0.90546100  0.08371100  1
  C  C15  1  0.87567500  0.86081500  0.05897700  1
  C  C16  1  0.84608900  0.82987700  0.09671500  1
  C  C17  1  0.65073900  0.12709900  0.49789900  1
  C  C18  1  0.65863200  0.08972800  0.40818600  1
  C  C19  1  0.67046200  0.13525300  0.38039600  1
  C  C20  1  0.67397000  0.17760200  0.41697000  1
  C  C21  1  0.66344300  0.17587100  0.47562400  1
  C  C22  1  0.67929700  0.13650800  0.65527300  1
  C  C23  1  0.65523000  0.09445700  0.67716600  1
  C  C24  1  0.62609900  0.06378300  0.64168100  1
  C  C25  1  0.62082800  0.07423400  0.58371100  1
  C  C26  1  0.64463100  0.11888000  0.55897700  1
  C  C27  1  0.67421700  0.14981800  0.59671500  1
  C  C28  1  0.39740400  0.59926100  0.24789900  1
  C  C29  1  0.36003300  0.59136800  0.15818600  1
  C  C30  1  0.40555900  0.57953800  0.13039600  1
  C  C31  1  0.44790700  0.57603000  0.16697000  1
  C  C32  1  0.44617700  0.58655700  0.22562400  1
  C  C33  1  0.57948000  0.03886900  0.55335500  1
  C  C34  1  0.40681400  0.57070300  0.40527300  1
  C  C35  1  0.36476200  0.59477000  0.42716600  1
  C  C36  1  0.33408800  0.62390100  0.39168100  1
  C  C37  1  0.34453900  0.62917200  0.33371100  1
  C  C38  1  0.38918500  0.60536900  0.30897700  1
  C  C39  1  0.42012300  0.57578300  0.34671500  1
  C  C40  1  0.12290100  0.38043300  0.74789900  1
  C  C41  1  0.16027200  0.38832700  0.65818600  1
  C  C42  1  0.11474700  0.40015600  0.63039600  1
  C  C43  1  0.07239800  0.40366500  0.66697000  1
  C  C44  1  0.07412900  0.39313800  0.72562400  1
  C  C45  1  0.11349200  0.40899100  0.90527300  1
  C  C46  1  0.15554300  0.38492500  0.92716600  1
  C  C47  1  0.18621700  0.35579400  0.89168100  1
  C  C48  1  0.17576600  0.35052300  0.83371100  1
  C  C49  1  0.13112000  0.37432500  0.80897700  1
  C  C50  1  0.10018200  0.40391100  0.84671500  1
  C  C51  1  0.65073900  0.85259600  0.50210100  1
  C  C52  1  0.57948000  0.94082600  0.44664500  1
  C  C53  1  0.65863200  0.88996700  0.59181400  1
  C  C54  1  0.67046200  0.84444100  0.61960400  1
  C  C55  1  0.67397000  0.80209300  0.58303000  1
  C  C56  1  0.66344300  0.80382300  0.52437600  1
  C  C57  1  0.67929700  0.84318600  0.34472700  1
  C  C58  1  0.65523000  0.88523800  0.32283400  1
  C  C59  1  0.94082600  0.94082600  0.05335500  1
  C  C60  1  0.62609900  0.91591200  0.35831900  1
  C  C61  1  0.62082800  0.90546100  0.41628900  1
  C  C62  1  0.64463100  0.86081500  0.44102300  1
  C  C63  1  0.67421700  0.82987700  0.40328500  1
  C  C64  1  0.86956700  0.12709900  0.00210100  1
  C  C65  1  0.86167300  0.08972800  0.09181400  1
  C  C66  1  0.84984400  0.13525300  0.11960400  1
  C  C67  1  0.84633500  0.17760200  0.08303000  1
  C  C68  1  0.85686200  0.17587100  0.02437600  1
  C  C69  1  0.84100900  0.13650800  0.84472700  1
  C  C70  1  0.86507500  0.09445700  0.82283400  1
  C  C71  1  0.89420600  0.06378300  0.85831900  1
  C  C72  1  0.44082600  0.94082600  0.44664500  1
  C  C73  1  0.89947700  0.07423400  0.91628900  1
  C  C74  1  0.87567500  0.11888000  0.94102300  1
  C  C75  1  0.84608900  0.14981800  0.90328500  1
  C  C76  1  0.12290100  0.59926100  0.25210100  1
  C  C77  1  0.16027200  0.59136800  0.34181400  1
  C  C78  1  0.11474700  0.57953800  0.36960400  1
  C  C79  1  0.07239800  0.57603000  0.33303000  1
  C  C80  1  0.07412900  0.58655700  0.27437600  1
  C  C81  1  0.11349200  0.57070300  0.09472700  1
  C  C82  1  0.15554300  0.59477000  0.07283400  1
  C  C83  1  0.18621700  0.62390100  0.10831900  1
  C  C84  1  0.17576600  0.62917200  0.16628900  1
  C  C85  1  0.13112000  0.60536900  0.19102300  1
  C  C86  1  0.10018200  0.57578300  0.15328500  1
  C  C87  1  0.39740400  0.38043300  0.75210100  1
  C  C88  1  0.36003300  0.38832700  0.84181400  1
  C  C89  1  0.40555900  0.40015600  0.86960400  1
  C  C90  1  0.44790700  0.40366500  0.83303000  1
  C  C91  1  0.44082600  0.03886900  0.55335500  1
  C  C92  1  0.44617700  0.39313800  0.77437600  1
  C  C93  1  0.40681400  0.40899100  0.59472700  1
  C  C94  1  0.36476200  0.38492500  0.57283400  1
  C  C95  1  0.33408800  0.35579400  0.60831900  1
  C  C96  1  0.34453900  0.35052300  0.66628900  1
  C  C97  1  0.38918500  0.37432500  0.69102300  1
  C  C98  1  0.42012300  0.40391100  0.65328500  1
  C  C99  1  0.15073900  0.12709900  0.00210100  1
  C  C100  1  0.15863200  0.08972800  0.09181400  1
  C  C101  1  0.17046200  0.13525300  0.11960400  1
  C  C102  1  0.17397000  0.17760200  0.08303000  1
  C  C103  1  0.16344300  0.17587100  0.02437600  1
  C  C104  1  0.17929700  0.13650800  0.84472700  1
  C  C105  1  0.15523000  0.09445700  0.82283400  1
  C  C106  1  0.12609900  0.06378300  0.85831900  1
  C  C107  1  0.12082800  0.07423400  0.91628900  1
  C  C108  1  0.14463100  0.11888000  0.94102300  1
  C  C109  1  0.17421700  0.14981800  0.90328500  1
  C  C110  1  0.36956700  0.85259600  0.50210100  1
  C  C111  1  0.36167300  0.88996700  0.59181400  1
  C  C112  1  0.34984400  0.84444100  0.61960400  1
  C  C113  1  0.34633500  0.80209300  0.58303000  1
  C  C114  1  0.35686200  0.80382300  0.52437600  1
  C  C115  1  0.34100900  0.84318600  0.34472700  1
  C  C116  1  0.36507500  0.88523800  0.32283400  1
  C  C117  1  0.39420600  0.91591200  0.35831900  1
  C  C118  1  0.39947700  0.90546100  0.41628900  1
  C  C119  1  0.37567500  0.86081500  0.44102300  1
  C  C120  1  0.34608900  0.82987700  0.40328500  1
  C  C121  1  0.30917400  0.67052000  0.30335500  1
  C  C122  1  0.62290100  0.38043300  0.75210100  1
  C  C123  1  0.66027200  0.38832700  0.84181400  1
  C  C124  1  0.61474700  0.40015600  0.86960400  1
  C  C125  1  0.57239800  0.40366500  0.83303000  1
  C  C126  1  0.57412900  0.39313800  0.77437600  1
  C  C127  1  0.61349200  0.40899100  0.59472700  1
  C  C128  1  0.65554300  0.38492500  0.57283400  1
  C  C129  1  0.68621700  0.35579400  0.60831900  1
  C  C130  1  0.67576600  0.35052300  0.66628900  1
  C  C131  1  0.63112000  0.37432500  0.69102300  1
  C  C132  1  0.60018200  0.40391100  0.65328500  1
  C  C133  1  0.89740400  0.59926100  0.25210100  1
  C  C134  1  0.86003300  0.59136800  0.34181400  1
  C  C135  1  0.90555900  0.57953800  0.36960400  1
  C  C136  1  0.94790700  0.57603000  0.33303000  1
  C  C137  1  0.94617700  0.58655700  0.27437600  1
  C  C138  1  0.21113100  0.67052000  0.19664500  1
  C  C139  1  0.90681400  0.57070300  0.09472700  1
  C  C140  1  0.86476200  0.59477000  0.07283400  1
  C  C141  1  0.83408800  0.62390100  0.10831900  1
  C  C142  1  0.84453900  0.62917200  0.16628900  1
  C  C143  1  0.88918500  0.60536900  0.19102300  1
  C  C144  1  0.92012300  0.57578300  0.15328500  1
  C  C145  1  0.36956700  0.12709900  0.49789900  1
  C  C146  1  0.36167300  0.08972800  0.40818600  1
  C  C147  1  0.34984400  0.13525300  0.38039600  1
  C  C148  1  0.34633500  0.17760200  0.41697000  1
  C  C149  1  0.35686200  0.17587100  0.47562400  1
  C  C150  1  0.34100900  0.13650800  0.65527300  1
  C  C151  1  0.36507500  0.09445700  0.67716600  1
  C  C152  1  0.39420600  0.06378300  0.64168100  1
  C  C153  1  0.39947700  0.07423400  0.58371100  1
  C  C154  1  0.37567500  0.11888000  0.55897700  1
  C  C155  1  0.34608900  0.14981800  0.59671500  1
  C  C156  1  0.15073900  0.85259600  0.99789900  1
  C  C157  1  0.21113100  0.80917400  0.19664500  1
  C  C158  1  0.15863200  0.88996700  0.90818600  1
  C  C159  1  0.17046200  0.84444100  0.88039600  1
  C  C160  1  0.17397000  0.80209300  0.91697000  1
  C  C161  1  0.16344300  0.80382300  0.97562400  1
  C  C162  1  0.17929700  0.84318600  0.15527300  1
  C  C163  1  0.15523000  0.88523800  0.17716600  1
  C  C164  1  0.12609900  0.91591200  0.14168100  1
  C  C165  1  0.12082800  0.90546100  0.08371100  1
  C  C166  1  0.14463100  0.86081500  0.05897700  1
  C  C167  1  0.17421700  0.82987700  0.09671500  1
  C  C168  1  0.89740400  0.38043300  0.74789900  1
  C  C169  1  0.86003300  0.38832700  0.65818600  1
  C  C170  1  0.90555900  0.40015600  0.63039600  1
  C  C171  1  0.94790700  0.40366500  0.66697000  1
  C  C172  1  0.94617700  0.39313800  0.72562400  1
  C  C173  1  0.90681400  0.40899100  0.90527300  1
  C  C174  1  0.86476200  0.38492500  0.92716600  1
  C  C175  1  0.30917400  0.80917400  0.30335500  1
  C  C176  1  0.83408800  0.35579400  0.89168100  1
  C  C177  1  0.84453900  0.35052300  0.83371100  1
  C  C178  1  0.88918500  0.37432500  0.80897700  1
  C  C179  1  0.92012300  0.40391100  0.84671500  1
  C  C180  1  0.62290100  0.59926100  0.24789900  1
  C  C181  1  0.66027200  0.59136800  0.15818600  1
  C  C182  1  0.61474700  0.57953800  0.13039600  1
  C  C183  1  0.57239800  0.57603000  0.16697000  1
  C  C184  1  0.57412900  0.58655700  0.22562400  1
  C  C185  1  0.61349200  0.57070300  0.40527300  1
  C  C186  1  0.65554300  0.59477000  0.42716600  1
  C  C187  1  0.68621700  0.62390100  0.39168100  1
  C  C188  1  0.67576600  0.62917200  0.33371100  1
  C  C189  1  0.63112000  0.60536900  0.30897700  1
  C  C190  1  0.60018200  0.57578300  0.34671500  1
  C  C191  1  0.21113100  0.30917400  0.80335500  1
  C  C192  1  0.30917400  0.30917400  0.69664500  1
  C  C193  1  0.94082600  0.03886900  0.94664500  1
  C  C194  1  0.30917400  0.17052000  0.69664500  1
  C  C195  1  0.21113100  0.17052000  0.80335500  1
  C  C196  1  0.71113100  0.30917400  0.69664500  1
  C  C197  1  0.80917400  0.30917400  0.80335500  1
  C  C198  1  0.80917400  0.17052000  0.80335500  1
  C  C199  1  0.71113100  0.17052000  0.69664500  1
  C  C200  1  0.80917400  0.67052000  0.19664500  1
  C  C201  1  0.71113100  0.67052000  0.30335500  1
  C  C202  1  0.71113100  0.80917400  0.30335500  1
  C  C203  1  0.07948000  0.03886900  0.94664500  1
  C  C204  1  0.80917400  0.80917400  0.19664500  1
  C  C205  1  0.44082600  0.44082600  0.55335500  1
  C  C206  1  0.44082600  0.53886900  0.44664500  1
  C  C207  1  0.57948000  0.53886900  0.44664500  1
  C  C208  1  0.57948000  0.44082600  0.55335500  1
  N  N1  1  0.86984400  0.89549700  0.96225300  1
  N  N2  1  0.65046200  0.08419700  0.46225300  1
  N  N3  1  0.35450300  0.59953800  0.21225300  1
  N  N4  1  0.16580300  0.38015600  0.71225300  1
  N  N5  1  0.65046200  0.89549700  0.53774700  1
  N  N6  1  0.86984400  0.08419700  0.03774700  1
  N  N7  1  0.16580300  0.59953800  0.28774700  1
  N  N8  1  0.35450300  0.38015600  0.78774700  1
  N  N9  1  0.15046200  0.08419700  0.03774700  1
  N  N10  1  0.36984400  0.89549700  0.53774700  1
  N  N11  1  0.66580300  0.38015600  0.78774700  1
  N  N12  1  0.85450300  0.59953800  0.28774700  1
  N  N13  1  0.36984400  0.08419700  0.46225300  1
  N  N14  1  0.15046200  0.89549700  0.96225300  1
  N  N15  1  0.85450300  0.38015600  0.71225300  1
  N  N16  1  0.66580300  0.59953800  0.21225300  1
  O  O1  1  0.06271100  0.99796800  0.92793900  1
  O  O2  1  0.06271100  0.49796800  0.07206100  1
  O  O3  1  0.06271100  0.55605600  0.00883800  1
  O  O4  1  0.06271100  0.42363900  0.99116200  1
  O  O5  1  0.06271100  0.48172700  0.92793900  1
  O  O6  1  0.95759400  0.42363900  0.99116200  1
  O  O7  1  0.95759400  0.48172700  0.92793900  1
  O  O8  1  0.95759400  0.49796800  0.07206100  1
  O  O9  1  0.95759400  0.55605600  0.00883800  1
  O  O10  1  0.06271100  0.98172700  0.07206100  1
  O  O11  1  0.06271100  0.92363900  0.00883800  1
  O  O12  1  0.56271100  0.99796800  0.57206100  1
  O  O13  1  0.56271100  0.05605600  0.50883800  1
  O  O14  1  0.56271100  0.92363900  0.49116200  1
  O  O15  1  0.56271100  0.98172700  0.42793900  1
  O  O16  1  0.45759400  0.92363900  0.49116200  1
  O  O17  1  0.45759400  0.98172700  0.42793900  1
  O  O18  1  0.45759400  0.99796800  0.57206100  1
  O  O19  1  0.45759400  0.05605600  0.50883800  1
  O  O20  1  0.95759400  0.98172700  0.07206100  1
  O  O21  1  0.26827300  0.68728900  0.32206100  1
  O  O22  1  0.32636100  0.68728900  0.25883800  1
  O  O23  1  0.19394400  0.68728900  0.24116200  1
  O  O24  1  0.25203200  0.68728900  0.17793900  1
  O  O25  1  0.19394400  0.79240600  0.24116200  1
  O  O26  1  0.25203200  0.79240600  0.17793900  1
  O  O27  1  0.95759400  0.92363900  0.00883800  1
  O  O28  1  0.26827300  0.79240600  0.32206100  1
  O  O29  1  0.32636100  0.79240600  0.25883800  1
  O  O30  1  0.25203200  0.29240600  0.82206100  1
  O  O31  1  0.19394400  0.29240600  0.75883800  1
  O  O32  1  0.32636100  0.29240600  0.74116200  1
  O  O33  1  0.26827300  0.29240600  0.67793900  1
  O  O34  1  0.32636100  0.18728900  0.74116200  1
  O  O35  1  0.26827300  0.18728900  0.67793900  1
  O  O36  1  0.25203200  0.18728900  0.82206100  1
  O  O37  1  0.19394400  0.18728900  0.75883800  1
  O  O38  1  0.75203200  0.29240600  0.67793900  1
  O  O39  1  0.95759400  0.05605600  0.99116200  1
  O  O40  1  0.69394400  0.29240600  0.74116200  1
  O  O41  1  0.82636100  0.29240600  0.75883800  1
  O  O42  1  0.76827300  0.29240600  0.82206100  1
  O  O43  1  0.82636100  0.18728900  0.75883800  1
  O  O44  1  0.76827300  0.18728900  0.82206100  1
  O  O45  1  0.75203200  0.18728900  0.67793900  1
  O  O46  1  0.69394400  0.18728900  0.74116200  1
  O  O47  1  0.95759400  0.99796800  0.92793900  1
  O  O48  1  0.76827300  0.68728900  0.17793900  1
  O  O49  1  0.82636100  0.68728900  0.24116200  1
  O  O50  1  0.69394400  0.68728900  0.25883800  1
  O  O51  1  0.75203200  0.68728900  0.32206100  1
  O  O52  1  0.69394400  0.79240600  0.25883800  1
  O  O53  1  0.75203200  0.79240600  0.32206100  1
  O  O54  1  0.76827300  0.79240600  0.17793900  1
  O  O55  1  0.82636100  0.79240600  0.24116200  1
  O  O56  1  0.45759400  0.48172700  0.57206100  1
  O  O57  1  0.45759400  0.42363900  0.50883800  1
  O  O58  1  0.06271100  0.05605600  0.99116200  1
  O  O59  1  0.45759400  0.55605600  0.49116200  1
  O  O60  1  0.45759400  0.49796800  0.42793900  1
  O  O61  1  0.56271100  0.55605600  0.49116200  1
  O  O62  1  0.56271100  0.49796800  0.42793900  1
  O  O63  1  0.56271100  0.48172700  0.57206100  1
  O  O64  1  0.56271100  0.42363900  0.50883800  1
