# generated using pymatgen
data_H16PdC19(NO3)2
_symmetry_space_group_name_H-M   'P 1'
_cell_length_a   20.45620000
_cell_length_b   20.45620000
_cell_length_c   16.70260000
_cell_angle_alpha   90.00000000
_cell_angle_beta   90.00000000
_cell_angle_gamma   120.00000000
_symmetry_Int_Tables_number   1
_chemical_formula_structural   H16PdC19(NO3)2
_chemical_formula_sum   'H96 Pd6 C114 N12 O36'
_cell_volume   6052.91582670
_cell_formula_units_Z   6
loop_
 _symmetry_equiv_pos_site_id
 _symmetry_equiv_pos_as_xyz
  1  'x, y, z'
loop_
 _atom_site_type_symbol
 _atom_site_label
 _atom_site_symmetry_multiplicity
 _atom_site_fract_x
 _atom_site_fract_y
 _atom_site_fract_z
 _atom_site_occupancy
  H  H1  1  0.31439600  0.22322400  0.01489400  1
  H  H2  1  0.54529700  0.61752900  0.90274800  1
  H  H3  1  0.48038900  0.66105300  0.00307900  1
  H  H4  1  0.39483800  0.44850200  0.12149500  1
  H  H5  1  0.89848600  0.31067900  0.00729500  1
  H  H6  1  0.83435600  0.34453700  0.99799000  1
  H  H7  1  0.90118200  0.38020300  0.07523900  1
  H  H8  1  0.72167500  0.24773500  0.18790100  1
  H  H9  1  0.77575900  0.34218400  0.15235700  1
  H  H10  1  0.70919900  0.27662900  0.08980300  1
  H  H11  1  0.89792200  0.31827700  0.19284000  1
  H  H12  1  0.82388400  0.23012000  0.21957600  1
  H  H13  1  0.72712200  0.14790900  0.09896600  1
  H  H14  1  0.95197800  0.26581100  0.09389600  1
  H  H15  1  0.95420400  0.23255100  0.19101200  1
  H  H16  1  0.84655800  0.17767800  0.97847300  1
  H  H17  1  0.77677600  0.09117200  0.01489400  1
  H  H18  1  0.38247100  0.92776800  0.90274800  1
  H  H19  1  0.33894700  0.81933600  0.00307900  1
  H  H20  1  0.55149800  0.94633600  0.12149500  1
  H  H21  1  0.31067900  0.41219300  0.50729500  1
  H  H22  1  0.34453700  0.51018100  0.49799000  1
  H  H23  1  0.38020300  0.47902100  0.57523900  1
  H  H24  1  0.24773500  0.52606000  0.68790100  1
  H  H25  1  0.34218400  0.56642500  0.65235700  1
  H  H26  1  0.27662900  0.56743000  0.58980300  1
  H  H27  1  0.31827700  0.42035500  0.69284000  1
  H  H28  1  0.23012000  0.40623600  0.71957600  1
  H  H29  1  0.14790900  0.42078700  0.59896600  1
  H  H30  1  0.26581100  0.31383300  0.59389600  1
  H  H31  1  0.23255100  0.27834700  0.69101200  1
  H  H32  1  0.17767800  0.33112000  0.47847300  1
  H  H33  1  0.09117200  0.31439600  0.51489400  1
  H  H34  1  0.92776800  0.54529700  0.40274800  1
  H  H35  1  0.81933600  0.48038900  0.50307900  1
  H  H36  1  0.94633600  0.39483800  0.62149500  1
  H  H37  1  0.58780700  0.89848600  0.50729500  1
  H  H38  1  0.48981900  0.83435600  0.49799000  1
  H  H39  1  0.52097900  0.90118200  0.57523900  1
  H  H40  1  0.47394000  0.72167500  0.68790100  1
  H  H41  1  0.43357500  0.77575900  0.65235700  1
  H  H42  1  0.43257000  0.70919900  0.58980300  1
  H  H43  1  0.57964500  0.89792200  0.69284000  1
  H  H44  1  0.59376400  0.82388400  0.71957600  1
  H  H45  1  0.57921300  0.72712200  0.59896600  1
  H  H46  1  0.68616700  0.95197800  0.59389600  1
  H  H47  1  0.72165300  0.95420400  0.69101200  1
  H  H48  1  0.66888000  0.84655800  0.47847300  1
  H  H49  1  0.68560400  0.77677600  0.51489400  1
  H  H50  1  0.45470300  0.38247100  0.40274800  1
  H  H51  1  0.51961100  0.33894700  0.50307900  1
  H  H52  1  0.60516200  0.55149800  0.62149500  1
  H  H53  1  0.10151400  0.68932100  0.50729500  1
  H  H54  1  0.16564400  0.65546300  0.49799000  1
  H  H55  1  0.09881800  0.61979700  0.57523900  1
  H  H56  1  0.27832500  0.75226500  0.68790100  1
  H  H57  1  0.22424100  0.65781600  0.65235700  1
  H  H58  1  0.29080100  0.72337100  0.58980300  1
  H  H59  1  0.10207800  0.68172300  0.69284000  1
  H  H60  1  0.17611600  0.76988000  0.71957600  1
  H  H61  1  0.27287800  0.85209100  0.59896600  1
  H  H62  1  0.04802200  0.73418900  0.59389600  1
  H  H63  1  0.04579600  0.76744900  0.69101200  1
  H  H64  1  0.15344200  0.82232200  0.47847300  1
  H  H65  1  0.22322400  0.90882800  0.51489400  1
  H  H66  1  0.61752900  0.07223200  0.40274800  1
  H  H67  1  0.66105300  0.18066400  0.50307900  1
  H  H68  1  0.44850200  0.05366400  0.62149500  1
  H  H69  1  0.68932100  0.58780700  0.00729500  1
  H  H70  1  0.65546300  0.48981900  0.99799000  1
  H  H71  1  0.61979700  0.52097900  0.07523900  1
  H  H72  1  0.75226500  0.47394000  0.18790100  1
  H  H73  1  0.65781600  0.43357500  0.15235700  1
  H  H74  1  0.72337100  0.43257000  0.08980300  1
  H  H75  1  0.68172300  0.57964500  0.19284000  1
  H  H76  1  0.76988000  0.59376400  0.21957600  1
  H  H77  1  0.85209100  0.57921300  0.09896600  1
  H  H78  1  0.73418900  0.68616700  0.09389600  1
  H  H79  1  0.76744900  0.72165300  0.19101200  1
  H  H80  1  0.82232200  0.66888000  0.97847300  1
  H  H81  1  0.90882800  0.68560400  0.01489400  1
  H  H82  1  0.07223200  0.45470300  0.90274800  1
  H  H83  1  0.18066400  0.51961100  0.00307900  1
  H  H84  1  0.05366400  0.60516200  0.12149500  1
  H  H85  1  0.41219300  0.10151400  0.00729500  1
  H  H86  1  0.51018100  0.16564400  0.99799000  1
  H  H87  1  0.47902100  0.09881800  0.07523900  1
  H  H88  1  0.52606000  0.27832500  0.18790100  1
  H  H89  1  0.56642500  0.22424100  0.15235700  1
  H  H90  1  0.56743000  0.29080100  0.08980300  1
  H  H91  1  0.42035500  0.10207800  0.19284000  1
  H  H92  1  0.40623600  0.17611600  0.21957600  1
  H  H93  1  0.42078700  0.27287800  0.09896600  1
  H  H94  1  0.31383300  0.04802200  0.09389600  1
  H  H95  1  0.27834700  0.04579600  0.19101200  1
  H  H96  1  0.33112000  0.15344200  0.97847300  1
  Pd  Pd1  1  0.43675700  0.71711400  0.24931000  1
  Pd  Pd2  1  0.28034700  0.71711400  0.24931000  1
  Pd  Pd3  1  0.28191500  0.56384000  0.24598200  1
  Pd  Pd4  1  0.56324300  0.28288600  0.74931000  1
  Pd  Pd5  1  0.71965300  0.28288600  0.74931000  1
  Pd  Pd6  1  0.71808500  0.43616000  0.74598200  1
  C  C1  1  0.46216000  0.46337500  0.02413000  1
  C  C2  1  0.50735200  0.51149100  0.95998300  1
  C  C3  1  0.51030700  0.57906200  0.95214000  1
  C  C4  1  0.47785500  0.60692300  0.00711500  1
  C  C5  1  0.43816300  0.56180700  0.07376300  1
  C  C6  1  0.43269200  0.49228100  0.07926400  1
  C  C7  1  0.53710000  0.41889300  0.91500800  1
  C  C8  1  0.48468500  0.36732700  0.97344600  1
  C  C9  1  0.40476000  0.59251100  0.36041400  1
  C  C10  1  0.46052300  0.27791600  0.98256500  1
  C  C11  1  0.86589100  0.33033300  0.03765200  1
  C  C12  1  0.81181800  0.26559600  0.10005900  1
  C  C13  1  0.75191300  0.28347800  0.13418600  1
  C  C14  1  0.86126500  0.26110900  0.16647000  1
  C  C15  1  0.76899600  0.18607500  0.05614500  1
  C  C16  1  0.91441100  0.23284700  0.14236200  1
  C  C17  1  0.81585300  0.15208700  0.03143500  1
  C  C18  1  0.86296500  0.15824600  0.10408100  1
  C  C19  1  0.53662500  0.99878500  0.02413000  1
  C  C20  1  0.48850900  0.99586100  0.95998300  1
  C  C21  1  0.18774100  0.59251100  0.36041400  1
  C  C22  1  0.42093800  0.93124500  0.95214000  1
  C  C23  1  0.39307700  0.87093200  0.00711500  1
  C  C24  1  0.43819300  0.87635600  0.07376300  1
  C  C25  1  0.50771900  0.94041100  0.07926400  1
  C  C26  1  0.58110700  0.11820700  0.91500800  1
  C  C27  1  0.63267300  0.11735800  0.97344600  1
  C  C28  1  0.72208400  0.18260700  0.98256500  1
  C  C29  1  0.33033300  0.46444200  0.53765200  1
  C  C30  1  0.26559600  0.45377800  0.60005900  1
  C  C31  1  0.28347800  0.53156500  0.63418600  1
  C  C32  1  0.26110900  0.39984500  0.66647000  1
  C  C33  1  0.18607500  0.41707900  0.55614500  1
  C  C34  1  0.23284700  0.31843600  0.64236200  1
  C  C35  1  0.40758500  0.81518000  0.35648800  1
  C  C36  1  0.15208700  0.33623400  0.53143500  1
  C  C37  1  0.15824600  0.29528100  0.60408100  1
  C  C38  1  0.99878500  0.46216000  0.52413000  1
  C  C39  1  0.99586100  0.50735200  0.45998300  1
  C  C40  1  0.93124500  0.51030700  0.45214000  1
  C  C41  1  0.87093200  0.47785500  0.50711500  1
  C  C42  1  0.87635600  0.43816300  0.57376300  1
  C  C43  1  0.94041100  0.43269200  0.57926400  1
  C  C44  1  0.11820700  0.53710000  0.41500800  1
  C  C45  1  0.11735800  0.48468500  0.47344600  1
  C  C46  1  0.18260700  0.46052300  0.48256500  1
  C  C47  1  0.53555800  0.86589100  0.53765200  1
  C  C48  1  0.54622200  0.81181800  0.60005900  1
  C  C49  1  0.46843500  0.75191300  0.63418600  1
  C  C50  1  0.60015500  0.86126500  0.66647000  1
  C  C51  1  0.40825200  0.81651400  0.14370400  1
  C  C52  1  0.58292100  0.76899600  0.55614500  1
  C  C53  1  0.68156400  0.91441100  0.64236200  1
  C  C54  1  0.66376600  0.81585300  0.53143500  1
  C  C55  1  0.70471900  0.86296500  0.60408100  1
  C  C56  1  0.53784000  0.53662500  0.52413000  1
  C  C57  1  0.49264800  0.48850900  0.45998300  1
  C  C58  1  0.48969300  0.42093800  0.45214000  1
  C  C59  1  0.52214500  0.39307700  0.50711500  1
  C  C60  1  0.56183700  0.43819300  0.57376300  1
  C  C61  1  0.56730800  0.50771900  0.57926400  1
  C  C62  1  0.46290000  0.58110700  0.41500800  1
  C  C63  1  0.51531500  0.63267300  0.47344600  1
  C  C64  1  0.53947700  0.72208400  0.48256500  1
  C  C65  1  0.13410900  0.66966700  0.53765200  1
  C  C66  1  0.18818200  0.73440400  0.60005900  1
  C  C67  1  0.24808700  0.71652200  0.63418600  1
  C  C68  1  0.13873500  0.73889100  0.66647000  1
  C  C69  1  0.23100400  0.81392500  0.55614500  1
  C  C70  1  0.08558900  0.76715300  0.64236200  1
  C  C71  1  0.18414700  0.84791300  0.53143500  1
  C  C72  1  0.13703500  0.84175400  0.60408100  1
  C  C73  1  0.46337500  0.00121500  0.52413000  1
  C  C74  1  0.51149100  0.00413900  0.45998300  1
  C  C75  1  0.57906200  0.06875500  0.45214000  1
  C  C76  1  0.60692300  0.12906800  0.50711500  1
  C  C77  1  0.56180700  0.12364400  0.57376300  1
  C  C78  1  0.49228100  0.05958900  0.57926400  1
  C  C79  1  0.41889300  0.88179300  0.41500800  1
  C  C80  1  0.36732700  0.88264200  0.47344600  1
  C  C81  1  0.27791600  0.81739300  0.48256500  1
  C  C82  1  0.81669200  0.40834800  0.63949000  1
  C  C83  1  0.59166600  0.40834800  0.63949000  1
  C  C84  1  0.59524000  0.40748900  0.86041400  1
  C  C85  1  0.81225900  0.40748900  0.86041400  1
  C  C86  1  0.59241500  0.18482000  0.85648800  1
  C  C87  1  0.59174800  0.18348600  0.64370400  1
  C  C88  1  0.66966700  0.53555800  0.03765200  1
  C  C89  1  0.73440400  0.54622200  0.10005900  1
  C  C90  1  0.71652200  0.46843500  0.13418600  1
  C  C91  1  0.18330800  0.59165200  0.13949000  1
  C  C92  1  0.73889100  0.60015500  0.16647000  1
  C  C93  1  0.81392500  0.58292100  0.05614500  1
  C  C94  1  0.76715300  0.68156400  0.14236200  1
  C  C95  1  0.84791300  0.66376600  0.03143500  1
  C  C96  1  0.84175400  0.70471900  0.10408100  1
  C  C97  1  0.00121500  0.53784000  0.02413000  1
  C  C98  1  0.00413900  0.49264800  0.95998300  1
  C  C99  1  0.06875500  0.48969300  0.95214000  1
  C  C100  1  0.12906800  0.52214500  0.00711500  1
  C  C101  1  0.12364400  0.56183700  0.07376300  1
  C  C102  1  0.05958900  0.56730800  0.07926400  1
  C  C103  1  0.88179300  0.46290000  0.91500800  1
  C  C104  1  0.88264200  0.51531500  0.97344600  1
  C  C105  1  0.81739300  0.53947700  0.98256500  1
  C  C106  1  0.46444200  0.13410900  0.03765200  1
  C  C107  1  0.40833400  0.59165200  0.13949000  1
  C  C108  1  0.45377800  0.18818200  0.10005900  1
  C  C109  1  0.53156500  0.24808700  0.13418600  1
  C  C110  1  0.39984500  0.13873500  0.16647000  1
  C  C111  1  0.41707900  0.23100400  0.05614500  1
  C  C112  1  0.31843600  0.08558900  0.14236200  1
  C  C113  1  0.33623400  0.18414700  0.03143500  1
  C  C114  1  0.29528100  0.13703500  0.10408100  1
  N  N1  1  0.54491300  0.49066000  0.90835700  1
  N  N2  1  0.44709300  0.39271000  0.02953400  1
  N  N3  1  0.50934000  0.05425300  0.90835700  1
  N  N4  1  0.60729000  0.05438300  0.02953400  1
  N  N5  1  0.05425300  0.54491300  0.40835700  1
  N  N6  1  0.05438300  0.44709300  0.52953400  1
  N  N7  1  0.45508700  0.50934000  0.40835700  1
  N  N8  1  0.55290700  0.60729000  0.52953400  1
  N  N9  1  0.49066000  0.94574700  0.40835700  1
  N  N10  1  0.39271000  0.94561700  0.52953400  1
  N  N11  1  0.94574700  0.45508700  0.90835700  1
  N  N12  1  0.94561700  0.55290700  0.02953400  1
  O  O1  1  0.34050900  0.55073800  0.33317800  1
  O  O2  1  0.47679800  0.25101700  0.92708300  1
  O  O3  1  0.20707200  0.65730000  0.33567000  1
  O  O4  1  0.21021800  0.55073800  0.33317800  1
  O  O5  1  0.86185600  0.10485900  0.13737100  1
  O  O6  1  0.44990700  0.79124600  0.33397200  1
  O  O7  1  0.74898300  0.22578100  0.92708300  1
  O  O8  1  0.34132900  0.79124600  0.33397200  1
  O  O9  1  0.10485900  0.24300300  0.63737100  1
  O  O10  1  0.45027600  0.79208700  0.16524100  1
  O  O11  1  0.22578100  0.47679800  0.42708300  1
  O  O12  1  0.34180100  0.79208700  0.16524100  1
  O  O13  1  0.75699700  0.86185600  0.63737100  1
  O  O14  1  0.52320200  0.74898300  0.42708300  1
  O  O15  1  0.79219600  0.45041400  0.66006400  1
  O  O16  1  0.13814400  0.89514100  0.63737100  1
  O  O17  1  0.79469600  0.34283200  0.66429100  1
  O  O18  1  0.25101700  0.77421900  0.42708300  1
  O  O19  1  0.65822700  0.45041400  0.66006400  1
  O  O20  1  0.54814600  0.34283200  0.66429100  1
  O  O21  1  0.20780400  0.54958600  0.16006400  1
  O  O22  1  0.54978200  0.34270000  0.83567000  1
  O  O23  1  0.65949100  0.44926200  0.83317800  1
  O  O24  1  0.79292800  0.34270000  0.83567000  1
  O  O25  1  0.78978200  0.44926200  0.83317800  1
  O  O26  1  0.55009300  0.20875400  0.83397200  1
  O  O27  1  0.65867100  0.20875400  0.83397200  1
  O  O28  1  0.54972400  0.20791300  0.66524100  1
  O  O29  1  0.20530400  0.65716800  0.16429100  1
  O  O30  1  0.65819900  0.20791300  0.66524100  1
  O  O31  1  0.34177300  0.54958600  0.16006400  1
  O  O32  1  0.89514100  0.75699700  0.13737100  1
  O  O33  1  0.45185400  0.65716800  0.16429100  1
  O  O34  1  0.77421900  0.52320200  0.92708300  1
  O  O35  1  0.45021800  0.65730000  0.33567000  1
  O  O36  1  0.24300300  0.13814400  0.13737100  1
