# Generated by REPEAT Assigner based on pymatgen
data_DB13-acs-Syn038963
_audit_creation_date              2022-05-24
_audit_creation_method            REPEAT_Assigner
_cell_length_a                    16.744000
_cell_length_b                    16.744000
_cell_length_c                    13.671500
_cell_angle_alpha                 90.000000
_cell_angle_beta                  90.000000
_cell_angle_gamma                 120.000000
_cell_volume                      3319.443104
_symmetry_space_group_name_H-M    P1
_symmetry_Int_Tables_number       1
loop_
    _symmetry_equiv_pos_site_id
    _symmetry_equiv_pos_as_xyz
    1  x,y,z
loop_
    _atom_site_type_symbol
    _atom_site_label
    _atom_site_fract_x
    _atom_site_fract_y
    _atom_site_fract_z
    _atom_type_partial_charge
    Pd  Pd1  0.459687  0.728297  0.249157  0.446227
    Pd  Pd2  0.268600  0.728297  0.249157  0.437820
    Pd  Pd3  0.270516  0.541042  0.245092  0.441484
    O   O1   0.179974  0.523628  0.140125  -0.296571
    O   O2   0.176919  0.655061  0.145288  -0.174959
    C   C1   0.150047  0.575020  0.114990  0.207290
    O   O3   0.343644  0.523628  0.140125  -0.204391
    O   O4   0.478132  0.655061  0.145288  -0.313096
    C   C2   0.424963  0.575020  0.114990  0.244036
    O   O5   0.476132  0.655222  0.354663  -0.221251
    O   O6   0.342101  0.525035  0.351620  -0.306985
    C   C3   0.420597  0.576069  0.384893  0.304680
    O   O7   0.179080  0.655222  0.354663  -0.318031
    O   O8   0.182924  0.525035  0.351620  -0.228572
    C   C4   0.155463  0.576069  0.384893  0.318696
    O   O9   0.475753  0.818866  0.352590  -0.305983
    O   O10  0.343102  0.818866  0.352590  -0.209813
    C   C5   0.424048  0.848105  0.380097  0.279984
    O   O11  0.476204  0.819893  0.146449  -0.209900
    O   O12  0.343679  0.819893  0.146449  -0.323003
    C   C6   0.424863  0.849736  0.120137  0.255098
    Pd  Pd4  0.540313  0.271703  0.749157  0.446244
    Pd  Pd5  0.731400  0.271703  0.749157  0.437793
    Pd  Pd6  0.729484  0.458958  0.745092  0.441490
    O   O13  0.820026  0.476372  0.640125  -0.296422
    O   O14  0.823081  0.344939  0.645288  -0.174596
    C   C7   0.849953  0.424980  0.614990  0.206537
    O   O15  0.656356  0.476372  0.640125  -0.204357
    O   O16  0.521868  0.344939  0.645288  -0.313112
    C   C8   0.575037  0.424980  0.614990  0.244075
    O   O17  0.523868  0.344778  0.854663  -0.221268
    O   O18  0.657899  0.474965  0.851620  -0.307027
    C   C9   0.579403  0.423931  0.884893  0.304702
    O   O19  0.820920  0.344778  0.854663  -0.318029
    O   O20  0.817076  0.474965  0.851620  -0.228550
    C   C10  0.844537  0.423931  0.884893  0.318719
    O   O21  0.524247  0.181134  0.852590  -0.305985
    O   O22  0.656898  0.181134  0.852590  -0.209794
    C   C11  0.575952  0.151895  0.880097  0.279966
    O   O23  0.523796  0.180107  0.646449  -0.209943
    O   O24  0.656321  0.180107  0.646449  -0.323061
    C   C12  0.575137  0.150264  0.620137  0.255214
    C   C13  0.024472  0.728551  0.299353  -0.875929
    H   H1   0.990907  0.719631  0.373561  0.345659
    H   H2   0.055638  0.800469  0.283024  0.180994
    H   H3   0.079080  0.707434  0.303872  0.151738
    C   C14  0.963803  0.662842  0.215806  0.952106
    C   C15  0.016228  0.692843  0.115668  -0.147671
    H   H4   0.087028  0.708058  0.117111  0.006269
    C   C16  0.010295  0.773858  0.063497  0.205942
    H   H5   0.949748  0.764500  0.020628  0.025562
    H   H6   0.015560  0.817857  0.128492  -0.023012
    Br  Br1  0.125632  0.857651  0.989590  -0.301664
    C   C17  0.945601  0.568476  0.246369  -0.717274
    H   H7   0.006593  0.560864  0.258363  0.174024
    H   H8   0.902238  0.540697  0.309322  0.172491
    H   H9   0.906767  0.516313  0.193042  0.107028
    C   C18  0.871209  0.664632  0.221079  -0.462011
    H   H10  0.876976  0.733287  0.226516  0.090379
    H   H11  0.837800  0.640229  0.290968  0.102197
    H   H12  0.826142  0.627548  0.159830  0.055901
    N   N1   0.064272  0.450760  0.989029  -0.292827
    O   O25  0.987136  0.414118  0.933644  -0.012577
    C   C19  0.944854  0.463849  0.945809  0.335328
    C   C20  0.993000  0.536396  0.010126  -0.447733
    C   C21  0.072078  0.525555  0.043557  0.359180
    C   C22  0.965909  0.616208  0.038221  0.528277
    O   O26  0.900437  0.606082  0.992630  -0.451156
    C   C23  0.271449  0.295921  0.299353  -0.881102
    H   H13  0.280369  0.271277  0.373561  0.344890
    H   H14  0.199531  0.255168  0.283024  0.183212
    H   H15  0.292566  0.371645  0.303872  0.147295
    C   C24  0.337158  0.300962  0.215806  0.965086
    C   C25  0.307157  0.323385  0.115668  -0.160650
    H   H16  0.291942  0.378971  0.117111  0.020859
    C   C26  0.226142  0.236437  0.063497  0.205101
    H   H17  0.235500  0.185248  0.020628  0.028341
    H   H18  0.182143  0.197703  0.128492  -0.024039
    Br  Br2  0.142349  0.267981  0.989590  -0.301982
    C   C27  0.431524  0.377126  0.246369  -0.705831
    H   H19  0.439136  0.445728  0.258363  0.171831
    H   H20  0.459303  0.361541  0.309322  0.168289
    H   H21  0.483687  0.390454  0.193042  0.104453
    C   C28  0.335368  0.206577  0.221079  -0.463963
    H   H22  0.266713  0.143689  0.226516  0.090959
    H   H23  0.359771  0.197571  0.290968  0.101383
    H   H24  0.372452  0.198594  0.159830  0.056007
    N   N2   0.549240  0.613512  0.989029  -0.287402
    O   O27  0.585882  0.573018  0.933644  -0.012048
    C   C29  0.536151  0.481005  0.945809  0.329823
    C   C30  0.463604  0.456604  0.010126  -0.425885
    C   C31  0.474445  0.546522  0.043557  0.332435
    C   C32  0.383792  0.349701  0.038221  0.517605
    O   O28  0.393918  0.294355  0.992630  -0.447968
    C   C33  0.704079  0.975528  0.299353  -0.875622
    H   H25  0.728723  0.009093  0.373561  0.344405
    H   H26  0.744832  0.944362  0.283024  0.180936
    H   H27  0.628355  0.920920  0.303872  0.147819
    C   C34  0.699038  0.036197  0.215806  0.963519
    C   C35  0.676615  0.983772  0.115668  -0.161749
    H   H28  0.621029  0.912972  0.117111  0.019669
    C   C36  0.763563  0.989705  0.063497  0.205112
    H   H29  0.814752  0.050252  0.020628  0.027443
    H   H30  0.802297  0.984440  0.128492  -0.023197
    Br  Br3  0.732019  0.874368  0.989590  -0.301533
    C   C37  0.622874  0.054399  0.246369  -0.726666
    H   H31  0.554272  0.993407  0.258363  0.183848
    H   H32  0.638459  0.097762  0.309322  0.171458
    H   H33  0.609546  0.093233  0.193042  0.108905
    C   C38  0.793423  0.128791  0.221079  -0.458192
    H   H34  0.856311  0.123024  0.226516  0.088495
    H   H35  0.802429  0.162200  0.290968  0.101105
    H   H36  0.801406  0.173858  0.159830  0.055068
    N   N3   0.386488  0.935728  0.989029  -0.287522
    O   O29  0.426982  0.012864  0.933644  -0.017882
    C   C39  0.518995  0.055146  0.945809  0.351468
    C   C40  0.543396  0.007000  0.010126  -0.442766
    C   C41  0.453478  0.927922  0.043557  0.328387
    C   C42  0.650299  0.034091  0.038221  0.531808
    O   O30  0.705645  0.099563  0.992630  -0.454988
    C   C43  0.975528  0.271449  0.799353  -0.875770
    H   H37  0.009093  0.280369  0.873561  0.345603
    H   H38  0.944362  0.199531  0.783024  0.180968
    H   H39  0.920920  0.292566  0.803872  0.151662
    C   C44  0.036197  0.337158  0.715806  0.952010
    C   C45  0.983772  0.307157  0.615668  -0.147521
    H   H40  0.912972  0.291942  0.617111  0.006142
    C   C46  0.989705  0.226142  0.563497  0.205861
    H   H41  0.050252  0.235500  0.520628  0.025569
    H   H42  0.984440  0.182143  0.628492  -0.022994
    Br  Br4  0.874368  0.142349  0.489590  -0.301648
    C   C47  0.054399  0.431524  0.746369  -0.717432
    H   H43  0.993407  0.439136  0.758363  0.174128
    H   H44  0.097762  0.459303  0.809322  0.172512
    H   H45  0.093233  0.483687  0.693042  0.107056
    C   C48  0.128791  0.335368  0.721079  -0.461912
    H   H46  0.123024  0.266713  0.726516  0.090349
    H   H47  0.162200  0.359771  0.790968  0.102182
    H   H48  0.173858  0.372452  0.659830  0.055876
    N   N4   0.935728  0.549240  0.489029  -0.292866
    O   O31  0.012864  0.585882  0.433644  -0.012686
    C   C49  0.055146  0.536151  0.445809  0.335481
    C   C50  0.007000  0.463604  0.510126  -0.448035
    C   C51  0.927922  0.474445  0.543557  0.359671
    C   C52  0.034091  0.383792  0.538221  0.528420
    O   O32  0.099563  0.393918  0.492630  -0.451184
    C   C53  0.728551  0.704079  0.799353  -0.881074
    H   H49  0.719631  0.728723  0.873561  0.344886
    H   H50  0.800469  0.744832  0.783024  0.183205
    H   H51  0.707434  0.628355  0.803872  0.147290
    C   C54  0.662842  0.699038  0.715806  0.965040
    C   C55  0.692843  0.676615  0.615668  -0.160590
    H   H52  0.708058  0.621029  0.617111  0.020812
    C   C56  0.773858  0.763563  0.563497  0.205127
    H   H53  0.764500  0.814752  0.520628  0.028332
    H   H54  0.817857  0.802297  0.628492  -0.024046
    Br  Br5  0.857651  0.732019  0.489590  -0.301993
    C   C57  0.568476  0.622874  0.746369  -0.705806
    H   H55  0.560864  0.554272  0.758363  0.171814
    H   H56  0.540697  0.638459  0.809322  0.168286
    H   H57  0.516313  0.609546  0.693042  0.104452
    C   C58  0.664632  0.793423  0.721079  -0.463975
    H   H58  0.733287  0.856311  0.726516  0.090962
    H   H59  0.640229  0.802429  0.790968  0.101389
    H   H60  0.627548  0.801406  0.659830  0.056012
    N   N5   0.450760  0.386488  0.489029  -0.287386
    O   O33  0.414118  0.426982  0.433644  -0.012061
    C   C59  0.463849  0.518995  0.445809  0.329810
    C   C60  0.536396  0.543396  0.510126  -0.425851
    C   C61  0.525555  0.453478  0.543557  0.332398
    C   C62  0.616208  0.650299  0.538221  0.517585
    O   O34  0.606082  0.705645  0.492630  -0.447972
    C   C63  0.295921  0.024472  0.799353  -0.875639
    H   H61  0.271277  0.990907  0.873561  0.344415
    H   H62  0.255168  0.055638  0.783024  0.180938
    H   H63  0.371645  0.079080  0.803872  0.147825
    C   C64  0.300962  0.963803  0.715806  0.963546
    C   C65  0.323385  0.016228  0.615668  -0.161769
    H   H64  0.378971  0.087028  0.617111  0.019675
    C   C66  0.236437  0.010295  0.563497  0.205132
    H   H65  0.185248  0.949748  0.520628  0.027437
    H   H66  0.197703  0.015560  0.628492  -0.023202
    Br  Br6  0.267981  0.125632  0.489590  -0.301532
    C   C67  0.377126  0.945601  0.746369  -0.726655
    H   H67  0.445728  0.006593  0.758363  0.183837
    H   H68  0.361541  0.902238  0.809322  0.171452
    H   H69  0.390454  0.906767  0.693042  0.108905
    C   C68  0.206577  0.871209  0.721079  -0.458208
    H   H70  0.143689  0.876976  0.726516  0.088499
    H   H71  0.197571  0.837800  0.790968  0.101109
    H   H72  0.198594  0.826142  0.659830  0.055066
    N   N6   0.613512  0.064272  0.489029  -0.287512
    O   O35  0.573018  0.987136  0.433644  -0.017874
    C   C69  0.481005  0.944854  0.445809  0.351446
    C   C70  0.456604  0.993000  0.510126  -0.442737
    C   C71  0.546522  0.072078  0.543557  0.328335
    C   C72  0.349701  0.965909  0.538221  0.531784
    O   O36  0.294355  0.900437  0.492630  -0.454975
