# Generated by REPEAT Assigner based on pymatgen
data_DB13-nbo-Syn022087
_audit_creation_date              2022-05-24
_audit_creation_method            REPEAT_Assigner
_cell_length_a                    22.668900
_cell_length_b                    22.668900
_cell_length_c                    22.668900
_cell_angle_alpha                 90.000000
_cell_angle_beta                  90.000000
_cell_angle_gamma                 90.000000
_cell_volume                      11649.072280
_symmetry_space_group_name_H-M    P1
_symmetry_Int_Tables_number       1
loop_
    _symmetry_equiv_pos_site_id
    _symmetry_equiv_pos_as_xyz
    1  x,y,z
loop_
    _atom_site_type_symbol
    _atom_site_label
    _atom_site_fract_x
    _atom_site_fract_y
    _atom_site_fract_z
    _atom_type_partial_charge
    Br  Br1   0.103687  0.568862  0.184040  0.059915
    Br  Br2   0.896313  0.568862  0.815960  0.071082
    Br  Br3   0.184040  0.103687  0.568862  0.067779
    Br  Br4   0.815960  0.896313  0.568862  0.073680
    Br  Br5   0.568862  0.184040  0.103687  0.063686
    Br  Br6   0.568862  0.815960  0.896313  0.064217
    Br  Br7   0.568862  0.103687  0.815960  0.059915
    Br  Br8   0.568862  0.896313  0.184040  0.071083
    Br  Br9   0.103687  0.184040  0.431138  0.067777
    Br  Br10  0.896313  0.815960  0.431138  0.073680
    Br  Br11  0.184040  0.568862  0.896313  0.063686
    Br  Br12  0.815960  0.568862  0.103687  0.064218
    C   C1    0.046628  0.522467  0.214810  -0.085790
    C   C2    0.004069  0.500038  0.180552  -0.217050
    C   C3    0.958394  0.461875  0.215923  0.489629
    C   C4    0.958967  0.458556  0.289836  -0.140199
    C   C5    0.000638  0.490538  0.320719  -0.238517
    C   C6    0.044810  0.518581  0.281924  0.538828
    C   C7    0.000000  0.611252  0.500000  0.782233
    C   C8    0.088604  0.408899  0.681011  0.187490
    C   C9    0.083153  0.384583  0.622494  -0.438778
    C   C10   0.129262  0.350369  0.598041  0.107896
    C   C11   0.177876  0.333597  0.631955  0.295487
    C   C12   0.180431  0.354885  0.690354  -0.210009
    C   C13   0.138344  0.391157  0.713272  -0.208471
    C   C14   0.232262  0.276449  0.560057  0.379041
    C   C15   0.294196  0.246413  0.555224  -0.396294
    C   C16   0.953372  0.522467  0.785190  -0.025780
    C   C17   0.995931  0.500038  0.819448  -0.262694
    C   C18   0.041606  0.461875  0.784077  0.517190
    C   C19   0.041033  0.458556  0.710164  -0.183381
    C   C20   0.999362  0.490538  0.679281  -0.122796
    C   C21   0.955190  0.518581  0.718076  0.442495
    C   C22   0.318989  0.911396  0.408899  0.183378
    C   C23   0.377506  0.916847  0.384583  -0.407300
    C   C24   0.401959  0.870738  0.350369  0.166361
    C   C25   0.368045  0.822124  0.333597  0.222188
    C   C26   0.309646  0.819569  0.354885  -0.224847
    C   C27   0.286728  0.861656  0.391157  -0.162208
    C   C28   0.439943  0.767738  0.276449  0.432347
    C   C29   0.444776  0.705804  0.246413  -0.581452
    C   C30   0.214810  0.046628  0.522467  -0.078535
    C   C31   0.180552  0.004069  0.500038  -0.252336
    C   C32   0.215923  0.958394  0.461875  0.563717
    C   C33   0.388748  0.000000  0.500000  0.707413
    C   C34   0.289836  0.958967  0.458556  -0.210692
    C   C35   0.320719  0.000638  0.490538  -0.141889
    C   C36   0.281924  0.044810  0.518581  0.457160
    C   C37   0.681011  0.088604  0.408899  0.271317
    C   C38   0.622494  0.083153  0.384583  -0.431103
    C   C39   0.598041  0.129262  0.350369  0.201958
    C   C40   0.631955  0.177876  0.333597  0.247873
    C   C41   0.690354  0.180431  0.354885  -0.151756
    C   C42   0.713272  0.138344  0.391157  -0.327110
    C   C43   0.560057  0.232262  0.276449  0.375794
    C   C44   0.555224  0.294196  0.246413  -0.429474
    C   C45   0.785190  0.953372  0.522467  -0.102464
    C   C46   0.819448  0.995931  0.500038  -0.258870
    C   C47   0.784077  0.041606  0.461875  0.534395
    C   C48   0.710164  0.041033  0.458556  -0.193762
    C   C49   0.679281  0.999362  0.490538  -0.236107
    C   C50   0.500000  0.000000  0.388748  0.689588
    C   C51   0.718076  0.955190  0.518581  0.611789
    C   C52   0.408899  0.318989  0.911396  0.173811
    C   C53   0.384583  0.377506  0.916847  -0.410423
    C   C54   0.350369  0.401959  0.870738  0.168115
    C   C55   0.333597  0.368045  0.822124  0.197831
    C   C56   0.354885  0.309646  0.819569  -0.214917
    C   C57   0.391157  0.286728  0.861656  -0.142891
    C   C58   0.276449  0.439943  0.767738  0.418582
    C   C59   0.000000  0.500000  0.388748  0.806921
    C   C60   0.246413  0.444776  0.705804  -0.599214
    C   C61   0.522467  0.214810  0.046628  -0.032993
    C   C62   0.500038  0.180552  0.004069  -0.257659
    C   C63   0.461875  0.215923  0.958394  0.525046
    C   C64   0.458556  0.289836  0.958967  -0.180897
    C   C65   0.490538  0.320719  0.000638  -0.124118
    C   C66   0.518581  0.281924  0.044810  0.413383
    C   C67   0.408899  0.681011  0.088604  0.248355
    C   C68   0.611252  0.000000  0.500000  0.782235
    C   C69   0.384583  0.622494  0.083153  -0.442492
    C   C70   0.350369  0.598041  0.129262  0.200542
    C   C71   0.333597  0.631955  0.177876  0.298710
    C   C72   0.354885  0.690354  0.180431  -0.232778
    C   C73   0.391157  0.713272  0.138344  -0.270737
    C   C74   0.276449  0.560057  0.232262  0.360046
    C   C75   0.246413  0.555224  0.294196  -0.389024
    C   C76   0.522467  0.785190  0.953372  -0.090226
    C   C77   0.500038  0.819448  0.995931  -0.229951
    C   C78   0.461875  0.784077  0.041606  0.500347
    C   C79   0.458556  0.710164  0.041033  -0.167473
    C   C80   0.490538  0.679281  0.999362  -0.243314
    C   C81   0.518581  0.718076  0.955190  0.596056
    C   C82   0.408899  0.911396  0.681011  0.207105
    C   C83   0.384583  0.916847  0.622494  -0.378945
    C   C84   0.350369  0.870738  0.598041  0.222529
    C   C85   0.333597  0.822124  0.631955  0.197347
    C   C86   0.500000  0.000000  0.611252  0.806908
    C   C87   0.354885  0.819569  0.690354  -0.210075
    C   C88   0.391157  0.861656  0.713272  -0.210623
    C   C89   0.276449  0.767738  0.560057  0.440167
    C   C90   0.246413  0.705804  0.555224  -0.588092
    C   C91   0.522467  0.046628  0.785190  -0.085788
    C   C92   0.500038  0.004069  0.819448  -0.217049
    C   C93   0.461875  0.958394  0.784077  0.489633
    C   C94   0.458556  0.958967  0.710164  -0.140207
    C   C95   0.490538  0.000638  0.679281  -0.238509
    C   C96   0.518581  0.044810  0.718076  0.538822
    C   C97   0.408899  0.088604  0.318989  0.187480
    C   C98   0.384583  0.083153  0.377506  -0.438767
    C   C99   0.350369  0.129262  0.401959  0.107891
    C   C100  0.333597  0.177876  0.368045  0.295482
    C   C101  0.354885  0.180431  0.309646  -0.210005
    C   C102  0.391157  0.138344  0.286728  -0.208469
    C   C103  0.276449  0.232262  0.439943  0.379021
    C   C104  0.246413  0.294196  0.444776  -0.396289
    C   C105  0.522467  0.953372  0.214810  -0.025787
    C   C106  0.500038  0.995931  0.180552  -0.262692
    C   C107  0.461875  0.041606  0.215923  0.517183
    C   C108  0.458556  0.041033  0.289836  -0.183363
    C   C109  0.490538  0.999362  0.320719  -0.122824
    C   C110  0.518581  0.955190  0.281924  0.442510
    C   C111  0.500000  0.388748  0.000000  0.684666
    C   C112  0.911396  0.318989  0.591101  0.183380
    C   C113  0.916847  0.377506  0.615417  -0.407302
    C   C114  0.870738  0.401959  0.649631  0.166360
    C   C115  0.822124  0.368045  0.666403  0.222191
    C   C116  0.819569  0.309646  0.645115  -0.224849
    C   C117  0.861656  0.286728  0.608843  -0.162210
    C   C118  0.767738  0.439943  0.723551  0.432345
    C   C119  0.705804  0.444776  0.753587  -0.581449
    C   C120  0.046628  0.214810  0.477533  -0.078525
    C   C121  0.004069  0.180552  0.499962  -0.252346
    C   C122  0.958394  0.215923  0.538125  0.563722
    C   C123  0.958967  0.289836  0.541444  -0.210693
    C   C124  0.000638  0.320719  0.509462  -0.141885
    C   C125  0.044810  0.281924  0.481419  0.457150
    C   C126  0.088604  0.681011  0.591101  0.271324
    C   C127  0.083153  0.622494  0.615417  -0.431112
    C   C128  0.129262  0.598041  0.649631  0.201961
    C   C129  0.388748  0.500000  0.000000  0.684640
    C   C130  0.177876  0.631955  0.666403  0.247874
    C   C131  0.180431  0.690354  0.645115  -0.151753
    C   C132  0.138344  0.713272  0.608843  -0.327119
    C   C133  0.232262  0.560057  0.723551  0.375791
    C   C134  0.294196  0.555224  0.753587  -0.429473
    C   C135  0.953372  0.785190  0.477533  -0.102460
    C   C136  0.995931  0.819448  0.499962  -0.258875
    C   C137  0.041606  0.784077  0.538125  0.534397
    C   C138  0.041033  0.710164  0.541444  -0.193760
    C   C139  0.999362  0.679281  0.509462  -0.236108
    C   C140  0.955190  0.718076  0.481419  0.611783
    C   C141  0.318989  0.408899  0.088604  0.173815
    C   C142  0.377506  0.384583  0.083153  -0.410433
    C   C143  0.401959  0.350369  0.129262  0.168116
    C   C144  0.368045  0.333597  0.177876  0.197837
    C   C145  0.309646  0.354885  0.180431  -0.214924
    C   C146  0.286728  0.391157  0.138344  -0.142887
    C   C147  0.500000  0.611252  0.000000  0.794472
    C   C148  0.439943  0.276449  0.232262  0.418585
    C   C149  0.444776  0.246413  0.294196  -0.599211
    C   C150  0.214810  0.522467  0.953372  -0.032986
    C   C151  0.180552  0.500038  0.995931  -0.257663
    C   C152  0.215923  0.461875  0.041606  0.525052
    C   C153  0.289836  0.458556  0.041033  -0.180908
    C   C154  0.320719  0.490538  0.999362  -0.124089
    C   C155  0.281924  0.518581  0.955190  0.413365
    C   C156  0.681011  0.408899  0.911396  0.248359
    C   C157  0.622494  0.384583  0.916847  -0.442495
    C   C158  0.598041  0.350369  0.870738  0.200547
    C   C159  0.631955  0.333597  0.822124  0.298702
    C   C160  0.690354  0.354885  0.819569  -0.232768
    C   C161  0.713272  0.391157  0.861656  -0.270748
    C   C162  0.560057  0.276449  0.767738  0.360040
    C   C163  0.555224  0.246413  0.705804  -0.389023
    C   C164  0.611252  0.500000  0.000000  0.794483
    C   C165  0.785190  0.522467  0.046628  -0.090231
    C   C166  0.819448  0.500038  0.004069  -0.229949
    C   C167  0.784077  0.461875  0.958394  0.500341
    C   C168  0.710164  0.458556  0.958967  -0.167466
    C   C169  0.679281  0.490538  0.000638  -0.243330
    C   C170  0.718076  0.518581  0.044810  0.596071
    C   C171  0.500000  0.000000  0.888748  0.882140
    C   C172  0.500000  0.888748  0.000000  0.878069
    C   C173  0.000000  0.388748  0.500000  0.707413
    C   C174  0.500000  0.000000  0.111252  0.868577
    C   C175  0.500000  0.111252  0.000000  0.877773
    C   C176  0.888748  0.500000  0.000000  0.878073
    C   C177  0.000000  0.500000  0.888748  0.868580
    C   C178  0.111252  0.500000  0.000000  0.877772
    C   C179  0.000000  0.500000  0.111252  0.882137
    C   C180  0.000000  0.888748  0.500000  0.913441
    C   C181  0.888748  0.000000  0.500000  0.913438
    C   C182  0.000000  0.111252  0.500000  0.881583
    C   C183  0.000000  0.500000  0.611252  0.689553
    C   C184  0.111252  0.000000  0.500000  0.881578
    C   C185  0.911396  0.408899  0.318989  0.207105
    C   C186  0.916847  0.384583  0.377506  -0.378949
    C   C187  0.870738  0.350369  0.401959  0.222537
    C   C188  0.822124  0.333597  0.368045  0.197337
    C   C189  0.819569  0.354885  0.309646  -0.210067
    C   C190  0.861656  0.391157  0.286728  -0.210625
    C   C191  0.767738  0.276449  0.439943  0.440160
    C   C192  0.705804  0.246413  0.444776  -0.588089
    Cu  Cu1   0.941433  0.500000  0.500000  0.893077
    Cu  Cu2   0.058567  0.500000  0.500000  0.900100
    Cu  Cu3   0.500000  0.941433  0.500000  0.893081
    Cu  Cu4   0.500000  0.058567  0.500000  0.900105
    Cu  Cu5   0.500000  0.500000  0.941433  0.898086
    Cu  Cu6   0.500000  0.500000  0.058567  0.898100
    Cu  Cu7   0.441433  0.000000  0.000000  1.001693
    Cu  Cu8   0.558567  0.000000  0.000000  1.035923
    Cu  Cu9   0.000000  0.441433  0.000000  1.001693
    Cu  Cu10  0.000000  0.558567  0.000000  1.035923
    Cu  Cu11  0.000000  0.000000  0.441433  1.028943
    Cu  Cu12  0.000000  0.000000  0.558567  1.028949
    F   F1    0.124110  0.327470  0.544001  -0.034873
    F   F2    0.455999  0.875890  0.327470  -0.031444
    F   F3    0.544001  0.124110  0.327470  -0.192669
    F   F4    0.327470  0.455999  0.875890  -0.043493
    F   F5    0.327470  0.544001  0.124110  -0.168117
    F   F6    0.327470  0.875890  0.544001  -0.168331
    F   F7    0.327470  0.124110  0.455999  -0.034868
    F   F8    0.875890  0.455999  0.672530  -0.031445
    F   F9    0.124110  0.544001  0.672530  -0.192673
    F   F10   0.455999  0.327470  0.124110  -0.043495
    F   F11   0.544001  0.327470  0.875890  -0.168116
    F   F12   0.875890  0.327470  0.455999  -0.168333
    H   H1    0.698082  0.243919  0.491394  0.111568
    H   H2    0.670100  0.274633  0.422426  0.106842
    H   H3    0.045958  0.389481  0.595511  0.269931
    H   H4    0.219743  0.346764  0.719487  0.140801
    H   H5    0.150852  0.405028  0.758456  0.173837
    H   H6    0.200202  0.244811  0.547209  -0.018452
    H   H7    0.226909  0.314278  0.532742  0.061891
    H   H8    0.295729  0.204271  0.581863  0.121454
    H   H9    0.301918  0.243919  0.508606  0.063337
    H   H10   0.329900  0.274633  0.577574  0.083723
    H   H11   0.404489  0.954042  0.389481  0.220606
    H   H12   0.280513  0.780257  0.346764  0.144458
    H   H13   0.241544  0.849148  0.405028  0.158217
    H   H14   0.452791  0.799798  0.244811  -0.055848
    H   H15   0.467258  0.773091  0.314278  -0.011669
    H   H16   0.418137  0.704271  0.204271  0.270986
    H   H17   0.491394  0.698082  0.243919  0.111169
    H   H18   0.422426  0.670100  0.274633  0.113284
    H   H19   0.595511  0.045958  0.389481  0.255605
    H   H20   0.719487  0.219743  0.346764  0.124141
    H   H21   0.758456  0.150852  0.405028  0.206584
    H   H22   0.547209  0.200202  0.244811  0.003059
    H   H23   0.532742  0.226909  0.314278  0.068199
    H   H24   0.581863  0.295729  0.204271  0.122553
    H   H25   0.508606  0.301918  0.243919  0.104384
    H   H26   0.577574  0.329900  0.274633  0.088266
    H   H27   0.389481  0.404489  0.954042  0.239581
    H   H28   0.346764  0.280513  0.780257  0.147367
    H   H29   0.405028  0.241544  0.849148  0.147308
    H   H30   0.244811  0.452791  0.799798  -0.045545
    H   H31   0.314278  0.467258  0.773091  0.045834
    H   H32   0.204271  0.418137  0.704271  0.274878
    H   H33   0.243919  0.491394  0.698082  0.096725
    H   H34   0.274633  0.422426  0.670100  0.091229
    H   H35   0.389481  0.595511  0.045958  0.254244
    H   H36   0.346764  0.719487  0.219743  0.141479
    H   H37   0.405028  0.758456  0.150852  0.208732
    H   H38   0.244811  0.547209  0.200202  -0.002237
    H   H39   0.314278  0.532742  0.226909  -0.024690
    H   H40   0.204271  0.581863  0.295729  0.118822
    H   H41   0.243919  0.508606  0.301918  0.105783
    H   H42   0.274633  0.577574  0.329900  0.092562
    H   H43   0.389481  0.954042  0.595511  0.221550
    H   H44   0.346764  0.780257  0.719487  0.153430
    H   H45   0.405028  0.849148  0.758456  0.170677
    H   H46   0.244811  0.799798  0.547209  -0.035352
    H   H47   0.314278  0.773091  0.532742  -0.015216
    H   H48   0.204271  0.704271  0.581863  0.274162
    H   H49   0.243919  0.698082  0.508606  0.111570
    H   H50   0.274633  0.670100  0.577574  0.106843
    H   H51   0.389481  0.045958  0.404489  0.269925
    H   H52   0.346764  0.219743  0.280513  0.140800
    H   H53   0.405028  0.150852  0.241544  0.173834
    H   H54   0.244811  0.200202  0.452791  -0.018446
    H   H55   0.314278  0.226909  0.467258  0.061896
    H   H56   0.204271  0.295729  0.418137  0.121454
    H   H57   0.243919  0.301918  0.491394  0.063332
    H   H58   0.274633  0.329900  0.422426  0.083723
    H   H59   0.954042  0.404489  0.610519  0.220606
    H   H60   0.780257  0.280513  0.653236  0.144460
    H   H61   0.849148  0.241544  0.594972  0.158217
    H   H62   0.799798  0.452791  0.755189  -0.055848
    H   H63   0.773091  0.467258  0.685722  -0.011669
    H   H64   0.704271  0.418137  0.795729  0.270984
    H   H65   0.698082  0.491394  0.756081  0.111169
    H   H66   0.670100  0.422426  0.725367  0.113284
    H   H67   0.045958  0.595511  0.610519  0.255611
    H   H68   0.219743  0.719487  0.653236  0.124142
    H   H69   0.150852  0.758456  0.594972  0.206587
    H   H70   0.200202  0.547209  0.755189  0.003061
    H   H71   0.226909  0.532742  0.685722  0.068199
    H   H72   0.295729  0.581863  0.795729  0.122554
    H   H73   0.301918  0.508606  0.756081  0.104384
    H   H74   0.329900  0.577574  0.725367  0.088266
    H   H75   0.404489  0.389481  0.045958  0.239593
    H   H76   0.280513  0.346764  0.219743  0.147370
    H   H77   0.241544  0.405028  0.150852  0.147305
    H   H78   0.452791  0.244811  0.200202  -0.045546
    H   H79   0.467258  0.314278  0.226909  0.045834
    H   H80   0.418137  0.204271  0.295729  0.274878
    H   H81   0.491394  0.243919  0.301918  0.096723
    H   H82   0.422426  0.274633  0.329900  0.091228
    H   H83   0.595511  0.389481  0.954042  0.254242
    H   H84   0.719487  0.346764  0.780257  0.141475
    H   H85   0.758456  0.405028  0.849148  0.208737
    H   H86   0.547209  0.244811  0.799798  -0.002235
    H   H87   0.532742  0.314278  0.773091  -0.024688
    H   H88   0.581863  0.204271  0.704271  0.118822
    H   H89   0.508606  0.243919  0.698082  0.105782
    H   H90   0.577574  0.274633  0.670100  0.092562
    H   H91   0.954042  0.389481  0.404489  0.221548
    H   H92   0.780257  0.346764  0.280513  0.153429
    H   H93   0.849148  0.405028  0.241544  0.170675
    H   H94   0.799798  0.244811  0.452791  -0.035349
    H   H95   0.773091  0.314278  0.467258  -0.015213
    H   H96   0.704271  0.204271  0.418137  0.274163
    O   O1    0.953392  0.500000  0.584343  -0.542487
    O   O2    0.926221  0.431020  0.188928  -0.381532
    O   O3    0.087048  0.538269  0.308555  -0.428755
    O   O4    0.225646  0.297833  0.618825  -0.380500
    O   O5    0.046608  0.584343  0.500000  -0.607089
    O   O6    0.953392  0.584343  0.500000  -0.507987
    O   O7    0.073779  0.431020  0.811072  -0.403983
    O   O8    0.912952  0.538269  0.691445  -0.460471
    O   O9    0.381175  0.774354  0.297833  -0.319420
    O   O10   0.188928  0.926221  0.431020  -0.399044
    O   O11   0.308555  0.087048  0.538269  -0.445266
    O   O12   0.415657  0.046608  0.500000  -0.559118
    O   O13   0.618825  0.225646  0.297833  -0.367322
    O   O14   0.415657  0.953392  0.500000  -0.466705
    O   O15   0.811072  0.073779  0.431020  -0.395732
    O   O16   0.691445  0.912952  0.538269  -0.471258
    O   O17   0.297833  0.381175  0.774354  -0.332396
    O   O18   0.500000  0.046608  0.415657  -0.477999
    O   O19   0.500000  0.953392  0.415657  -0.542503
    O   O20   0.431020  0.188928  0.926221  -0.394696
    O   O21   0.538269  0.308555  0.087048  -0.431068
    O   O22   0.297833  0.618825  0.225646  -0.341013
    O   O23   0.584343  0.046608  0.500000  -0.607091
    O   O24   0.584343  0.953392  0.500000  -0.507987
    O   O25   0.431020  0.811072  0.073779  -0.402516
    O   O26   0.538269  0.691445  0.912952  -0.465737
    O   O27   0.297833  0.774354  0.618825  -0.311580
    O   O28   0.500000  0.046608  0.584343  -0.541040
    O   O29   0.431020  0.926221  0.811072  -0.381533
    O   O30   0.500000  0.953392  0.584343  -0.604287
    O   O31   0.538269  0.087048  0.691445  -0.428754
    O   O32   0.297833  0.225646  0.381175  -0.380494
    O   O33   0.431020  0.073779  0.188928  -0.403980
    O   O34   0.538269  0.912952  0.308555  -0.460473
    O   O35   0.046608  0.500000  0.415657  -0.541045
    O   O36   0.774354  0.381175  0.702167  -0.319419
    O   O37   0.500000  0.415657  0.046608  -0.560191
    O   O38   0.500000  0.415657  0.953392  -0.466001
    O   O39   0.926221  0.188928  0.568980  -0.399045
    O   O40   0.087048  0.308555  0.461731  -0.445259
    O   O41   0.225646  0.618825  0.702167  -0.367324
    O   O42   0.415657  0.500000  0.046608  -0.466006
    O   O43   0.073779  0.811072  0.568980  -0.395733
    O   O44   0.415657  0.500000  0.953392  -0.560175
    O   O45   0.912952  0.691445  0.461731  -0.471255
    O   O46   0.381175  0.297833  0.225646  -0.332400
    O   O47   0.500000  0.584343  0.046608  -0.605667
    O   O48   0.188928  0.431020  0.073779  -0.394698
    O   O49   0.500000  0.584343  0.953392  -0.516845
    O   O50   0.308555  0.538269  0.912952  -0.431064
    O   O51   0.618825  0.297833  0.774354  -0.341009
    O   O52   0.953392  0.500000  0.415657  -0.604290
    O   O53   0.584343  0.500000  0.046608  -0.516855
    O   O54   0.811072  0.431020  0.926221  -0.402515
    O   O55   0.691445  0.538269  0.087048  -0.465743
    O   O56   0.584343  0.500000  0.953392  -0.605658
    O   O57   0.546608  0.000000  0.915657  -0.662342
    O   O58   0.453392  0.000000  0.915657  -0.612473
    O   O59   0.546608  0.915657  0.000000  -0.664252
    O   O60   0.453392  0.915657  0.000000  -0.601253
    O   O61   0.546608  0.000000  0.084343  -0.663516
    O   O62   0.453392  0.000000  0.084343  -0.602077
    O   O63   0.546608  0.084343  0.000000  -0.661022
    O   O64   0.453392  0.084343  0.000000  -0.608663
    O   O65   0.915657  0.546608  0.000000  -0.664254
    O   O66   0.046608  0.415657  0.500000  -0.559117
    O   O67   0.915657  0.453392  0.000000  -0.601255
    O   O68   0.000000  0.546608  0.915657  -0.663515
    O   O69   0.000000  0.453392  0.915657  -0.602078
    O   O70   0.084343  0.546608  0.000000  -0.661021
    O   O71   0.084343  0.453392  0.000000  -0.608662
    O   O72   0.000000  0.546608  0.084343  -0.662343
    O   O73   0.000000  0.453392  0.084343  -0.612473
    O   O74   0.953392  0.415657  0.500000  -0.466704
    O   O75   0.000000  0.915657  0.546608  -0.613458
    O   O76   0.000000  0.915657  0.453392  -0.682926
    O   O77   0.915657  0.000000  0.546608  -0.682928
    O   O78   0.915657  0.000000  0.453392  -0.613457
    O   O79   0.000000  0.084343  0.546608  -0.617786
    O   O80   0.000000  0.084343  0.453392  -0.666687
    O   O81   0.084343  0.000000  0.546608  -0.666689
    O   O82   0.084343  0.000000  0.453392  -0.617783
    O   O83   0.046608  0.500000  0.584343  -0.477984
    O   O84   0.774354  0.297833  0.381175  -0.311576
