# Generated by REPEAT Assigner based on pymatgen
data_DB13-acs-Syn038071
_audit_creation_date              2022-05-24
_audit_creation_method            REPEAT_Assigner
_cell_length_a                    20.413800
_cell_length_b                    20.413800
_cell_length_c                    16.667900
_cell_angle_alpha                 90.000000
_cell_angle_beta                  90.000000
_cell_angle_gamma                 120.000000
_cell_volume                      6015.326833
_symmetry_space_group_name_H-M    P1
_symmetry_Int_Tables_number       1
loop_
    _symmetry_equiv_pos_site_id
    _symmetry_equiv_pos_as_xyz
    1  x,y,z
loop_
    _atom_site_type_symbol
    _atom_site_label
    _atom_site_fract_x
    _atom_site_fract_y
    _atom_site_fract_z
    _atom_type_partial_charge
    Pd  Pd1  0.436972  0.717218  0.249309  0.433340
    Pd  Pd2  0.280237  0.717218  0.249309  0.437367
    Pd  Pd3  0.281808  0.563626  0.245974  0.438106
    O   O1   0.207543  0.549343  0.159877  -0.358583
    O   O2   0.205037  0.657148  0.164112  -0.409776
    C   C1   0.182996  0.591496  0.139261  0.613146
    O   O3   0.341790  0.549343  0.159877  -0.415477
    O   O4   0.452101  0.657148  0.164112  -0.366967
    C   C2   0.408490  0.591496  0.139261  0.622419
    O   O5   0.450461  0.657280  0.335848  -0.285703
    O   O6   0.340524  0.550497  0.333351  -0.293160
    C   C3   0.404909  0.592357  0.360643  0.379503
    O   O7   0.206810  0.657280  0.335848  -0.287286
    O   O8   0.209962  0.550497  0.333351  -0.299005
    C   C4   0.187438  0.592357  0.360643  0.379011
    O   O9   0.450150  0.791505  0.334147  -0.309642
    O   O10  0.341346  0.791505  0.334147  -0.312526
    C   C5   0.407739  0.815488  0.356709  0.417364
    O   O11  0.450519  0.792348  0.165064  -0.423926
    O   O12  0.341818  0.792348  0.165064  -0.381566
    C   C6   0.408408  0.816826  0.143483  0.627340
    Pd  Pd4  0.563028  0.282782  0.749309  0.433499
    Pd  Pd5  0.719763  0.282782  0.749309  0.437335
    Pd  Pd6  0.718192  0.436374  0.745974  0.438040
    O   O13  0.792457  0.450657  0.659877  -0.358539
    O   O14  0.794963  0.342852  0.664112  -0.409723
    C   C7   0.817004  0.408504  0.639261  0.613135
    O   O15  0.658210  0.450657  0.659877  -0.415507
    O   O16  0.547899  0.342852  0.664112  -0.367027
    C   C8   0.591510  0.408504  0.639261  0.622478
    O   O17  0.549539  0.342720  0.835848  -0.285765
    O   O18  0.659476  0.449503  0.833351  -0.293076
    C   C9   0.595091  0.407643  0.860643  0.379429
    O   O19  0.793190  0.342720  0.835848  -0.287292
    O   O20  0.790038  0.449503  0.833351  -0.298950
    C   C10  0.812562  0.407643  0.860643  0.378936
    O   O21  0.549850  0.208495  0.834147  -0.309584
    O   O22  0.658654  0.208495  0.834147  -0.312514
    C   C11  0.592261  0.184512  0.856709  0.417425
    O   O23  0.549481  0.207652  0.665064  -0.424039
    O   O24  0.658182  0.207652  0.665064  -0.381601
    C   C12  0.591592  0.183174  0.643483  0.627334
    C   C13  0.001957  0.518421  0.024326  0.347497
    C   C14  0.010087  0.484667  0.956781  0.184516
    N   N1   0.939337  0.524155  0.037801  -0.450042
    C   C15  0.054181  0.543625  0.086182  -0.209884
    C   C16  0.948491  0.449616  0.906611  -0.208411
    C   C17  0.078115  0.488405  0.942795  -0.278033
    C   C18  0.877400  0.492599  0.987271  0.218262
    C   C19  0.125148  0.554274  0.075487  -0.085000
    C   C20  0.880967  0.451198  0.922203  -0.048154
    C   C21  0.135538  0.522794  0.002972  -0.075516
    C   C22  0.815089  0.511798  0.004121  -0.042546
    H   H1   0.046611  0.575873  0.135718  0.125826
    H   H2   0.953153  0.416262  0.857542  0.137818
    H   H3   0.089006  0.466902  0.886946  0.163604
    H   H4   0.188938  0.523478  0.004165  0.094578
    H   H5   0.783558  0.508948  0.950630  -0.003837
    H   H6   0.772635  0.474514  0.047958  0.050872
    C   C23  0.889724  0.687664  0.153855  -0.560303
    H   H7   0.924706  0.730727  0.108692  0.122264
    H   H8   0.916819  0.696381  0.211951  0.108151
    H   H9   0.840803  0.694461  0.176963  0.138500
    C   C24  0.867399  0.609393  0.126139  0.659306
    C   C25  0.845135  0.597348  0.036005  -0.025816
    H   H10  0.891742  0.642249  0.997662  -0.005185
    H   H11  0.798931  0.608453  0.026407  0.021253
    O   O25  0.804346  0.554366  0.167604  -0.692563
    H   H12  0.911729  0.594204  0.132379  -0.128678
    H   H13  0.815394  0.522374  0.201302  0.376724
    C   C26  0.481579  0.483536  0.024326  0.364934
    C   C27  0.515333  0.525420  0.956781  0.172648
    N   N2   0.475845  0.415182  0.037801  -0.454715
    C   C28  0.456375  0.510556  0.086182  -0.232947
    C   C29  0.550384  0.498876  0.906611  -0.212458
    C   C30  0.511595  0.589710  0.942795  -0.268290
    C   C31  0.507401  0.384801  0.987271  0.233193
    C   C32  0.445726  0.570874  0.075487  -0.076775
    C   C33  0.548802  0.429769  0.922203  -0.052628
    C   C34  0.477206  0.612744  0.002972  -0.082416
    C   C35  0.488202  0.303291  0.004121  -0.074484
    H   H14  0.424127  0.470738  0.135718  0.134829
    H   H15  0.583738  0.536890  0.857542  0.141098
    H   H16  0.533098  0.622104  0.886946  0.160223
    H   H17  0.476522  0.665460  0.004165  0.096421
    H   H18  0.491052  0.274610  0.950630  0.007329
    H   H19  0.525486  0.298121  0.047958  0.055338
    C   C36  0.312336  0.202060  0.153855  -0.566657
    H   H20  0.269273  0.193979  0.108692  0.123400
    H   H21  0.303619  0.220438  0.211951  0.109487
    H   H22  0.305539  0.146342  0.176963  0.140080
    C   C37  0.390607  0.258007  0.126139  0.658235
    C   C38  0.402652  0.247787  0.036005  -0.006753
    H   H23  0.357751  0.249494  0.997662  -0.009144
    H   H24  0.391547  0.190479  0.026407  0.018770
    O   O26  0.445634  0.249981  0.167604  -0.693120
    H   H25  0.405796  0.317525  0.132379  -0.129768
    H   H26  0.477626  0.293021  0.201302  0.378041
    C   C39  0.516464  0.998043  0.024326  0.367089
    C   C40  0.474580  0.989913  0.956781  0.173872
    N   N3   0.584818  0.060663  0.037801  -0.460772
    C   C41  0.489444  0.945819  0.086182  -0.234583
    C   C42  0.501124  0.051509  0.906611  -0.203265
    C   C43  0.410290  0.921885  0.942795  -0.275255
    C   C44  0.615199  0.122600  0.987271  0.250651
    C   C45  0.429126  0.874852  0.075487  -0.070924
    C   C46  0.570231  0.119033  0.922203  -0.078336
    C   C47  0.387256  0.864462  0.002972  -0.078052
    C   C48  0.696709  0.184911  0.004121  -0.078784
    H   H27  0.529262  0.953389  0.135718  0.132315
    H   H28  0.463110  0.046847  0.857542  0.139310
    H   H29  0.377896  0.910994  0.886946  0.161640
    H   H30  0.334540  0.811062  0.004165  0.096468
    H   H31  0.725390  0.216442  0.950630  0.007045
    H   H32  0.701879  0.227365  0.047958  0.054785
    C   C49  0.797940  0.110276  0.153855  -0.563099
    H   H33  0.806021  0.075294  0.108692  0.122889
    H   H34  0.779562  0.083181  0.211951  0.109180
    H   H35  0.853658  0.159197  0.176963  0.138894
    C   C50  0.741993  0.132601  0.126139  0.651970
    C   C51  0.752213  0.154865  0.036005  -0.001749
    H   H36  0.750506  0.108258  0.997662  -0.010139
    H   H37  0.809521  0.201069  0.026407  0.016534
    O   O27  0.750019  0.195654  0.167604  -0.691225
    H   H38  0.682475  0.088271  0.132379  -0.126685
    H   H39  0.706979  0.184606  0.201302  0.377126
    C   C52  0.998043  0.481579  0.524326  0.347413
    C   C53  0.989913  0.515333  0.456781  0.184681
    N   N4   0.060663  0.475845  0.537801  -0.450251
    C   C54  0.945819  0.456375  0.586182  -0.209702
    C   C55  0.051509  0.550384  0.406611  -0.208473
    C   C56  0.921885  0.511595  0.442795  -0.278201
    C   C57  0.122600  0.507401  0.487271  0.218571
    C   C58  0.874852  0.445726  0.575487  -0.085188
    C   C59  0.119033  0.548802  0.422203  -0.048198
    C   C60  0.864462  0.477206  0.502972  -0.075350
    C   C61  0.184911  0.488202  0.504121  -0.043140
    H   H40  0.953389  0.424127  0.635718  0.125804
    H   H41  0.046847  0.583738  0.357542  0.137830
    H   H42  0.910994  0.533098  0.386946  0.163641
    H   H43  0.811062  0.476522  0.504165  0.094539
    H   H44  0.216442  0.491052  0.450630  -0.003656
    H   H45  0.227365  0.525486  0.547958  0.051001
    C   C62  0.110276  0.312336  0.653855  -0.560451
    H   H46  0.075294  0.269273  0.608692  0.122291
    H   H47  0.083181  0.303619  0.711951  0.108179
    H   H48  0.159197  0.305539  0.676963  0.138559
    C   C63  0.132601  0.390607  0.626139  0.659259
    C   C64  0.154865  0.402652  0.536005  -0.025579
    H   H49  0.108258  0.357751  0.497662  -0.005206
    H   H50  0.201069  0.391547  0.526407  0.021215
    O   O28  0.195654  0.445634  0.667604  -0.692570
    H   H51  0.088271  0.405796  0.632379  -0.128591
    H   H52  0.184606  0.477626  0.701302  0.376737
    C   C65  0.518421  0.516464  0.524326  0.364948
    C   C66  0.484667  0.474580  0.456781  0.172616
    N   N5   0.524155  0.584818  0.537801  -0.454486
    C   C67  0.543625  0.489444  0.586182  -0.233085
    C   C68  0.449616  0.501124  0.406611  -0.212565
    C   C69  0.488405  0.410290  0.442795  -0.268166
    C   C70  0.492599  0.615199  0.487271  0.233075
    C   C71  0.554274  0.429126  0.575487  -0.076643
    C   C72  0.451198  0.570231  0.422203  -0.052526
    C   C73  0.522794  0.387256  0.502972  -0.082569
    C   C74  0.511798  0.696709  0.504121  -0.074925
    H   H53  0.575873  0.529262  0.635718  0.134838
    H   H54  0.416262  0.463110  0.357542  0.141116
    H   H55  0.466902  0.377896  0.386946  0.160197
    H   H56  0.523478  0.334540  0.504165  0.096465
    H   H57  0.508948  0.725390  0.450630  0.007524
    H   H58  0.474514  0.701879  0.547958  0.055447
    C   C75  0.687664  0.797940  0.653855  -0.566553
    H   H59  0.730727  0.806021  0.608692  0.123374
    H   H60  0.696381  0.779562  0.711951  0.109482
    H   H61  0.694461  0.853658  0.676963  0.140036
    C   C76  0.609393  0.741993  0.626139  0.658174
    C   C77  0.597348  0.752213  0.536005  -0.006682
    H   H62  0.642249  0.750506  0.497662  -0.009138
    H   H63  0.608453  0.809521  0.526407  0.018771
    O   O29  0.554366  0.750019  0.667604  -0.693094
    H   H64  0.594204  0.682475  0.632379  -0.129800
    H   H65  0.522374  0.706979  0.701302  0.378043
    C   C78  0.483536  0.001957  0.524326  0.367111
    C   C79  0.525420  0.010087  0.456781  0.173802
    N   N6   0.415182  0.939337  0.537801  -0.460751
    C   C80  0.510556  0.054181  0.586182  -0.234646
    C   C81  0.498876  0.948491  0.406611  -0.203264
    C   C82  0.589710  0.078115  0.442795  -0.275188
    C   C83  0.384801  0.877400  0.487271  0.250501
    C   C84  0.570874  0.125148  0.575487  -0.070780
    C   C85  0.429769  0.880967  0.422203  -0.078256
    C   C86  0.612744  0.135538  0.502972  -0.078148
    C   C87  0.303291  0.815089  0.504121  -0.078297
    H   H66  0.470738  0.046611  0.635718  0.132332
    H   H67  0.536890  0.953153  0.357542  0.139342
    H   H68  0.622104  0.089006  0.386946  0.161619
    H   H69  0.665460  0.188938  0.504165  0.096497
    H   H70  0.274610  0.783558  0.450630  0.006891
    H   H71  0.298121  0.772635  0.547958  0.054675
    C   C88  0.202060  0.889724  0.653855  -0.562988
    H   H72  0.193979  0.924706  0.608692  0.122870
    H   H73  0.220438  0.916819  0.711951  0.109152
    H   H74  0.146342  0.840803  0.676963  0.138854
    C   C89  0.258007  0.867399  0.626139  0.651982
    C   C90  0.247787  0.845135  0.536005  -0.001900
    H   H75  0.249494  0.891742  0.497662  -0.010133
    H   H76  0.190479  0.798931  0.526407  0.016551
    O   O30  0.249981  0.804346  0.667604  -0.691223
    H   H77  0.317525  0.911729  0.632379  -0.126709
    H   H78  0.293021  0.815394  0.701302  0.377116
