# generated using pymatgen
data_TiH4C5O3
_symmetry_space_group_name_H-M   'P 1'
_cell_length_a   20.71640000
_cell_length_b   20.71640000
_cell_length_c   20.71640000
_cell_angle_alpha   90.00000000
_cell_angle_beta   90.00000000
_cell_angle_gamma   90.00000000
_symmetry_Int_Tables_number   1
_chemical_formula_structural   TiH4C5O3
_chemical_formula_sum   'Ti24 H96 C120 O72'
_cell_volume   8890.84141483
_cell_formula_units_Z   24
loop_
 _symmetry_equiv_pos_site_id
 _symmetry_equiv_pos_as_xyz
  1  'x, y, z'
loop_
 _atom_site_type_symbol
 _atom_site_label
 _atom_site_symmetry_multiplicity
 _atom_site_fract_x
 _atom_site_fract_y
 _atom_site_fract_z
 _atom_site_occupancy
  Ti  Ti1  1  0.99467500  0.99434200  0.11255100  1
  Ti  Ti2  1  0.00532400  0.00565900  0.88745100  1
  Ti  Ti3  1  0.88786300  0.00662500  0.00896200  1
  Ti  Ti4  1  0.11213800  0.99337400  0.99103600  1
  Ti  Ti5  1  0.50532500  0.50565800  0.11255100  1
  Ti  Ti6  1  0.49467600  0.49434100  0.88745100  1
  Ti  Ti7  1  0.61213700  0.49337500  0.00896200  1
  Ti  Ti8  1  0.38786200  0.50662600  0.99103600  1
  Ti  Ti9  1  0.49254100  0.61243100  0.00871800  1
  Ti  Ti10  1  0.50745800  0.38757000  0.99128000  1
  Ti  Ti11  1  0.00745900  0.88756900  0.00871800  1
  Ti  Ti12  1  0.99254200  0.11243000  0.99128000  1
  Ti  Ti13  1  0.50532500  0.99434200  0.38744900  1
  Ti  Ti14  1  0.49467600  0.00565900  0.61254900  1
  Ti  Ti15  1  0.61213700  0.00662500  0.49103800  1
  Ti  Ti16  1  0.38786200  0.99337400  0.50896400  1
  Ti  Ti17  1  0.49254100  0.88756900  0.49128200  1
  Ti  Ti18  1  0.50745800  0.11243000  0.50872000  1
  Ti  Ti19  1  0.99467500  0.50565800  0.38744900  1
  Ti  Ti20  1  0.00532400  0.49434100  0.61254900  1
  Ti  Ti21  1  0.88786300  0.49337500  0.49103800  1
  Ti  Ti22  1  0.11213800  0.50662600  0.50896400  1
  Ti  Ti23  1  0.00745900  0.61243100  0.49128200  1
  Ti  Ti24  1  0.99254200  0.38757000  0.50872000  1
  H  H1  1  0.82321500  0.85376900  0.28520700  1
  H  H2  1  0.87888000  0.88382600  0.22475700  1
  H  H3  1  0.79964200  0.85572500  0.13361400  1
  H  H4  1  0.74253300  0.82624000  0.19464200  1
  H  H5  1  0.81702500  0.78131800  0.18297500  1
  H  H6  1  0.77219500  0.09616700  0.18008200  1
  H  H7  1  0.68448600  0.09424200  0.26012900  1
  H  H8  1  0.73974300  0.90257400  0.32480800  1
  H  H9  1  0.67678500  0.64623100  0.28520700  1
  H  H10  1  0.62112000  0.61617400  0.22475700  1
  H  H11  1  0.70035800  0.64427500  0.13361400  1
  H  H12  1  0.75746700  0.67376000  0.19464200  1
  H  H13  1  0.68297500  0.71868200  0.18297500  1
  H  H14  1  0.72780500  0.40383300  0.18008200  1
  H  H15  1  0.81551400  0.40575800  0.26012900  1
  H  H16  1  0.76025700  0.59742600  0.32480800  1
  H  H17  1  0.28520700  0.82321500  0.85376900  1
  H  H18  1  0.22475700  0.87888000  0.88382600  1
  H  H19  1  0.13361400  0.79964200  0.85572500  1
  H  H20  1  0.19464200  0.74253300  0.82624000  1
  H  H21  1  0.18297500  0.81702500  0.78131800  1
  H  H22  1  0.18008200  0.77219500  0.09616700  1
  H  H23  1  0.26012900  0.68448600  0.09424200  1
  H  H24  1  0.32480800  0.73974300  0.90257400  1
  H  H25  1  0.28520700  0.67678500  0.64623100  1
  H  H26  1  0.22475700  0.62112000  0.61617400  1
  H  H27  1  0.13361400  0.70035800  0.64427500  1
  H  H28  1  0.19464200  0.75746700  0.67376000  1
  H  H29  1  0.18297500  0.68297500  0.71868200  1
  H  H30  1  0.18008200  0.72780500  0.40383300  1
  H  H31  1  0.26012900  0.81551400  0.40575800  1
  H  H32  1  0.32480800  0.76025700  0.59742600  1
  H  H33  1  0.85376900  0.28520700  0.82321500  1
  H  H34  1  0.88382600  0.22475700  0.87888000  1
  H  H35  1  0.85572500  0.13361400  0.79964200  1
  H  H36  1  0.82624000  0.19464200  0.74253300  1
  H  H37  1  0.78131800  0.18297500  0.81702500  1
  H  H38  1  0.09616700  0.18008200  0.77219500  1
  H  H39  1  0.09424200  0.26012900  0.68448600  1
  H  H40  1  0.90257400  0.32480800  0.73974300  1
  H  H41  1  0.64623100  0.28520700  0.67678500  1
  H  H42  1  0.61617400  0.22475700  0.62112000  1
  H  H43  1  0.64427500  0.13361400  0.70035800  1
  H  H44  1  0.67376000  0.19464200  0.75746700  1
  H  H45  1  0.71868200  0.18297500  0.68297500  1
  H  H46  1  0.40383300  0.18008200  0.72780500  1
  H  H47  1  0.40575800  0.26012900  0.81551400  1
  H  H48  1  0.59742600  0.32480800  0.76025700  1
  H  H49  1  0.17678500  0.14623100  0.71479300  1
  H  H50  1  0.12112000  0.11617400  0.77524300  1
  H  H51  1  0.20035800  0.14427500  0.86638600  1
  H  H52  1  0.25746700  0.17376000  0.80535800  1
  H  H53  1  0.18297500  0.21868200  0.81702500  1
  H  H54  1  0.22780500  0.90383300  0.81991800  1
  H  H55  1  0.31551400  0.90575800  0.73987100  1
  H  H56  1  0.26025700  0.09742600  0.67519200  1
  H  H57  1  0.32321500  0.35376900  0.71479300  1
  H  H58  1  0.37888000  0.38382600  0.77524300  1
  H  H59  1  0.29964200  0.35572500  0.86638600  1
  H  H60  1  0.24253300  0.32624000  0.80535800  1
  H  H61  1  0.31702500  0.28131800  0.81702500  1
  H  H62  1  0.27219500  0.59616700  0.81991800  1
  H  H63  1  0.18448600  0.59424200  0.73987100  1
  H  H64  1  0.23974300  0.40257400  0.67519200  1
  H  H65  1  0.71479300  0.17678500  0.14623100  1
  H  H66  1  0.77524300  0.12112000  0.11617400  1
  H  H67  1  0.86638600  0.20035800  0.14427500  1
  H  H68  1  0.80535800  0.25746700  0.17376000  1
  H  H69  1  0.81702500  0.18297500  0.21868200  1
  H  H70  1  0.81991800  0.22780500  0.90383300  1
  H  H71  1  0.73987100  0.31551400  0.90575800  1
  H  H72  1  0.67519200  0.26025700  0.09742600  1
  H  H73  1  0.71479300  0.32321500  0.35376900  1
  H  H74  1  0.77524300  0.37888000  0.38382600  1
  H  H75  1  0.86638600  0.29964200  0.35572500  1
  H  H76  1  0.80535800  0.24253300  0.32624000  1
  H  H77  1  0.81702500  0.31702500  0.28131800  1
  H  H78  1  0.81991800  0.27219500  0.59616700  1
  H  H79  1  0.73987100  0.18448600  0.59424200  1
  H  H80  1  0.67519200  0.23974300  0.40257400  1
  H  H81  1  0.14623100  0.71479300  0.17678500  1
  H  H82  1  0.11617400  0.77524300  0.12112000  1
  H  H83  1  0.14427500  0.86638600  0.20035800  1
  H  H84  1  0.17376000  0.80535800  0.25746700  1
  H  H85  1  0.21868200  0.81702500  0.18297500  1
  H  H86  1  0.90383300  0.81991800  0.22780500  1
  H  H87  1  0.90575800  0.73987100  0.31551400  1
  H  H88  1  0.09742600  0.67519200  0.26025700  1
  H  H89  1  0.35376900  0.71479300  0.32321500  1
  H  H90  1  0.38382600  0.77524300  0.37888000  1
  H  H91  1  0.35572500  0.86638600  0.29964200  1
  H  H92  1  0.32624000  0.80535800  0.24253300  1
  H  H93  1  0.28131800  0.81702500  0.31702500  1
  H  H94  1  0.59616700  0.81991800  0.27219500  1
  H  H95  1  0.59424200  0.73987100  0.18448600  1
  H  H96  1  0.40257400  0.67519200  0.23974300  1
  C  C1  1  0.85052300  0.50217100  0.35330800  1
  C  C2  1  0.14947700  0.49782900  0.64669200  1
  C  C3  1  0.00093300  0.64628100  0.34969600  1
  C  C4  1  0.99906900  0.35372000  0.65030600  1
  C  C5  1  0.85350900  0.35040600  0.49814600  1
  C  C6  1  0.14648900  0.64959300  0.50185200  1
  C  C7  1  0.82607700  0.87782600  0.23611100  1
  C  C8  1  0.79506000  0.83215500  0.18259000  1
  C  C9  1  0.78907800  0.94092300  0.24295400  1
  C  C10  1  0.80093900  0.99482700  0.20279200  1
  C  C11  1  0.76355300  0.05197600  0.20974300  1
  C  C12  1  0.71488900  0.05020100  0.25755800  1
  C  C13  1  0.70139400  0.99478600  0.29623000  1
  C  C14  1  0.74069400  0.94149200  0.28907100  1
  C  C15  1  0.67392300  0.62217400  0.23611100  1
  C  C16  1  0.70494000  0.66784500  0.18259000  1
  C  C17  1  0.85052300  0.99782900  0.14669200  1
  C  C18  1  0.71092200  0.55907700  0.24295400  1
  C  C19  1  0.69906100  0.50517300  0.20279200  1
  C  C20  1  0.73644700  0.44802400  0.20974300  1
  C  C21  1  0.78511100  0.44979900  0.25755800  1
  C  C22  1  0.79860600  0.50521400  0.29623000  1
  C  C23  1  0.75930600  0.55850800  0.28907100  1
  C  C24  1  0.23611100  0.82607700  0.87782600  1
  C  C25  1  0.18259000  0.79506000  0.83215500  1
  C  C26  1  0.24295400  0.78907800  0.94092300  1
  C  C27  1  0.20279200  0.80093900  0.99482700  1
  C  C28  1  0.20974300  0.76355300  0.05197600  1
  C  C29  1  0.25755800  0.71488900  0.05020100  1
  C  C30  1  0.29623000  0.70139400  0.99478600  1
  C  C31  1  0.28907100  0.74069400  0.94149200  1
  C  C32  1  0.23611100  0.67392300  0.62217400  1
  C  C33  1  0.18259000  0.70494000  0.66784500  1
  C  C34  1  0.14947700  0.00217100  0.85330800  1
  C  C35  1  0.24295400  0.71092200  0.55907700  1
  C  C36  1  0.20279200  0.69906100  0.50517300  1
  C  C37  1  0.20974300  0.73644700  0.44802400  1
  C  C38  1  0.25755800  0.78511100  0.44979900  1
  C  C39  1  0.29623000  0.79860600  0.50521400  1
  C  C40  1  0.28907100  0.75930600  0.55850800  1
  C  C41  1  0.87782600  0.23611100  0.82607700  1
  C  C42  1  0.83215500  0.18259000  0.79506000  1
  C  C43  1  0.94092300  0.24295400  0.78907800  1
  C  C44  1  0.99482700  0.20279200  0.80093900  1
  C  C45  1  0.05197600  0.20974300  0.76355300  1
  C  C46  1  0.05020100  0.25755800  0.71488900  1
  C  C47  1  0.99478600  0.29623000  0.70139400  1
  C  C48  1  0.94149200  0.28907100  0.74069400  1
  C  C49  1  0.00093300  0.85371900  0.15030400  1
  C  C50  1  0.62217400  0.23611100  0.67392300  1
  C  C51  1  0.66784500  0.18259000  0.70494000  1
  C  C52  1  0.55907700  0.24295400  0.71092200  1
  C  C53  1  0.50517300  0.20279200  0.69906100  1
  C  C54  1  0.44802400  0.20974300  0.73644700  1
  C  C55  1  0.44979900  0.25755800  0.78511100  1
  C  C56  1  0.50521400  0.29623000  0.79860600  1
  C  C57  1  0.55850800  0.28907100  0.75930600  1
  C  C58  1  0.17392300  0.12217400  0.76388900  1
  C  C59  1  0.20494000  0.16784500  0.81741000  1
  C  C60  1  0.21092200  0.05907700  0.75704600  1
  C  C61  1  0.19906100  0.00517300  0.79720800  1
  C  C62  1  0.23644700  0.94802400  0.79025700  1
  C  C63  1  0.28511100  0.94979900  0.74244200  1
  C  C64  1  0.29860600  0.00521400  0.70377000  1
  C  C65  1  0.99906900  0.14628000  0.84969400  1
  C  C66  1  0.25930600  0.05850800  0.71092900  1
  C  C67  1  0.32607700  0.37782600  0.76388900  1
  C  C68  1  0.29506000  0.33215500  0.81741000  1
  C  C69  1  0.28907800  0.44092300  0.75704600  1
  C  C70  1  0.30093900  0.49482700  0.79720800  1
  C  C71  1  0.26355300  0.55197600  0.79025700  1
  C  C72  1  0.21488900  0.55020100  0.74244200  1
  C  C73  1  0.20139400  0.49478600  0.70377000  1
  C  C74  1  0.24069400  0.44149200  0.71092900  1
  C  C75  1  0.76388900  0.17392300  0.12217400  1
  C  C76  1  0.81741000  0.20494000  0.16784500  1
  C  C77  1  0.75704600  0.21092200  0.05907700  1
  C  C78  1  0.79720800  0.19906100  0.00517300  1
  C  C79  1  0.79025700  0.23644700  0.94802400  1
  C  C80  1  0.74244200  0.28511100  0.94979900  1
  C  C81  1  0.85350900  0.14959400  0.00185400  1
  C  C82  1  0.70377000  0.29860600  0.00521400  1
  C  C83  1  0.71092900  0.25930600  0.05850800  1
  C  C84  1  0.76388900  0.32607700  0.37782600  1
  C  C85  1  0.81741000  0.29506000  0.33215500  1
  C  C86  1  0.75704600  0.28907800  0.44092300  1
  C  C87  1  0.79720800  0.30093900  0.49482700  1
  C  C88  1  0.79025700  0.26355300  0.55197600  1
  C  C89  1  0.74244200  0.21488900  0.55020100  1
  C  C90  1  0.70377000  0.20139400  0.49478600  1
  C  C91  1  0.71092900  0.24069400  0.44149200  1
  C  C92  1  0.12217400  0.76388900  0.17392300  1
  C  C93  1  0.16784500  0.81741000  0.20494000  1
  C  C94  1  0.05907700  0.75704600  0.21092200  1
  C  C95  1  0.00517300  0.79720800  0.19906100  1
  C  C96  1  0.94802400  0.79025700  0.23644700  1
  C  C97  1  0.14648900  0.85040700  0.99814800  1
  C  C98  1  0.94979900  0.74244200  0.28511100  1
  C  C99  1  0.00521400  0.70377000  0.29860600  1
  C  C100  1  0.05850800  0.71092900  0.25930600  1
  C  C101  1  0.37782600  0.76388900  0.32607700  1
  C  C102  1  0.33215500  0.81741000  0.29506000  1
  C  C103  1  0.44092300  0.75704600  0.28907800  1
  C  C104  1  0.49482700  0.79720800  0.30093900  1
  C  C105  1  0.55197600  0.79025700  0.26355300  1
  C  C106  1  0.55020100  0.74244200  0.21488900  1
  C  C107  1  0.49478600  0.70377000  0.20139400  1
  C  C108  1  0.44149200  0.71092900  0.24069400  1
  C  C109  1  0.64947700  0.50217100  0.14669200  1
  C  C110  1  0.35052300  0.49782900  0.85330800  1
  C  C111  1  0.49906700  0.64628100  0.15030400  1
  C  C112  1  0.50093100  0.35372000  0.84969400  1
  C  C113  1  0.64649100  0.35040600  0.00185400  1
  C  C114  1  0.35351100  0.64959300  0.99814800  1
  C  C115  1  0.64947700  0.99782900  0.35330800  1
  C  C116  1  0.35052300  0.00217100  0.64669200  1
  C  C117  1  0.49906700  0.85371900  0.34969600  1
  C  C118  1  0.50093100  0.14628000  0.65030600  1
  C  C119  1  0.64649100  0.14959400  0.49814600  1
  C  C120  1  0.35351100  0.85040700  0.50185200  1
  O  O1  1  0.06093300  0.95983800  0.06065500  1
  O  O2  1  0.06093300  0.54016200  0.43934500  1
  O  O3  1  0.93906500  0.45983700  0.56065300  1
  O  O4  1  0.90895400  0.49810700  0.33380700  1
  O  O5  1  0.83169400  0.50107000  0.41000900  1
  O  O6  1  0.09104700  0.50189400  0.66619500  1
  O  O7  1  0.16830700  0.49893100  0.58999200  1
  O  O8  1  0.99715500  0.58732200  0.33198200  1
  O  O9  1  0.00432800  0.66418300  0.40630800  1
  O  O10  1  0.93906500  0.04016300  0.93934700  1
  O  O11  1  0.00284300  0.41267700  0.66801600  1
  O  O12  1  0.99567300  0.33581800  0.59369300  1
  O  O13  1  0.83480800  0.40925400  0.49423200  1
  O  O14  1  0.91142600  0.33404400  0.50238900  1
  O  O15  1  0.16519000  0.59074500  0.50576600  1
  O  O16  1  0.08857600  0.66595700  0.49761300  1
  O  O17  1  0.90895400  0.00189300  0.16619300  1
  O  O18  1  0.83169400  0.99893000  0.08999100  1
  O  O19  1  0.09104700  0.99810600  0.83380500  1
  O  O20  1  0.16830700  0.00106900  0.91000800  1
  O  O21  1  0.99715500  0.91267800  0.16801800  1
  O  O22  1  0.00432800  0.83581700  0.09369200  1
  O  O23  1  0.00284300  0.08732300  0.83198400  1
  O  O24  1  0.99567300  0.16418200  0.90630700  1
  O  O25  1  0.83480800  0.09074600  0.00576800  1
  O  O26  1  0.91142600  0.16595600  0.99761100  1
  O  O27  1  0.16519000  0.90925500  0.99423400  1
  O  O28  1  0.08857600  0.83404300  0.00238700  1
  O  O29  1  0.55977800  0.55964200  0.04361900  1
  O  O30  1  0.44022100  0.44035800  0.95638000  1
  O  O31  1  0.53975600  0.43853400  0.05907100  1
  O  O32  1  0.46024200  0.56146700  0.94092700  1
  O  O33  1  0.43906700  0.54016200  0.06065500  1
  O  O34  1  0.56093500  0.45983700  0.93934700  1
  O  O35  1  0.59104600  0.49810700  0.16619300  1
  O  O36  1  0.66830600  0.50107000  0.08999100  1
  O  O37  1  0.40895300  0.50189400  0.83380500  1
  O  O38  1  0.33169300  0.49893100  0.91000800  1
  O  O39  1  0.50284500  0.58732200  0.16801800  1
  O  O40  1  0.49567200  0.66418300  0.09369200  1
  O  O41  1  0.49715700  0.41267700  0.83198400  1
  O  O42  1  0.50432700  0.33581800  0.90630700  1
  O  O43  1  0.66519200  0.40925400  0.00576800  1
  O  O44  1  0.58857400  0.33404400  0.99761100  1
  O  O45  1  0.33481000  0.59074500  0.99423400  1
  O  O46  1  0.41142400  0.66595700  0.00238700  1
  O  O47  1  0.94022200  0.94035800  0.04361900  1
  O  O48  1  0.55977800  0.94035800  0.45638100  1
  O  O49  1  0.44022100  0.05964200  0.54362000  1
  O  O50  1  0.53975600  0.06146600  0.44092900  1
  O  O51  1  0.46024200  0.93853300  0.55907300  1
  O  O52  1  0.05977900  0.05964200  0.95638000  1
  O  O53  1  0.43906700  0.95983800  0.43934500  1
  O  O54  1  0.56093500  0.04016300  0.56065300  1
  O  O55  1  0.59104600  0.00189300  0.33380700  1
  O  O56  1  0.66830600  0.99893000  0.41000900  1
  O  O57  1  0.40895300  0.99810600  0.66619500  1
  O  O58  1  0.33169300  0.00106900  0.58999200  1
  O  O59  1  0.50284500  0.91267800  0.33198200  1
  O  O60  1  0.49567200  0.83581700  0.40630800  1
  O  O61  1  0.96024400  0.06146600  0.05907100  1
  O  O62  1  0.49715700  0.08732300  0.66801600  1
  O  O63  1  0.50432700  0.16418200  0.59369300  1
  O  O64  1  0.66519200  0.09074600  0.49423200  1
  O  O65  1  0.58857400  0.16595600  0.50238900  1
  O  O66  1  0.33481000  0.90925500  0.50576600  1
  O  O67  1  0.41142400  0.83404300  0.49761300  1
  O  O68  1  0.03975800  0.93853300  0.94092700  1
  O  O69  1  0.94022200  0.55964200  0.45638100  1
  O  O70  1  0.05977900  0.44035800  0.54362000  1
  O  O71  1  0.96024400  0.43853400  0.44092900  1
  O  O72  1  0.03975800  0.56146700  0.55907300  1
