# generated using pymatgen
data_CuH11C16BrO4
_symmetry_space_group_name_H-M   'P 1'
_cell_length_a   25.90030000
_cell_length_b   25.90030000
_cell_length_c   23.81110000
_cell_angle_alpha   90.00000000
_cell_angle_beta   90.00000000
_cell_angle_gamma   90.00000000
_symmetry_Int_Tables_number   1
_chemical_formula_structural   CuH11C16BrO4
_chemical_formula_sum   'Cu16 H176 C256 Br16 O64'
_cell_volume   15973.09401764
_cell_formula_units_Z   16
loop_
 _symmetry_equiv_pos_site_id
 _symmetry_equiv_pos_as_xyz
  1  'x, y, z'
loop_
 _atom_site_type_symbol
 _atom_site_label
 _atom_site_symmetry_multiplicity
 _atom_site_fract_x
 _atom_site_fract_y
 _atom_site_fract_z
 _atom_site_occupancy
  Cu  Cu1  1  0.01008300  0.95367100  0.96057400  1
  Cu  Cu2  1  0.01008300  0.02616300  0.03942600  1
  Cu  Cu3  1  0.51008300  0.02616300  0.46057400  1
  Cu  Cu4  1  0.51008300  0.95367100  0.53942600  1
  Cu  Cu5  1  0.29632900  0.73991700  0.21057400  1
  Cu  Cu6  1  0.22383700  0.73991700  0.28942600  1
  Cu  Cu7  1  0.22383700  0.23991700  0.71057400  1
  Cu  Cu8  1  0.29632900  0.23991700  0.78942600  1
  Cu  Cu9  1  0.72383700  0.23991700  0.78942600  1
  Cu  Cu10  1  0.79632900  0.23991700  0.71057400  1
  Cu  Cu11  1  0.79632900  0.73991700  0.28942600  1
  Cu  Cu12  1  0.72383700  0.73991700  0.21057400  1
  Cu  Cu13  1  0.51008300  0.45367100  0.46057400  1
  Cu  Cu14  1  0.51008300  0.52616300  0.53942600  1
  Cu  Cu15  1  0.01008300  0.52616300  0.96057400  1
  Cu  Cu16  1  0.01008300  0.45367100  0.03942600  1
  H  H1  1  0.91882900  0.81573400  0.88451600  1
  H  H2  1  0.83366400  0.83366400  0.84537500  1
  H  H3  1  0.76931200  0.87088600  0.90738500  1
  H  H4  1  0.78748800  0.92985700  0.05157900  1
  H  H5  1  0.76333700  0.93851500  0.98385800  1
  H  H6  1  0.97896200  0.83555700  0.99620000  1
  H  H7  1  0.93967700  0.80116900  0.04242200  1
  H  H8  1  0.96077700  0.77226100  0.97942700  1
  H  H9  1  0.94390900  0.92645100  0.16600500  1
  H  H10  1  0.88714800  0.87462700  0.22750000  1
  H  H11  1  0.81186600  0.81113900  0.08268000  1
  H  H12  1  0.60133700  0.16410000  0.38451600  1
  H  H13  1  0.68650300  0.14617000  0.34537500  1
  H  H14  1  0.75085500  0.10894700  0.40738500  1
  H  H15  1  0.73267900  0.04997700  0.55157900  1
  H  H16  1  0.75683000  0.04131900  0.48385800  1
  H  H17  1  0.54120400  0.14427700  0.49620000  1
  H  H18  1  0.58049000  0.17866400  0.54242200  1
  H  H19  1  0.55938900  0.20757300  0.47942700  1
  H  H20  1  0.57625800  0.05338200  0.66600500  1
  H  H21  1  0.63301800  0.10520700  0.72750000  1
  H  H22  1  0.70830000  0.16869500  0.58268000  1
  H  H23  1  0.43426600  0.64866300  0.13451600  1
  H  H24  1  0.41633600  0.56349700  0.09537500  1
  H  H25  1  0.37911400  0.49914500  0.15738500  1
  H  H26  1  0.32014300  0.51732100  0.30157900  1
  H  H27  1  0.31148500  0.49317000  0.23385800  1
  H  H28  1  0.41444300  0.70879600  0.24620000  1
  H  H29  1  0.44883100  0.66951000  0.29242200  1
  H  H30  1  0.47773900  0.69061100  0.22942700  1
  H  H31  1  0.32354900  0.67374200  0.41600500  1
  H  H32  1  0.37537300  0.61698200  0.47750000  1
  H  H33  1  0.43886100  0.54170000  0.33268000  1
  H  H34  1  0.08590000  0.33117100  0.63451600  1
  H  H35  1  0.10383000  0.41633600  0.59537500  1
  H  H36  1  0.14105300  0.48068800  0.65738500  1
  H  H37  1  0.20002300  0.46251200  0.80157900  1
  H  H38  1  0.20868100  0.48666300  0.73385800  1
  H  H39  1  0.10572300  0.27103800  0.74620000  1
  H  H40  1  0.07133600  0.31032300  0.79242200  1
  H  H41  1  0.04242700  0.28922300  0.72942700  1
  H  H42  1  0.19661800  0.30609100  0.91600500  1
  H  H43  1  0.14479300  0.36285200  0.97750000  1
  H  H44  1  0.08130500  0.43813400  0.83268000  1
  H  H45  1  0.60133700  0.81573400  0.61548400  1
  H  H46  1  0.68650300  0.83366400  0.65462500  1
  H  H47  1  0.75085500  0.87088600  0.59261500  1
  H  H48  1  0.73267900  0.92985700  0.44842100  1
  H  H49  1  0.75683000  0.93851500  0.51614200  1
  H  H50  1  0.54120400  0.83555700  0.50380000  1
  H  H51  1  0.58049000  0.80116900  0.45757800  1
  H  H52  1  0.55938900  0.77226100  0.52057300  1
  H  H53  1  0.57625800  0.92645100  0.33399500  1
  H  H54  1  0.63301800  0.87462700  0.27250000  1
  H  H55  1  0.70830000  0.81113900  0.41732000  1
  H  H56  1  0.91882900  0.16410000  0.11548400  1
  H  H57  1  0.83366400  0.14617000  0.15462500  1
  H  H58  1  0.76931200  0.10894700  0.09261500  1
  H  H59  1  0.78748800  0.04997700  0.94842100  1
  H  H60  1  0.76333700  0.04131900  0.01614200  1
  H  H61  1  0.97896200  0.14427700  0.00380000  1
  H  H62  1  0.93967700  0.17866400  0.95757800  1
  H  H63  1  0.96077700  0.20757300  0.02057300  1
  H  H64  1  0.94390900  0.05338200  0.83399500  1
  H  H65  1  0.88714800  0.10520700  0.77250000  1
  H  H66  1  0.81186600  0.16869500  0.91732000  1
  H  H67  1  0.08590000  0.64866300  0.36548400  1
  H  H68  1  0.10383000  0.56349700  0.40462500  1
  H  H69  1  0.14105300  0.49914500  0.34261500  1
  H  H70  1  0.20002300  0.51732100  0.19842100  1
  H  H71  1  0.20868100  0.49317000  0.26614200  1
  H  H72  1  0.10572300  0.70879600  0.25380000  1
  H  H73  1  0.07133600  0.66951000  0.20757800  1
  H  H74  1  0.04242700  0.69061100  0.27057300  1
  H  H75  1  0.19661800  0.67374200  0.08399500  1
  H  H76  1  0.14479300  0.61698200  0.02250000  1
  H  H77  1  0.08130500  0.54170000  0.16732000  1
  H  H78  1  0.43426600  0.33117100  0.86548400  1
  H  H79  1  0.41633600  0.41633600  0.90462500  1
  H  H80  1  0.37911400  0.48068800  0.84261500  1
  H  H81  1  0.32014300  0.46251200  0.69842100  1
  H  H82  1  0.31148500  0.48666300  0.76614200  1
  H  H83  1  0.41444300  0.27103800  0.75380000  1
  H  H84  1  0.44883100  0.31032300  0.70757800  1
  H  H85  1  0.47773900  0.28922300  0.77057300  1
  H  H86  1  0.32354900  0.30609100  0.58399500  1
  H  H87  1  0.37537300  0.36285200  0.52250000  1
  H  H88  1  0.43886100  0.43813400  0.66732000  1
  H  H89  1  0.10133700  0.16410000  0.11548400  1
  H  H90  1  0.18650300  0.14617000  0.15462500  1
  H  H91  1  0.25085500  0.10894700  0.09261500  1
  H  H92  1  0.23267900  0.04997700  0.94842100  1
  H  H93  1  0.25683000  0.04131900  0.01614200  1
  H  H94  1  0.04120400  0.14427700  0.00380000  1
  H  H95  1  0.08049000  0.17866400  0.95757800  1
  H  H96  1  0.05938900  0.20757300  0.02057300  1
  H  H97  1  0.07625800  0.05338200  0.83399500  1
  H  H98  1  0.13301800  0.10520700  0.77250000  1
  H  H99  1  0.20830000  0.16869500  0.91732000  1
  H  H100  1  0.41882900  0.81573400  0.61548400  1
  H  H101  1  0.33366400  0.83366400  0.65462500  1
  H  H102  1  0.26931200  0.87088600  0.59261500  1
  H  H103  1  0.28748800  0.92985700  0.44842100  1
  H  H104  1  0.26333700  0.93851500  0.51614200  1
  H  H105  1  0.47896200  0.83555700  0.50380000  1
  H  H106  1  0.43967700  0.80116900  0.45757800  1
  H  H107  1  0.46077700  0.77226100  0.52057300  1
  H  H108  1  0.44390900  0.92645100  0.33399500  1
  H  H109  1  0.38714800  0.87462700  0.27250000  1
  H  H110  1  0.31186600  0.81113900  0.41732000  1
  H  H111  1  0.58590000  0.33117100  0.86548400  1
  H  H112  1  0.60383000  0.41633600  0.90462500  1
  H  H113  1  0.64105300  0.48068800  0.84261500  1
  H  H114  1  0.70002300  0.46251200  0.69842100  1
  H  H115  1  0.70868100  0.48666300  0.76614200  1
  H  H116  1  0.60572300  0.27103800  0.75380000  1
  H  H117  1  0.57133600  0.31032300  0.70757800  1
  H  H118  1  0.54242700  0.28922300  0.77057300  1
  H  H119  1  0.69661800  0.30609100  0.58399500  1
  H  H120  1  0.64479300  0.36285200  0.52250000  1
  H  H121  1  0.58130500  0.43813400  0.66732000  1
  H  H122  1  0.93426600  0.64866300  0.36548400  1
  H  H123  1  0.91633600  0.56349700  0.40462500  1
  H  H124  1  0.87911400  0.49914500  0.34261500  1
  H  H125  1  0.82014300  0.51732100  0.19842100  1
  H  H126  1  0.81148500  0.49317000  0.26614200  1
  H  H127  1  0.91444300  0.70879600  0.25380000  1
  H  H128  1  0.94883100  0.66951000  0.20757800  1
  H  H129  1  0.97773900  0.69061100  0.27057300  1
  H  H130  1  0.82354900  0.67374200  0.08399500  1
  H  H131  1  0.87537300  0.61698200  0.02250000  1
  H  H132  1  0.93886100  0.54170000  0.16732000  1
  H  H133  1  0.41882900  0.16410000  0.38451600  1
  H  H134  1  0.33366400  0.14617000  0.34537500  1
  H  H135  1  0.26931200  0.10894700  0.40738500  1
  H  H136  1  0.28748800  0.04997700  0.55157900  1
  H  H137  1  0.26333700  0.04131900  0.48385800  1
  H  H138  1  0.47896200  0.14427700  0.49620000  1
  H  H139  1  0.43967700  0.17866400  0.54242200  1
  H  H140  1  0.46077700  0.20757300  0.47942700  1
  H  H141  1  0.44390900  0.05338200  0.66600500  1
  H  H142  1  0.38714800  0.10520700  0.72750000  1
  H  H143  1  0.31186600  0.16869500  0.58268000  1
  H  H144  1  0.10133700  0.81573400  0.88451600  1
  H  H145  1  0.18650300  0.83366400  0.84537500  1
  H  H146  1  0.25085500  0.87088600  0.90738500  1
  H  H147  1  0.23267900  0.92985700  0.05157900  1
  H  H148  1  0.25683000  0.93851500  0.98385800  1
  H  H149  1  0.04120400  0.83555700  0.99620000  1
  H  H150  1  0.08049000  0.80116900  0.04242200  1
  H  H151  1  0.05938900  0.77226100  0.97942700  1
  H  H152  1  0.07625800  0.92645100  0.16600500  1
  H  H153  1  0.13301800  0.87462700  0.22750000  1
  H  H154  1  0.20830000  0.81113900  0.08268000  1
  H  H155  1  0.93426600  0.33117100  0.63451600  1
  H  H156  1  0.91633600  0.41633600  0.59537500  1
  H  H157  1  0.87911400  0.48068800  0.65738500  1
  H  H158  1  0.82014300  0.46251200  0.80157900  1
  H  H159  1  0.81148500  0.48666300  0.73385800  1
  H  H160  1  0.91444300  0.27103800  0.74620000  1
  H  H161  1  0.94883100  0.31032300  0.79242200  1
  H  H162  1  0.97773900  0.28922300  0.72942700  1
  H  H163  1  0.82354900  0.30609100  0.91600500  1
  H  H164  1  0.87537300  0.36285200  0.97750000  1
  H  H165  1  0.93886100  0.43813400  0.83268000  1
  H  H166  1  0.58590000  0.64866300  0.13451600  1
  H  H167  1  0.60383000  0.56349700  0.09537500  1
  H  H168  1  0.64105300  0.49914500  0.15738500  1
  H  H169  1  0.70002300  0.51732100  0.30157900  1
  H  H170  1  0.70868100  0.49317000  0.23385800  1
  H  H171  1  0.60572300  0.70879600  0.24620000  1
  H  H172  1  0.57133600  0.66951000  0.29242200  1
  H  H173  1  0.54242700  0.69061100  0.22942700  1
  H  H174  1  0.69661800  0.67374200  0.41600500  1
  H  H175  1  0.64479300  0.61698200  0.47750000  1
  H  H176  1  0.58130500  0.54170000  0.33268000  1
  C  C1  1  0.07893500  0.53860300  0.05295800  1
  C  C2  1  0.07893500  0.44123100  0.94704200  1
  C  C3  1  0.94123100  0.44123100  0.94704200  1
  C  C4  1  0.94123100  0.53860300  0.05295800  1
  C  C5  1  0.07893500  0.94123100  0.05295800  1
  C  C6  1  0.86291200  0.85873400  0.00703500  1
  C  C7  1  0.89915900  0.83130300  0.97192000  1
  C  C8  1  0.89112700  0.83132100  0.91238300  1
  C  C9  1  0.84490900  0.84244200  0.88986600  1
  C  C10  1  0.80661600  0.86532700  0.92386200  1
  C  C11  1  0.81859000  0.87927300  0.98058000  1
  C  C12  1  0.77493500  0.90917900  0.01317900  1
  C  C13  1  0.94920300  0.80811100  0.99807900  1
  C  C14  1  0.87068300  0.86818300  0.06574000  1
  C  C15  1  0.90804800  0.90203700  0.08996400  1
  C  C16  1  0.91526000  0.90181700  0.14755200  1
  C  C17  1  0.88191600  0.87699500  0.18242000  1
  C  C18  1  0.84396400  0.84359900  0.15878800  1
  C  C19  1  0.83862500  0.84044000  0.10083800  1
  C  C20  1  0.65725400  0.12109900  0.50703500  1
  C  C21  1  0.62100700  0.14853100  0.47192000  1
  C  C22  1  0.62903900  0.14851300  0.41238300  1
  C  C23  1  0.67525800  0.13739200  0.38986600  1
  C  C24  1  0.71355000  0.11450600  0.42386200  1
  C  C25  1  0.70157600  0.10056100  0.48058000  1
  C  C26  1  0.74523100  0.07065400  0.51317900  1
  C  C27  1  0.57096300  0.17172200  0.49807900  1
  C  C28  1  0.64948300  0.11165100  0.56574000  1
  C  C29  1  0.61211800  0.07779700  0.58996400  1
  C  C30  1  0.60490600  0.07801700  0.64755200  1
  C  C31  1  0.63825000  0.10283900  0.68242000  1
  C  C32  1  0.57893500  0.03860300  0.55295800  1
  C  C33  1  0.67620300  0.13623400  0.65878800  1
  C  C34  1  0.68154200  0.13939400  0.60083800  1
  C  C35  1  0.39126600  0.59274600  0.25703500  1
  C  C36  1  0.41869700  0.62899300  0.22192000  1
  C  C37  1  0.41867900  0.62096100  0.16238300  1
  C  C38  1  0.40755800  0.57474200  0.13986600  1
  C  C39  1  0.38467300  0.53645000  0.17386200  1
  C  C40  1  0.37072700  0.54842400  0.23058000  1
  C  C41  1  0.34082100  0.50476900  0.26317900  1
  C  C42  1  0.44188900  0.67903700  0.24807900  1
  C  C43  1  0.38181700  0.60051700  0.31574000  1
  C  C44  1  0.34796300  0.63788200  0.33996400  1
  C  C45  1  0.34818300  0.64509400  0.39755200  1
  C  C46  1  0.37300500  0.61175000  0.43242000  1
  C  C47  1  0.40640100  0.57379700  0.40878800  1
  C  C48  1  0.40956000  0.56845800  0.35083800  1
  C  C49  1  0.57893500  0.94123100  0.44704200  1
  C  C50  1  0.12890100  0.38708800  0.75703500  1
  C  C51  1  0.10146900  0.35084100  0.72192000  1
  C  C52  1  0.10148700  0.35887300  0.66238300  1
  C  C53  1  0.11260800  0.40509100  0.63986600  1
  C  C54  1  0.13549400  0.44338400  0.67386200  1
  C  C55  1  0.14943900  0.43141000  0.73058000  1
  C  C56  1  0.17934600  0.47506500  0.76317900  1
  C  C57  1  0.07827800  0.30079700  0.74807900  1
  C  C58  1  0.94123100  0.94123100  0.05295800  1
  C  C59  1  0.13834900  0.37931700  0.81574000  1
  C  C60  1  0.17220300  0.34195200  0.83996400  1
  C  C61  1  0.17198300  0.33474000  0.89755200  1
  C  C62  1  0.14716100  0.36808400  0.93242000  1
  C  C63  1  0.11376600  0.40603600  0.90878800  1
  C  C64  1  0.11060600  0.41137500  0.85083800  1
  C  C65  1  0.65725400  0.85873400  0.49296500  1
  C  C66  1  0.62100700  0.83130300  0.52808000  1
  C  C67  1  0.62903900  0.83132100  0.58761700  1
  C  C68  1  0.67525800  0.84244200  0.61013400  1
  C  C69  1  0.44123100  0.94123100  0.44704200  1
  C  C70  1  0.71355000  0.86532700  0.57613800  1
  C  C71  1  0.70157600  0.87927300  0.51942000  1
  C  C72  1  0.74523100  0.90917900  0.48682100  1
  C  C73  1  0.57096300  0.80811100  0.50192100  1
  C  C74  1  0.64948300  0.86818300  0.43426000  1
  C  C75  1  0.61211800  0.90203700  0.41003600  1
  C  C76  1  0.60490600  0.90181700  0.35244800  1
  C  C77  1  0.63825000  0.87699500  0.31758000  1
  C  C78  1  0.67620300  0.84359900  0.34121200  1
  C  C79  1  0.68154200  0.84044000  0.39916200  1
  C  C80  1  0.86291200  0.12109900  0.99296500  1
  C  C81  1  0.89915900  0.14853100  0.02808000  1
  C  C82  1  0.89112700  0.14851300  0.08761700  1
  C  C83  1  0.84490900  0.13739200  0.11013400  1
  C  C84  1  0.80661600  0.11450600  0.07613800  1
  C  C85  1  0.81859000  0.10056100  0.01942000  1
  C  C86  1  0.77493500  0.07065400  0.98682100  1
  C  C87  1  0.94920300  0.17172200  0.00192100  1
  C  C88  1  0.44123100  0.03860300  0.55295800  1
  C  C89  1  0.87068300  0.11165100  0.93426000  1
  C  C90  1  0.90804800  0.07779700  0.91003600  1
  C  C91  1  0.91526000  0.07801700  0.85244800  1
  C  C92  1  0.88191600  0.10283900  0.81758000  1
  C  C93  1  0.84396400  0.13623400  0.84121200  1
  C  C94  1  0.83862500  0.13939400  0.89916200  1
  C  C95  1  0.12890100  0.59274600  0.24296500  1
  C  C96  1  0.10146900  0.62899300  0.27808000  1
  C  C97  1  0.10148700  0.62096100  0.33761700  1
  C  C98  1  0.11260800  0.57474200  0.36013400  1
  C  C99  1  0.13549400  0.53645000  0.32613800  1
  C  C100  1  0.14943900  0.54842400  0.26942000  1
  C  C101  1  0.17934600  0.50476900  0.23682100  1
  C  C102  1  0.07827800  0.67903700  0.25192100  1
  C  C103  1  0.13834900  0.60051700  0.18426000  1
  C  C104  1  0.17220300  0.63788200  0.16003600  1
  C  C105  1  0.17198300  0.64509400  0.10244800  1
  C  C106  1  0.14716100  0.61175000  0.06758000  1
  C  C107  1  0.11376600  0.57379700  0.09121200  1
  C  C108  1  0.11060600  0.56845800  0.14916200  1
  C  C109  1  0.39126600  0.38708800  0.74296500  1
  C  C110  1  0.41869700  0.35084100  0.77808000  1
  C  C111  1  0.41867900  0.35887300  0.83761700  1
  C  C112  1  0.40755800  0.40509100  0.86013400  1
  C  C113  1  0.38467300  0.44338400  0.82613800  1
  C  C114  1  0.37072700  0.43141000  0.76942000  1
  C  C115  1  0.30876900  0.67106500  0.30295800  1
  C  C116  1  0.34082100  0.47506500  0.73682100  1
  C  C117  1  0.44188900  0.30079700  0.75192100  1
  C  C118  1  0.38181700  0.37931700  0.68426000  1
  C  C119  1  0.34796300  0.34195200  0.66003600  1
  C  C120  1  0.34818300  0.33474000  0.60244800  1
  C  C121  1  0.37300500  0.36808400  0.56758000  1
  C  C122  1  0.40640100  0.40603600  0.59121200  1
  C  C123  1  0.40956000  0.41137500  0.64916200  1
  C  C124  1  0.15725400  0.12109900  0.99296500  1
  C  C125  1  0.12100700  0.14853100  0.02808000  1
  C  C126  1  0.12903900  0.14851300  0.08761700  1
  C  C127  1  0.17525800  0.13739200  0.11013400  1
  C  C128  1  0.21355000  0.11450600  0.07613800  1
  C  C129  1  0.20157600  0.10056100  0.01942000  1
  C  C130  1  0.24523100  0.07065400  0.98682100  1
  C  C131  1  0.07096300  0.17172200  0.00192100  1
  C  C132  1  0.21139700  0.67106500  0.19704200  1
  C  C133  1  0.14948300  0.11165100  0.93426000  1
  C  C134  1  0.11211800  0.07779700  0.91003600  1
  C  C135  1  0.10490600  0.07801700  0.85244800  1
  C  C136  1  0.13825000  0.10283900  0.81758000  1
  C  C137  1  0.17620300  0.13623400  0.84121200  1
  C  C138  1  0.18154200  0.13939400  0.89916200  1
  C  C139  1  0.36291200  0.85873400  0.49296500  1
  C  C140  1  0.39915900  0.83130300  0.52808000  1
  C  C141  1  0.39112700  0.83132100  0.58761700  1
  C  C142  1  0.34490900  0.84244200  0.61013400  1
  C  C143  1  0.30661600  0.86532700  0.57613800  1
  C  C144  1  0.31859000  0.87927300  0.51942000  1
  C  C145  1  0.27493500  0.90917900  0.48682100  1
  C  C146  1  0.44920300  0.80811100  0.50192100  1
  C  C147  1  0.21139700  0.80876900  0.19704200  1
  C  C148  1  0.37068300  0.86818300  0.43426000  1
  C  C149  1  0.40804800  0.90203700  0.41003600  1
  C  C150  1  0.41526000  0.90181700  0.35244800  1
  C  C151  1  0.38191600  0.87699500  0.31758000  1
  C  C152  1  0.34396400  0.84359900  0.34121200  1
  C  C153  1  0.33862500  0.84044000  0.39916200  1
  C  C154  1  0.62890100  0.38708800  0.74296500  1
  C  C155  1  0.60146900  0.35084100  0.77808000  1
  C  C156  1  0.60148700  0.35887300  0.83761700  1
  C  C157  1  0.61260800  0.40509100  0.86013400  1
  C  C158  1  0.63549400  0.44338400  0.82613800  1
  C  C159  1  0.64943900  0.43141000  0.76942000  1
  C  C160  1  0.67934600  0.47506500  0.73682100  1
  C  C161  1  0.57827800  0.30079700  0.75192100  1
  C  C162  1  0.63834900  0.37931700  0.68426000  1
  C  C163  1  0.67220300  0.34195200  0.66003600  1
  C  C164  1  0.30876900  0.80876900  0.30295800  1
  C  C165  1  0.67198300  0.33474000  0.60244800  1
  C  C166  1  0.64716100  0.36808400  0.56758000  1
  C  C167  1  0.61376600  0.40603600  0.59121200  1
  C  C168  1  0.61060600  0.41137500  0.64916200  1
  C  C169  1  0.89126600  0.59274600  0.24296500  1
  C  C170  1  0.91869700  0.62899300  0.27808000  1
  C  C171  1  0.91867900  0.62096100  0.33761700  1
  C  C172  1  0.90755800  0.57474200  0.36013400  1
  C  C173  1  0.88467300  0.53645000  0.32613800  1
  C  C174  1  0.87072700  0.54842400  0.26942000  1
  C  C175  1  0.84082100  0.50476900  0.23682100  1
  C  C176  1  0.94188900  0.67903700  0.25192100  1
  C  C177  1  0.88181700  0.60051700  0.18426000  1
  C  C178  1  0.84796300  0.63788200  0.16003600  1
  C  C179  1  0.84818300  0.64509400  0.10244800  1
  C  C180  1  0.87300500  0.61175000  0.06758000  1
  C  C181  1  0.90640100  0.57379700  0.09121200  1
  C  C182  1  0.90956000  0.56845800  0.14916200  1
  C  C183  1  0.36291200  0.12109900  0.50703500  1
  C  C184  1  0.39915900  0.14853100  0.47192000  1
  C  C185  1  0.39112700  0.14851300  0.41238300  1
  C  C186  1  0.34490900  0.13739200  0.38986600  1
  C  C187  1  0.30661600  0.11450600  0.42386200  1
  C  C188  1  0.31859000  0.10056100  0.48058000  1
  C  C189  1  0.27493500  0.07065400  0.51317900  1
  C  C190  1  0.44920300  0.17172200  0.49807900  1
  C  C191  1  0.21139700  0.30876900  0.80295800  1
  C  C192  1  0.37068300  0.11165100  0.56574000  1
  C  C193  1  0.40804800  0.07779700  0.58996400  1
  C  C194  1  0.41526000  0.07801700  0.64755200  1
  C  C195  1  0.38191600  0.10283900  0.68242000  1
  C  C196  1  0.34396400  0.13623400  0.65878800  1
  C  C197  1  0.33862500  0.13939400  0.60083800  1
  C  C198  1  0.15725400  0.85873400  0.00703500  1
  C  C199  1  0.12100700  0.83130300  0.97192000  1
  C  C200  1  0.12903900  0.83132100  0.91238300  1
  C  C201  1  0.17525800  0.84244200  0.88986600  1
  C  C202  1  0.21355000  0.86532700  0.92386200  1
  C  C203  1  0.20157600  0.87927300  0.98058000  1
  C  C204  1  0.24523100  0.90917900  0.01317900  1
  C  C205  1  0.07096300  0.80811100  0.99807900  1
  C  C206  1  0.14948300  0.86818300  0.06574000  1
  C  C207  1  0.11211800  0.90203700  0.08996400  1
  C  C208  1  0.10490600  0.90181700  0.14755200  1
  C  C209  1  0.30876900  0.30876900  0.69704200  1
  C  C210  1  0.13825000  0.87699500  0.18242000  1
  C  C211  1  0.17620300  0.84359900  0.15878800  1
  C  C212  1  0.18154200  0.84044000  0.10083800  1
  C  C213  1  0.89126600  0.38708800  0.75703500  1
  C  C214  1  0.91869700  0.35084100  0.72192000  1
  C  C215  1  0.91867900  0.35887300  0.66238300  1
  C  C216  1  0.90755800  0.40509100  0.63986600  1
  C  C217  1  0.88467300  0.44338400  0.67386200  1
  C  C218  1  0.87072700  0.43141000  0.73058000  1
  C  C219  1  0.84082100  0.47506500  0.76317900  1
  C  C220  1  0.94188900  0.30079700  0.74807900  1
  C  C221  1  0.88181700  0.37931700  0.81574000  1
  C  C222  1  0.84796300  0.34195200  0.83996400  1
  C  C223  1  0.84818300  0.33474000  0.89755200  1
  C  C224  1  0.87300500  0.36808400  0.93242000  1
  C  C225  1  0.90640100  0.40603600  0.90878800  1
  C  C226  1  0.90956000  0.41137500  0.85083800  1
  C  C227  1  0.94123100  0.03860300  0.94704200  1
  C  C228  1  0.30876900  0.17106500  0.69704200  1
  C  C229  1  0.62890100  0.59274600  0.25703500  1
  C  C230  1  0.60146900  0.62899300  0.22192000  1
  C  C231  1  0.60148700  0.62096100  0.16238300  1
  C  C232  1  0.61260800  0.57474200  0.13986600  1
  C  C233  1  0.63549400  0.53645000  0.17386200  1
  C  C234  1  0.64943900  0.54842400  0.23058000  1
  C  C235  1  0.67934600  0.50476900  0.26317900  1
  C  C236  1  0.57827800  0.67903700  0.24807900  1
  C  C237  1  0.63834900  0.60051700  0.31574000  1
  C  C238  1  0.67220300  0.63788200  0.33996400  1
  C  C239  1  0.67198300  0.64509400  0.39755200  1
  C  C240  1  0.64716100  0.61175000  0.43242000  1
  C  C241  1  0.61376600  0.57379700  0.40878800  1
  C  C242  1  0.61060600  0.56845800  0.35083800  1
  C  C243  1  0.21139700  0.17106500  0.80295800  1
  C  C244  1  0.71139700  0.30876900  0.69704200  1
  C  C245  1  0.80876900  0.30876900  0.80295800  1
  C  C246  1  0.80876900  0.17106500  0.80295800  1
  C  C247  1  0.71139700  0.17106500  0.69704200  1
  C  C248  1  0.80876900  0.67106500  0.19704200  1
  C  C249  1  0.71139700  0.67106500  0.30295800  1
  C  C250  1  0.71139700  0.80876900  0.30295800  1
  C  C251  1  0.07893500  0.03860300  0.94704200  1
  C  C252  1  0.80876900  0.80876900  0.19704200  1
  C  C253  1  0.44123100  0.44123100  0.55295800  1
  C  C254  1  0.44123100  0.53860300  0.44704200  1
  C  C255  1  0.57893500  0.53860300  0.44704200  1
  C  C256  1  0.57893500  0.44123100  0.55295800  1
  Br  Br1  1  0.71314600  0.86853500  0.02879700  1
  Br  Br2  1  0.80702100  0.11129900  0.52879700  1
  Br  Br3  1  0.38146500  0.44297900  0.27879700  1
  Br  Br4  1  0.13870100  0.53685400  0.77879700  1
  Br  Br5  1  0.80702100  0.86853500  0.47120300  1
  Br  Br6  1  0.71314600  0.11129900  0.97120300  1
  Br  Br7  1  0.13870100  0.44297900  0.22120300  1
  Br  Br8  1  0.38146500  0.53685400  0.72120300  1
  Br  Br9  1  0.30702100  0.11129900  0.97120300  1
  Br  Br10  1  0.21314600  0.86853500  0.47120300  1
  Br  Br11  1  0.63870100  0.53685400  0.72120300  1
  Br  Br12  1  0.88146500  0.44297900  0.22120300  1
  Br  Br13  1  0.21314600  0.11129900  0.52879700  1
  Br  Br14  1  0.30702100  0.86853500  0.02879700  1
  Br  Br15  1  0.88146500  0.53685400  0.77879700  1
  Br  Br16  1  0.63870100  0.44297900  0.27879700  1
  O  O1  1  0.06228200  0.99798200  0.92847600  1
  O  O2  1  0.06228200  0.49798200  0.07152400  1
  O  O3  1  0.06228200  0.55567200  0.00877300  1
  O  O4  1  0.06228200  0.42416200  0.99122700  1
  O  O5  1  0.06228200  0.48185200  0.92847600  1
  O  O6  1  0.95788500  0.42416200  0.99122700  1
  O  O7  1  0.95788500  0.48185200  0.92847600  1
  O  O8  1  0.95788500  0.49798200  0.07152400  1
  O  O9  1  0.95788500  0.55567200  0.00877300  1
  O  O10  1  0.06228200  0.98185200  0.07152400  1
  O  O11  1  0.06228200  0.92416200  0.00877300  1
  O  O12  1  0.56228200  0.99798200  0.57152400  1
  O  O13  1  0.56228200  0.05567200  0.50877300  1
  O  O14  1  0.56228200  0.92416200  0.49122700  1
  O  O15  1  0.56228200  0.98185200  0.42847600  1
  O  O16  1  0.45788500  0.92416200  0.49122700  1
  O  O17  1  0.45788500  0.98185200  0.42847600  1
  O  O18  1  0.45788500  0.99798200  0.57152400  1
  O  O19  1  0.45788500  0.05567200  0.50877300  1
  O  O20  1  0.95788500  0.98185200  0.07152400  1
  O  O21  1  0.26814800  0.68771800  0.32152400  1
  O  O22  1  0.32583800  0.68771800  0.25877300  1
  O  O23  1  0.19432800  0.68771800  0.24122700  1
  O  O24  1  0.25201800  0.68771800  0.17847600  1
  O  O25  1  0.19432800  0.79211500  0.24122700  1
  O  O26  1  0.25201800  0.79211500  0.17847600  1
  O  O27  1  0.95788500  0.92416200  0.00877300  1
  O  O28  1  0.26814800  0.79211500  0.32152400  1
  O  O29  1  0.32583800  0.79211500  0.25877300  1
  O  O30  1  0.25201800  0.29211500  0.82152400  1
  O  O31  1  0.19432800  0.29211500  0.75877300  1
  O  O32  1  0.32583800  0.29211500  0.74122700  1
  O  O33  1  0.26814800  0.29211500  0.67847600  1
  O  O34  1  0.32583800  0.18771800  0.74122700  1
  O  O35  1  0.26814800  0.18771800  0.67847600  1
  O  O36  1  0.25201800  0.18771800  0.82152400  1
  O  O37  1  0.19432800  0.18771800  0.75877300  1
  O  O38  1  0.75201800  0.29211500  0.67847600  1
  O  O39  1  0.95788500  0.05567200  0.99122700  1
  O  O40  1  0.69432800  0.29211500  0.74122700  1
  O  O41  1  0.82583800  0.29211500  0.75877300  1
  O  O42  1  0.76814800  0.29211500  0.82152400  1
  O  O43  1  0.82583800  0.18771800  0.75877300  1
  O  O44  1  0.76814800  0.18771800  0.82152400  1
  O  O45  1  0.75201800  0.18771800  0.67847600  1
  O  O46  1  0.69432800  0.18771800  0.74122700  1
  O  O47  1  0.95788500  0.99798200  0.92847600  1
  O  O48  1  0.76814800  0.68771800  0.17847600  1
  O  O49  1  0.82583800  0.68771800  0.24122700  1
  O  O50  1  0.69432800  0.68771800  0.25877300  1
  O  O51  1  0.75201800  0.68771800  0.32152400  1
  O  O52  1  0.69432800  0.79211500  0.25877300  1
  O  O53  1  0.75201800  0.79211500  0.32152400  1
  O  O54  1  0.76814800  0.79211500  0.17847600  1
  O  O55  1  0.82583800  0.79211500  0.24122700  1
  O  O56  1  0.45788500  0.48185200  0.57152400  1
  O  O57  1  0.45788500  0.42416200  0.50877300  1
  O  O58  1  0.06228200  0.05567200  0.99122700  1
  O  O59  1  0.45788500  0.55567200  0.49122700  1
  O  O60  1  0.45788500  0.49798200  0.42847600  1
  O  O61  1  0.56228200  0.55567200  0.49122700  1
  O  O62  1  0.56228200  0.49798200  0.42847600  1
  O  O63  1  0.56228200  0.48185200  0.57152400  1
  O  O64  1  0.56228200  0.42416200  0.50877300  1
