# Generated by REPEAT Assigner based on pymatgen
data_DB13-nbo-Syn015386
_audit_creation_date              2022-05-24
_audit_creation_method            REPEAT_Assigner
_cell_length_a                    28.115900
_cell_length_b                    28.115900
_cell_length_c                    28.115900
_cell_angle_alpha                 90.000000
_cell_angle_beta                  90.000000
_cell_angle_gamma                 90.000000
_cell_volume                      22225.726713
_symmetry_space_group_name_H-M    P1
_symmetry_Int_Tables_number       1
loop_
    _symmetry_equiv_pos_site_id
    _symmetry_equiv_pos_as_xyz
    1  x,y,z
loop_
    _atom_site_type_symbol
    _atom_site_label
    _atom_site_fract_x
    _atom_site_fract_y
    _atom_site_fract_z
    _atom_type_partial_charge
    C   C1    0.120465  0.590505  0.196591  -0.316721
    C   C2    0.079640  0.558694  0.188565  0.312112
    C   C3    0.057027  0.539609  0.228273  -0.370162
    C   C4    0.018083  0.506741  0.226772  0.153725
    C   C5    0.001307  0.495449  0.178902  -0.193904
    C   C6    0.021839  0.515592  0.139377  -0.108241
    C   C7    0.062957  0.546247  0.144071  -0.215537
    C   C8    0.000000  0.589699  0.500000  0.841593
    C   C9    0.150085  0.327432  0.683840  -0.495442
    C   C10   0.125445  0.371259  0.663420  0.752431
    C   C11   0.061373  0.431593  0.689968  0.468354
    C   C12   0.036302  0.447491  0.732485  -0.409217
    C   C13   0.004001  0.485601  0.730271  0.151756
    C   C14   0.994222  0.498453  0.681336  -0.211620
    C   C15   0.015253  0.478983  0.638597  -0.074463
    C   C16   0.050103  0.445372  0.644122  -0.235190
    C   C17   0.879535  0.590505  0.803409  -0.320648
    C   C18   0.920360  0.558694  0.811435  0.318393
    C   C19   0.942973  0.539609  0.771727  -0.378434
    C   C20   0.981917  0.506741  0.773228  0.157164
    C   C21   0.998693  0.495449  0.821098  -0.194466
    C   C22   0.978161  0.515592  0.860623  -0.111357
    C   C23   0.937043  0.546247  0.855929  -0.217724
    C   C24   0.316160  0.849915  0.327432  -0.492668
    C   C25   0.336580  0.874555  0.371259  0.755045
    C   C26   0.310032  0.938627  0.431593  0.461551
    C   C27   0.267515  0.963698  0.447491  -0.399308
    C   C28   0.269729  0.995999  0.485601  0.151470
    C   C29   0.318664  0.005778  0.498453  -0.223487
    C   C30   0.361403  0.984747  0.478983  -0.071820
    C   C31   0.355878  0.949897  0.445372  -0.231989
    C   C32   0.410301  0.000000  0.500000  0.837532
    C   C33   0.196591  0.120465  0.590505  -0.301536
    C   C34   0.188565  0.079640  0.558694  0.282994
    C   C35   0.228273  0.057027  0.539609  -0.354633
    C   C36   0.226772  0.018083  0.506741  0.171681
    C   C37   0.178902  0.001307  0.495449  -0.261658
    C   C38   0.139377  0.021839  0.515592  -0.035847
    C   C39   0.144071  0.062957  0.546247  -0.227990
    C   C40   0.683840  0.150085  0.327432  -0.491720
    C   C41   0.663420  0.125445  0.371259  0.736300
    C   C42   0.689968  0.061373  0.431593  0.447601
    C   C43   0.732485  0.036302  0.447491  -0.395440
    C   C44   0.730271  0.004001  0.485601  0.153108
    C   C45   0.681336  0.994222  0.498453  -0.249685
    C   C46   0.638597  0.015253  0.478983  -0.063993
    C   C47   0.644122  0.050103  0.445372  -0.214517
    C   C48   0.500000  0.000000  0.410301  0.833074
    C   C49   0.803409  0.879535  0.590505  -0.291723
    C   C50   0.811435  0.920360  0.558694  0.287064
    C   C51   0.771727  0.942973  0.539609  -0.357909
    C   C52   0.773228  0.981917  0.506741  0.173219
    C   C53   0.821098  0.998693  0.495449  -0.264792
    C   C54   0.860623  0.978161  0.515592  -0.029897
    C   C55   0.855929  0.937043  0.546247  -0.231252
    C   C56   0.000000  0.500000  0.410301  0.844161
    C   C57   0.327432  0.316160  0.849915  -0.489831
    C   C58   0.371259  0.336580  0.874555  0.752225
    C   C59   0.431593  0.310032  0.938627  0.462875
    C   C60   0.447491  0.267515  0.963698  -0.402878
    C   C61   0.485601  0.269729  0.995999  0.150252
    C   C62   0.498453  0.318664  0.005778  -0.211035
    C   C63   0.478983  0.361403  0.984747  -0.079104
    C   C64   0.445372  0.355878  0.949897  -0.230293
    C   C65   0.589699  0.000000  0.500000  0.841587
    C   C66   0.590505  0.196591  0.120465  -0.320260
    C   C67   0.558694  0.188565  0.079640  0.311272
    C   C68   0.539609  0.228273  0.057027  -0.370989
    C   C69   0.506741  0.226772  0.018083  0.153123
    C   C70   0.495449  0.178902  0.001307  -0.190526
    C   C71   0.515592  0.139377  0.021839  -0.114461
    C   C72   0.546247  0.144071  0.062957  -0.213155
    C   C73   0.327432  0.683840  0.150085  -0.491700
    C   C74   0.371259  0.663420  0.125445  0.737867
    C   C75   0.431593  0.689968  0.061373  0.459520
    C   C76   0.447491  0.732485  0.036302  -0.404711
    C   C77   0.485601  0.730271  0.004001  0.153857
    C   C78   0.498453  0.681336  0.994222  -0.238911
    C   C79   0.478983  0.638597  0.015253  -0.069038
    C   C80   0.445372  0.644122  0.050103  -0.220912
    C   C81   0.500000  0.000000  0.589699  0.844177
    C   C82   0.590505  0.803409  0.879535  -0.316983
    C   C83   0.558694  0.811435  0.920360  0.319703
    C   C84   0.539609  0.771727  0.942973  -0.377984
    C   C85   0.506741  0.773228  0.981917  0.157739
    C   C86   0.495449  0.821098  0.998693  -0.198519
    C   C87   0.515592  0.860623  0.978161  -0.104691
    C   C88   0.546247  0.855929  0.937043  -0.220531
    C   C89   0.327432  0.849915  0.683840  -0.484760
    C   C90   0.371259  0.874555  0.663420  0.736351
    C   C91   0.431593  0.938627  0.689968  0.453083
    C   C92   0.447491  0.963698  0.732485  -0.397481
    C   C93   0.485601  0.995999  0.730271  0.151038
    C   C94   0.498453  0.005778  0.681336  -0.237281
    C   C95   0.478983  0.984747  0.638597  -0.073598
    C   C96   0.445372  0.949897  0.644122  -0.215356
    C   C97   0.590505  0.120465  0.803409  -0.316721
    C   C98   0.558694  0.079640  0.811435  0.312109
    C   C99   0.539609  0.057027  0.771727  -0.370164
    C   C100  0.506741  0.018083  0.773228  0.153723
    C   C101  0.495449  0.001307  0.821098  -0.193905
    C   C102  0.515592  0.021839  0.860623  -0.108241
    C   C103  0.546247  0.062957  0.855929  -0.215532
    C   C104  0.327432  0.150085  0.316160  -0.495443
    C   C105  0.371259  0.125445  0.336580  0.752420
    C   C106  0.431593  0.061373  0.310032  0.468351
    C   C107  0.447491  0.036302  0.267515  -0.409222
    C   C108  0.500000  0.410301  0.000000  0.837155
    C   C109  0.485601  0.004001  0.269729  0.151753
    C   C110  0.498453  0.994222  0.318664  -0.211612
    C   C111  0.478983  0.015253  0.361403  -0.074480
    C   C112  0.445372  0.050103  0.355878  -0.235168
    C   C113  0.590505  0.879535  0.196591  -0.320648
    C   C114  0.558694  0.920360  0.188565  0.318393
    C   C115  0.539609  0.942973  0.228273  -0.378432
    C   C116  0.506741  0.981917  0.226772  0.157164
    C   C117  0.495449  0.998693  0.178902  -0.194465
    C   C118  0.515592  0.978161  0.139377  -0.111357
    C   C119  0.546247  0.937043  0.144071  -0.217727
    C   C120  0.849915  0.316160  0.672568  -0.492637
    C   C121  0.874555  0.336580  0.628741  0.755031
    C   C122  0.938627  0.310032  0.568407  0.461467
    C   C123  0.963698  0.267515  0.552509  -0.399236
    C   C124  0.410301  0.500000  0.000000  0.837160
    C   C125  0.995999  0.269729  0.514399  0.151397
    C   C126  0.005778  0.318664  0.501547  -0.223350
    C   C127  0.984747  0.361403  0.521017  -0.072073
    C   C128  0.949897  0.355878  0.554628  -0.231801
    C   C129  0.120465  0.196591  0.409495  -0.301540
    C   C130  0.079640  0.188565  0.441306  0.283008
    C   C131  0.057027  0.228273  0.460391  -0.354646
    C   C132  0.018083  0.226772  0.493259  0.171693
    C   C133  0.001307  0.178902  0.504551  -0.261656
    C   C134  0.021839  0.139377  0.484408  -0.035842
    C   C135  0.062957  0.144071  0.453753  -0.228002
    C   C136  0.150085  0.683840  0.672568  -0.491709
    C   C137  0.125445  0.663420  0.628741  0.736299
    C   C138  0.061373  0.689968  0.568407  0.447599
    C   C139  0.036302  0.732485  0.552509  -0.395431
    C   C140  0.500000  0.589699  0.000000  0.842113
    C   C141  0.004001  0.730271  0.514399  0.153099
    C   C142  0.994222  0.681336  0.501547  -0.249678
    C   C143  0.015253  0.638597  0.521017  -0.064002
    C   C144  0.050103  0.644122  0.554628  -0.214515
    C   C145  0.879535  0.803409  0.409495  -0.291722
    C   C146  0.920360  0.811435  0.441306  0.287065
    C   C147  0.942973  0.771727  0.460391  -0.357913
    C   C148  0.981917  0.773228  0.493259  0.173224
    C   C149  0.998693  0.821098  0.504551  -0.264794
    C   C150  0.978161  0.860623  0.484408  -0.029892
    C   C151  0.937043  0.855929  0.453753  -0.231257
    C   C152  0.316160  0.327432  0.150085  -0.489830
    C   C153  0.336580  0.371259  0.125445  0.752223
    C   C154  0.310032  0.431593  0.061373  0.462870
    C   C155  0.267515  0.447491  0.036302  -0.402875
    C   C156  0.589699  0.500000  0.000000  0.842111
    C   C157  0.269729  0.485601  0.004001  0.150250
    C   C158  0.318664  0.498453  0.994222  -0.211032
    C   C159  0.361403  0.478983  0.015253  -0.079112
    C   C160  0.355878  0.445372  0.050103  -0.230283
    C   C161  0.196591  0.590505  0.879535  -0.320267
    C   C162  0.188565  0.558694  0.920360  0.311274
    C   C163  0.228273  0.539609  0.942973  -0.370991
    C   C164  0.226772  0.506741  0.981917  0.153122
    C   C165  0.178902  0.495449  0.998693  -0.190522
    C   C166  0.139377  0.515592  0.978161  -0.114461
    C   C167  0.144071  0.546247  0.937043  -0.213158
    C   C168  0.683840  0.327432  0.849915  -0.491700
    C   C169  0.663420  0.371259  0.874555  0.737870
    C   C170  0.689968  0.431593  0.938627  0.459523
    C   C171  0.732485  0.447491  0.963698  -0.404711
    C   C172  0.730271  0.485601  0.995999  0.153855
    C   C173  0.681336  0.498453  0.005778  -0.238909
    C   C174  0.638597  0.478983  0.984747  -0.069034
    C   C175  0.644122  0.445372  0.949897  -0.220922
    C   C176  0.803409  0.590505  0.120465  -0.316977
    C   C177  0.811435  0.558694  0.079640  0.319701
    C   C178  0.771727  0.539609  0.057027  -0.377983
    C   C179  0.773228  0.506741  0.018083  0.157741
    C   C180  0.821098  0.495449  0.001307  -0.198523
    C   C181  0.860623  0.515592  0.021839  -0.104691
    C   C182  0.855929  0.546247  0.062957  -0.220529
    C   C183  0.500000  0.000000  0.910301  0.910200
    C   C184  0.500000  0.910301  0.000000  0.909583
    C   C185  0.000000  0.410301  0.500000  0.837610
    C   C186  0.500000  0.000000  0.089699  0.911760
    C   C187  0.500000  0.089699  0.000000  0.912512
    C   C188  0.910301  0.500000  0.000000  0.909584
    C   C189  0.000000  0.500000  0.910301  0.911758
    C   C190  0.089699  0.500000  0.000000  0.912512
    C   C191  0.000000  0.500000  0.089699  0.910202
    C   C192  0.000000  0.910301  0.500000  0.885495
    C   C193  0.910301  0.000000  0.500000  0.885498
    C   C194  0.000000  0.089699  0.500000  0.887751
    C   C195  0.000000  0.500000  0.589699  0.833078
    C   C196  0.089699  0.000000  0.500000  0.887756
    C   C197  0.849915  0.327432  0.316160  -0.484760
    C   C198  0.874555  0.371259  0.336580  0.736343
    C   C199  0.938627  0.431593  0.310032  0.453088
    C   C200  0.963698  0.447491  0.267515  -0.397486
    C   C201  0.995999  0.485601  0.269729  0.151032
    C   C202  0.005778  0.498453  0.318664  -0.237271
    C   C203  0.984747  0.478983  0.361403  -0.073599
    C   C204  0.949897  0.445372  0.355878  -0.215358
    Cu  Cu1   0.952780  0.500000  0.500000  0.986662
    Cu  Cu2   0.047220  0.500000  0.500000  0.986823
    Cu  Cu3   0.500000  0.952780  0.500000  0.986676
    Cu  Cu4   0.500000  0.047220  0.500000  0.986820
    Cu  Cu5   0.500000  0.500000  0.952780  0.986746
    Cu  Cu6   0.500000  0.500000  0.047220  0.986733
    Cu  Cu7   0.452780  0.000000  0.000000  1.057540
    Cu  Cu8   0.547220  0.000000  0.000000  0.914651
    Cu  Cu9   0.000000  0.452780  0.000000  1.057540
    Cu  Cu10  0.000000  0.547220  0.000000  0.914651
    Cu  Cu11  0.000000  0.000000  0.452780  1.017681
    Cu  Cu12  0.000000  0.000000  0.547220  1.017676
    H   H1    0.932263  0.429599  0.386297  0.194513
    H   H2    0.130755  0.589293  0.233362  0.093568
    H   H3    0.147748  0.579736  0.174611  0.093537
    H   H4    0.111771  0.625779  0.187524  0.094078
    H   H5    0.068528  0.552273  0.262492  0.176278
    H   H6    0.971591  0.474652  0.173130  0.087536
    H   H7    0.083846  0.561410  0.114824  0.123562
    H   H8    0.181953  0.318047  0.664604  0.161336
    H   H9    0.125058  0.297497  0.684751  0.124585
    H   H10   0.160448  0.330801  0.722540  0.108963
    H   H11   0.093831  0.375797  0.726571  0.310464
    H   H12   0.044325  0.431141  0.766738  0.184344
    H   H13   0.967820  0.527519  0.674098  0.067099
    H   H14   0.067737  0.429599  0.613703  0.206691
    H   H15   0.869245  0.589293  0.766638  0.093743
    H   H16   0.852252  0.579736  0.825389  0.093895
    H   H17   0.888229  0.625779  0.812476  0.093446
    H   H18   0.931472  0.552273  0.737508  0.184884
    H   H19   0.028409  0.474652  0.826870  0.087211
    H   H20   0.916154  0.561410  0.885176  0.122641
    H   H21   0.335396  0.818047  0.318047  0.158884
    H   H22   0.315249  0.874942  0.297497  0.123926
    H   H23   0.277460  0.839552  0.330801  0.107024
    H   H24   0.273429  0.906169  0.375797  0.310524
    H   H25   0.233262  0.955675  0.431141  0.182947
    H   H26   0.325902  0.032180  0.527519  0.070446
    H   H27   0.386297  0.932263  0.429599  0.207103
    H   H28   0.233362  0.130755  0.589293  0.095394
    H   H29   0.174611  0.147748  0.579736  0.088365
    H   H30   0.187524  0.111771  0.625779  0.085904
    H   H31   0.262492  0.068528  0.552273  0.175693
    H   H32   0.173130  0.971591  0.474652  0.101602
    H   H33   0.114824  0.083846  0.561410  0.146890
    H   H34   0.664604  0.181953  0.318047  0.161207
    H   H35   0.684751  0.125058  0.297497  0.127702
    H   H36   0.722540  0.160448  0.330801  0.108067
    H   H37   0.726571  0.093831  0.375797  0.309394
    H   H38   0.766738  0.044325  0.431141  0.183747
    H   H39   0.674098  0.967820  0.527519  0.086232
    H   H40   0.613703  0.067737  0.429599  0.191968
    H   H41   0.766638  0.869245  0.589293  0.091586
    H   H42   0.825389  0.852252  0.579736  0.082517
    H   H43   0.812476  0.888229  0.625779  0.086476
    H   H44   0.737508  0.931472  0.552273  0.171116
    H   H45   0.826870  0.028409  0.474652  0.102451
    H   H46   0.885176  0.916154  0.561410  0.148075
    H   H47   0.318047  0.335396  0.818047  0.158866
    H   H48   0.297497  0.315249  0.874942  0.123434
    H   H49   0.330801  0.277460  0.839552  0.105682
    H   H50   0.375797  0.273429  0.906169  0.312025
    H   H51   0.431141  0.233262  0.955675  0.182336
    H   H52   0.527519  0.325902  0.032180  0.067578
    H   H53   0.429599  0.386297  0.932263  0.207066
    H   H54   0.589293  0.233362  0.130755  0.094855
    H   H55   0.579736  0.174611  0.147748  0.095852
    H   H56   0.625779  0.187524  0.111771  0.092231
    H   H57   0.552273  0.262492  0.068528  0.182347
    H   H58   0.474652  0.173130  0.971591  0.086053
    H   H59   0.561410  0.114824  0.083846  0.122006
    H   H60   0.318047  0.664604  0.181953  0.161191
    H   H61   0.297497  0.684751  0.125058  0.127165
    H   H62   0.330801  0.722540  0.160448  0.108229
    H   H63   0.375797  0.726571  0.093831  0.311959
    H   H64   0.431141  0.766738  0.044325  0.183609
    H   H65   0.527519  0.674098  0.967820  0.083822
    H   H66   0.429599  0.613703  0.067737  0.194672
    H   H67   0.589293  0.766638  0.869245  0.092406
    H   H68   0.579736  0.825389  0.852252  0.091355
    H   H69   0.625779  0.812476  0.888229  0.095316
    H   H70   0.552273  0.737508  0.931472  0.178912
    H   H71   0.474652  0.826870  0.028409  0.088904
    H   H72   0.561410  0.885176  0.916154  0.124295
    H   H73   0.318047  0.818047  0.664604  0.158389
    H   H74   0.297497  0.874942  0.684751  0.125447
    H   H75   0.330801  0.839552  0.722540  0.104705
    H   H76   0.375797  0.906169  0.726571  0.313423
    H   H77   0.431141  0.955675  0.766738  0.181401
    H   H78   0.527519  0.032180  0.674098  0.084236
    H   H79   0.429599  0.932263  0.613703  0.194516
    H   H80   0.589293  0.130755  0.766638  0.093568
    H   H81   0.579736  0.147748  0.825389  0.093537
    H   H82   0.625779  0.111771  0.812476  0.094078
    H   H83   0.552273  0.068528  0.737508  0.176280
    H   H84   0.474652  0.971591  0.826870  0.087535
    H   H85   0.561410  0.083846  0.885176  0.123560
    H   H86   0.318047  0.181953  0.335396  0.161335
    H   H87   0.297497  0.125058  0.315249  0.124586
    H   H88   0.330801  0.160448  0.277460  0.108965
    H   H89   0.375797  0.093831  0.273429  0.310464
    H   H90   0.431141  0.044325  0.233262  0.184346
    H   H91   0.527519  0.967820  0.325902  0.067099
    H   H92   0.429599  0.067737  0.386297  0.206671
    H   H93   0.589293  0.869245  0.233362  0.093744
    H   H94   0.579736  0.852252  0.174611  0.093895
    H   H95   0.625779  0.888229  0.187524  0.093446
    H   H96   0.552273  0.931472  0.262492  0.184882
    H   H97   0.474652  0.028409  0.173130  0.087212
    H   H98   0.561410  0.916154  0.114824  0.122643
    H   H99   0.818047  0.335396  0.681953  0.158877
    H   H100  0.874942  0.315249  0.702503  0.123916
    H   H101  0.839552  0.277460  0.669199  0.107017
    H   H102  0.906169  0.273429  0.624203  0.310526
    H   H103  0.955675  0.233262  0.568859  0.182931
    H   H104  0.032180  0.325902  0.472481  0.070430
    H   H105  0.932263  0.386297  0.570401  0.207058
    H   H106  0.130755  0.233362  0.410707  0.095397
    H   H107  0.147748  0.174611  0.420264  0.088365
    H   H108  0.111771  0.187524  0.374221  0.085905
    H   H109  0.068528  0.262492  0.447727  0.175692
    H   H110  0.971591  0.173130  0.525348  0.101603
    H   H111  0.083846  0.114824  0.438590  0.146893
    H   H112  0.181953  0.664604  0.681953  0.161204
    H   H113  0.125058  0.684751  0.702503  0.127698
    H   H114  0.160448  0.722540  0.669199  0.108064
    H   H115  0.093831  0.726571  0.624203  0.309393
    H   H116  0.044325  0.766738  0.568859  0.183745
    H   H117  0.967820  0.674098  0.472481  0.086229
    H   H118  0.067737  0.613703  0.570401  0.191969
    H   H119  0.869245  0.766638  0.410707  0.091585
    H   H120  0.852252  0.825389  0.420264  0.082517
    H   H121  0.888229  0.812476  0.374221  0.086477
    H   H122  0.931472  0.737508  0.447727  0.171118
    H   H123  0.028409  0.826870  0.525348  0.102451
    H   H124  0.916154  0.885176  0.438590  0.148076
    H   H125  0.335396  0.318047  0.181953  0.158866
    H   H126  0.315249  0.297497  0.125058  0.123434
    H   H127  0.277460  0.330801  0.160448  0.105680
    H   H128  0.273429  0.375797  0.093831  0.312026
    H   H129  0.233262  0.431141  0.044325  0.182335
    H   H130  0.325902  0.527519  0.967820  0.067577
    H   H131  0.386297  0.429599  0.067737  0.207059
    H   H132  0.233362  0.589293  0.869245  0.094857
    H   H133  0.174611  0.579736  0.852252  0.095855
    H   H134  0.187524  0.625779  0.888229  0.092233
    H   H135  0.262492  0.552273  0.931472  0.182348
    H   H136  0.173130  0.474652  0.028409  0.086052
    H   H137  0.114824  0.561410  0.916154  0.122006
    H   H138  0.664604  0.318047  0.818047  0.161191
    H   H139  0.684751  0.297497  0.874942  0.127164
    H   H140  0.722540  0.330801  0.839552  0.108230
    H   H141  0.726571  0.375797  0.906169  0.311959
    H   H142  0.766738  0.431141  0.955675  0.183609
    H   H143  0.674098  0.527519  0.032180  0.083821
    H   H144  0.613703  0.429599  0.932263  0.194679
    H   H145  0.766638  0.589293  0.130755  0.092404
    H   H146  0.825389  0.579736  0.147748  0.091352
    H   H147  0.812476  0.625779  0.111771  0.095314
    H   H148  0.737508  0.552273  0.068528  0.178912
    H   H149  0.826870  0.474652  0.971591  0.088905
    H   H150  0.885176  0.561410  0.083846  0.124294
    H   H151  0.818047  0.318047  0.335396  0.158387
    H   H152  0.874942  0.297497  0.315249  0.125448
    H   H153  0.839552  0.330801  0.277460  0.104707
    H   H154  0.906169  0.375797  0.273429  0.313424
    H   H155  0.955675  0.431141  0.233262  0.181403
    H   H156  0.032180  0.527519  0.325902  0.084237
    N   N1    0.094838  0.393741  0.695344  -0.661898
    N   N2    0.304656  0.905162  0.393741  -0.663129
    N   N3    0.695344  0.094838  0.393741  -0.647634
    N   N4    0.393741  0.304656  0.905162  -0.662524
    N   N5    0.393741  0.695344  0.094838  -0.653327
    N   N6    0.393741  0.905162  0.695344  -0.652941
    N   N7    0.393741  0.094838  0.304656  -0.661892
    N   N8    0.905162  0.304656  0.606259  -0.663121
    N   N9    0.094838  0.695344  0.606259  -0.647634
    N   N10   0.304656  0.393741  0.094838  -0.662522
    N   N11   0.695344  0.393741  0.905162  -0.653328
    N   N12   0.905162  0.393741  0.304656  -0.652942
    O   O1    0.962422  0.500000  0.568003  -0.634922
    O   O2    0.131122  0.382363  0.621382  -0.557334
    O   O3    0.037578  0.568003  0.500000  -0.612565
    O   O4    0.962422  0.568003  0.500000  -0.663629
    O   O5    0.378618  0.868878  0.382363  -0.558626
    O   O6    0.431997  0.037578  0.500000  -0.635964
    O   O7    0.621382  0.131122  0.382363  -0.547379
    O   O8    0.431997  0.962422  0.500000  -0.577583
    O   O9    0.500000  0.037578  0.431997  -0.574531
    O   O10   0.382363  0.378618  0.868878  -0.557753
    O   O11   0.500000  0.962422  0.431997  -0.634924
    O   O12   0.568003  0.037578  0.500000  -0.612566
    O   O13   0.382363  0.621382  0.131122  -0.548850
    O   O14   0.568003  0.962422  0.500000  -0.663632
    O   O15   0.500000  0.037578  0.568003  -0.663476
    O   O16   0.382363  0.868878  0.621382  -0.548875
    O   O17   0.500000  0.962422  0.568003  -0.613247
    O   O18   0.382363  0.131122  0.378618  -0.557327
    O   O19   0.037578  0.500000  0.431997  -0.663474
    O   O20   0.500000  0.431997  0.037578  -0.635314
    O   O21   0.500000  0.431997  0.962422  -0.577098
    O   O22   0.868878  0.378618  0.617637  -0.558624
    O   O23   0.431997  0.500000  0.037578  -0.577089
    O   O24   0.431997  0.500000  0.962422  -0.635325
    O   O25   0.131122  0.621382  0.617637  -0.547380
    O   O26   0.500000  0.568003  0.037578  -0.611613
    O   O27   0.500000  0.568003  0.962422  -0.663845
    O   O28   0.378618  0.382363  0.131122  -0.557750
    O   O29   0.962422  0.500000  0.431997  -0.613240
    O   O30   0.568003  0.500000  0.037578  -0.663835
    O   O31   0.568003  0.500000  0.962422  -0.611623
    O   O32   0.621382  0.382363  0.868878  -0.548854
    O   O33   0.537578  0.000000  0.931997  -0.607330
    O   O34   0.462422  0.000000  0.931997  -0.707303
    O   O35   0.537578  0.931997  0.000000  -0.605860
    O   O36   0.462422  0.931997  0.000000  -0.707563
    O   O37   0.537578  0.000000  0.068003  -0.606226
    O   O38   0.462422  0.000000  0.068003  -0.707107
    O   O39   0.537578  0.068003  0.000000  -0.607622
    O   O40   0.462422  0.068003  0.000000  -0.706926
    O   O41   0.931997  0.537578  0.000000  -0.605861
    O   O42   0.037578  0.431997  0.500000  -0.635977
    O   O43   0.931997  0.462422  0.000000  -0.707562
    O   O44   0.000000  0.537578  0.931997  -0.606227
    O   O45   0.000000  0.462422  0.931997  -0.707109
    O   O46   0.068003  0.537578  0.000000  -0.607621
    O   O47   0.068003  0.462422  0.000000  -0.706926
    O   O48   0.000000  0.537578  0.068003  -0.607329
    O   O49   0.000000  0.462422  0.068003  -0.707301
    O   O50   0.962422  0.431997  0.500000  -0.577567
    O   O51   0.000000  0.931997  0.537578  -0.697297
    O   O52   0.000000  0.931997  0.462422  -0.644065
    O   O53   0.931997  0.000000  0.537578  -0.644062
    O   O54   0.931997  0.000000  0.462422  -0.697300
    O   O55   0.000000  0.068003  0.537578  -0.697658
    O   O56   0.000000  0.068003  0.462422  -0.644295
    O   O57   0.068003  0.000000  0.537578  -0.644294
    O   O58   0.068003  0.000000  0.462422  -0.697661
    O   O59   0.868878  0.382363  0.378618  -0.548868
    O   O60   0.037578  0.500000  0.568003  -0.574543
