# generated using pymatgen
data_CuH15C17N2ClO5
_symmetry_space_group_name_H-M   'P 1'
_cell_length_a   26.11290000
_cell_length_b   26.11290000
_cell_length_c   26.11290000
_cell_angle_alpha   90.00000000
_cell_angle_beta   90.00000000
_cell_angle_gamma   90.00000000
_symmetry_Int_Tables_number   1
_chemical_formula_structural   CuH15C17N2ClO5
_chemical_formula_sum   'Cu12 H180 C204 N24 Cl12 O60'
_cell_volume   17805.95685905
_cell_formula_units_Z   12
loop_
 _symmetry_equiv_pos_site_id
 _symmetry_equiv_pos_as_xyz
  1  'x, y, z'
loop_
 _atom_site_type_symbol
 _atom_site_label
 _atom_site_symmetry_multiplicity
 _atom_site_fract_x
 _atom_site_fract_y
 _atom_site_fract_z
 _atom_site_occupancy
  Cu  Cu1  1  0.94915800  0.50000000  0.50000000  1
  Cu  Cu2  1  0.05084200  0.50000000  0.50000000  1
  Cu  Cu3  1  0.50000000  0.94915800  0.50000000  1
  Cu  Cu4  1  0.50000000  0.05084200  0.50000000  1
  Cu  Cu5  1  0.50000000  0.50000000  0.94915800  1
  Cu  Cu6  1  0.50000000  0.50000000  0.05084200  1
  Cu  Cu7  1  0.44915800  0.00000000  0.00000000  1
  Cu  Cu8  1  0.55084200  0.00000000  0.00000000  1
  Cu  Cu9  1  0.00000000  0.44915800  0.00000000  1
  Cu  Cu10  1  0.00000000  0.55084200  0.00000000  1
  Cu  Cu11  1  0.00000000  0.00000000  0.44915800  1
  Cu  Cu12  1  0.00000000  0.00000000  0.55084200  1
  H  H1  1  0.90978300  0.46756800  0.35714500  1
  H  H2  1  0.92701900  0.48020600  0.16870900  1
  H  H3  1  0.06024400  0.53620400  0.32308800  1
  H  H4  1  0.88358000  0.29013600  0.25396600  1
  H  H5  1  0.93366600  0.27604000  0.19447600  1
  H  H6  1  0.80187200  0.46538300  0.29032100  1
  H  H7  1  0.83198900  0.52114300  0.28309100  1
  H  H8  1  0.86550900  0.46618300  0.21959700  1
  H  H9  1  0.20671400  0.36298300  0.72388800  1
  H  H10  1  0.20602900  0.40588800  0.77307700  1
  H  H11  1  0.13159300  0.39177500  0.69031000  1
  H  H12  1  0.19741200  0.30258800  0.78894500  1
  H  H13  1  0.17277200  0.35144800  0.82836700  1
  H  H14  1  0.07659400  0.38881100  0.79170600  1
  H  H15  1  0.05709900  0.36364600  0.73656000  1
  H  H16  1  0.09021700  0.46756800  0.64285500  1
  H  H17  1  0.07298100  0.48020600  0.83129100  1
  H  H18  1  0.93975600  0.53620400  0.67691200  1
  H  H19  1  0.11642000  0.29013600  0.74603400  1
  H  H20  1  0.06633400  0.27604000  0.80552400  1
  H  H21  1  0.19812800  0.46538300  0.70967900  1
  H  H22  1  0.16801100  0.52114300  0.71690900  1
  H  H23  1  0.13449100  0.46618300  0.78040300  1
  H  H24  1  0.27611200  0.79328600  0.36298300  1
  H  H25  1  0.22692300  0.79397100  0.40588800  1
  H  H26  1  0.30969000  0.86840700  0.39177500  1
  H  H27  1  0.21105500  0.80258800  0.30258800  1
  H  H28  1  0.17163300  0.82722800  0.35144800  1
  H  H29  1  0.20829400  0.92340600  0.38881100  1
  H  H30  1  0.26344000  0.94290100  0.36364600  1
  H  H31  1  0.35714500  0.90978300  0.46756800  1
  H  H32  1  0.16870900  0.92701900  0.48020600  1
  H  H33  1  0.32308800  0.06024400  0.53620400  1
  H  H34  1  0.25396600  0.88358000  0.29013600  1
  H  H35  1  0.19447600  0.93366600  0.27604000  1
  H  H36  1  0.29032100  0.80187200  0.46538300  1
  H  H37  1  0.28309100  0.83198900  0.52114300  1
  H  H38  1  0.21959700  0.86550900  0.46618300  1
  H  H39  1  0.72388800  0.20671400  0.36298300  1
  H  H40  1  0.77307700  0.20602900  0.40588800  1
  H  H41  1  0.69031000  0.13159300  0.39177500  1
  H  H42  1  0.78894500  0.19741200  0.30258800  1
  H  H43  1  0.82836700  0.17277200  0.35144800  1
  H  H44  1  0.79170600  0.07659400  0.38881100  1
  H  H45  1  0.73656000  0.05709900  0.36364600  1
  H  H46  1  0.64285500  0.09021700  0.46756800  1
  H  H47  1  0.83129100  0.07298100  0.48020600  1
  H  H48  1  0.67691200  0.93975600  0.53620400  1
  H  H49  1  0.74603400  0.11642000  0.29013600  1
  H  H50  1  0.80552400  0.06633400  0.27604000  1
  H  H51  1  0.70967900  0.19812800  0.46538300  1
  H  H52  1  0.71690900  0.16801100  0.52114300  1
  H  H53  1  0.78040300  0.13449100  0.46618300  1
  H  H54  1  0.36298300  0.27611200  0.79328600  1
  H  H55  1  0.40588800  0.22692300  0.79397100  1
  H  H56  1  0.39177500  0.30969000  0.86840700  1
  H  H57  1  0.30258800  0.21105500  0.80258800  1
  H  H58  1  0.35144800  0.17163300  0.82722800  1
  H  H59  1  0.38881100  0.20829400  0.92340600  1
  H  H60  1  0.36364600  0.26344000  0.94290100  1
  H  H61  1  0.46756800  0.35714500  0.90978300  1
  H  H62  1  0.48020600  0.16870900  0.92701900  1
  H  H63  1  0.53620400  0.32308800  0.06024400  1
  H  H64  1  0.29013600  0.25396600  0.88358000  1
  H  H65  1  0.27604000  0.19447600  0.93366600  1
  H  H66  1  0.46538300  0.29032100  0.80187200  1
  H  H67  1  0.52114300  0.28309100  0.83198900  1
  H  H68  1  0.46618300  0.21959700  0.86550900  1
  H  H69  1  0.36298300  0.72388800  0.20671400  1
  H  H70  1  0.40588800  0.77307700  0.20602900  1
  H  H71  1  0.39177500  0.69031000  0.13159300  1
  H  H72  1  0.30258800  0.78894500  0.19741200  1
  H  H73  1  0.35144800  0.82836700  0.17277200  1
  H  H74  1  0.38881100  0.79170600  0.07659400  1
  H  H75  1  0.36364600  0.73656000  0.05709900  1
  H  H76  1  0.46756800  0.64285500  0.09021700  1
  H  H77  1  0.48020600  0.83129100  0.07298100  1
  H  H78  1  0.53620400  0.67691200  0.93975600  1
  H  H79  1  0.29013600  0.74603400  0.11642000  1
  H  H80  1  0.27604000  0.80552400  0.06633400  1
  H  H81  1  0.46538300  0.70967900  0.19812800  1
  H  H82  1  0.52114300  0.71690900  0.16801100  1
  H  H83  1  0.46618300  0.78040300  0.13449100  1
  H  H84  1  0.36298300  0.79328600  0.72388800  1
  H  H85  1  0.40588800  0.79397100  0.77307700  1
  H  H86  1  0.39177500  0.86840700  0.69031000  1
  H  H87  1  0.30258800  0.80258800  0.78894500  1
  H  H88  1  0.35144800  0.82722800  0.82836700  1
  H  H89  1  0.38881100  0.92340600  0.79170600  1
  H  H90  1  0.36364600  0.94290100  0.73656000  1
  H  H91  1  0.46756800  0.90978300  0.64285500  1
  H  H92  1  0.48020600  0.92701900  0.83129100  1
  H  H93  1  0.53620400  0.06024400  0.67691200  1
  H  H94  1  0.29013600  0.88358000  0.74603400  1
  H  H95  1  0.27604000  0.93366600  0.80552400  1
  H  H96  1  0.46538300  0.80187200  0.70967900  1
  H  H97  1  0.52114300  0.83198900  0.71690900  1
  H  H98  1  0.46618300  0.86550900  0.78040300  1
  H  H99  1  0.36298300  0.20671400  0.27611200  1
  H  H100  1  0.40588800  0.20602900  0.22692300  1
  H  H101  1  0.39177500  0.13159300  0.30969000  1
  H  H102  1  0.30258800  0.19741200  0.21105500  1
  H  H103  1  0.35144800  0.17277200  0.17163300  1
  H  H104  1  0.38881100  0.07659400  0.20829400  1
  H  H105  1  0.36364600  0.05709900  0.26344000  1
  H  H106  1  0.46756800  0.09021700  0.35714500  1
  H  H107  1  0.48020600  0.07298100  0.16870900  1
  H  H108  1  0.53620400  0.93975600  0.32308800  1
  H  H109  1  0.29013600  0.11642000  0.25396600  1
  H  H110  1  0.27604000  0.06633400  0.19447600  1
  H  H111  1  0.46538300  0.19812800  0.29032100  1
  H  H112  1  0.52114300  0.16801100  0.28309100  1
  H  H113  1  0.46618300  0.13449100  0.21959700  1
  H  H114  1  0.79328600  0.27611200  0.63701700  1
  H  H115  1  0.79397100  0.22692300  0.59411200  1
  H  H116  1  0.86840700  0.30969000  0.60822500  1
  H  H117  1  0.80258800  0.21105500  0.69741200  1
  H  H118  1  0.82722800  0.17163300  0.64855200  1
  H  H119  1  0.92340600  0.20829400  0.61118900  1
  H  H120  1  0.94290100  0.26344000  0.63635400  1
  H  H121  1  0.90978300  0.35714500  0.53243200  1
  H  H122  1  0.92701900  0.16870900  0.51979400  1
  H  H123  1  0.06024400  0.32308800  0.46379600  1
  H  H124  1  0.88358000  0.25396600  0.70986400  1
  H  H125  1  0.93366600  0.19447600  0.72396000  1
  H  H126  1  0.80187200  0.29032100  0.53461700  1
  H  H127  1  0.83198900  0.28309100  0.47885700  1
  H  H128  1  0.86550900  0.21959700  0.53381700  1
  H  H129  1  0.20671400  0.72388800  0.63701700  1
  H  H130  1  0.20602900  0.77307700  0.59411200  1
  H  H131  1  0.13159300  0.69031000  0.60822500  1
  H  H132  1  0.19741200  0.78894500  0.69741200  1
  H  H133  1  0.17277200  0.82836700  0.64855200  1
  H  H134  1  0.07659400  0.79170600  0.61118900  1
  H  H135  1  0.05709900  0.73656000  0.63635400  1
  H  H136  1  0.09021700  0.64285500  0.53243200  1
  H  H137  1  0.07298100  0.83129100  0.51979400  1
  H  H138  1  0.93975600  0.67691200  0.46379600  1
  H  H139  1  0.11642000  0.74603400  0.70986400  1
  H  H140  1  0.06633400  0.80552400  0.72396000  1
  H  H141  1  0.19812800  0.70967900  0.53461700  1
  H  H142  1  0.16801100  0.71690900  0.47885700  1
  H  H143  1  0.13449100  0.78040300  0.53381700  1
  H  H144  1  0.27611200  0.36298300  0.20671400  1
  H  H145  1  0.22692300  0.40588800  0.20602900  1
  H  H146  1  0.30969000  0.39177500  0.13159300  1
  H  H147  1  0.21105500  0.30258800  0.19741200  1
  H  H148  1  0.17163300  0.35144800  0.17277200  1
  H  H149  1  0.20829400  0.38881100  0.07659400  1
  H  H150  1  0.26344000  0.36364600  0.05709900  1
  H  H151  1  0.35714500  0.46756800  0.09021700  1
  H  H152  1  0.16870900  0.48020600  0.07298100  1
  H  H153  1  0.32308800  0.53620400  0.93975600  1
  H  H154  1  0.25396600  0.29013600  0.11642000  1
  H  H155  1  0.19447600  0.27604000  0.06633400  1
  H  H156  1  0.29032100  0.46538300  0.19812800  1
  H  H157  1  0.28309100  0.52114300  0.16801100  1
  H  H158  1  0.21959700  0.46618300  0.13449100  1
  H  H159  1  0.72388800  0.36298300  0.79328600  1
  H  H160  1  0.77307700  0.40588800  0.79397100  1
  H  H161  1  0.69031000  0.39177500  0.86840700  1
  H  H162  1  0.78894500  0.30258800  0.80258800  1
  H  H163  1  0.82836700  0.35144800  0.82722800  1
  H  H164  1  0.79170600  0.38881100  0.92340600  1
  H  H165  1  0.73656000  0.36364600  0.94290100  1
  H  H166  1  0.64285500  0.46756800  0.90978300  1
  H  H167  1  0.83129100  0.48020600  0.92701900  1
  H  H168  1  0.67691200  0.53620400  0.06024400  1
  H  H169  1  0.74603400  0.29013600  0.88358000  1
  H  H170  1  0.80552400  0.27604000  0.93366600  1
  H  H171  1  0.70967900  0.46538300  0.80187200  1
  H  H172  1  0.71690900  0.52114300  0.83198900  1
  H  H173  1  0.78040300  0.46618300  0.86550900  1
  H  H174  1  0.79328600  0.36298300  0.27611200  1
  H  H175  1  0.79397100  0.40588800  0.22692300  1
  H  H176  1  0.86840700  0.39177500  0.30969000  1
  H  H177  1  0.80258800  0.30258800  0.21105500  1
  H  H178  1  0.82722800  0.35144800  0.17163300  1
  H  H179  1  0.92340600  0.38881100  0.20829400  1
  H  H180  1  0.94290100  0.36364600  0.26344000  1
  C  C1  1  0.87523800  0.45684400  0.25998500  1
  C  C2  1  0.96499800  0.49384500  0.23985800  1
  C  C3  1  0.96370100  0.49408800  0.18444700  1
  C  C4  1  0.00549400  0.50947800  0.15394400  1
  C  C5  1  0.04728400  0.53135000  0.17998800  1
  C  C6  1  0.01171900  0.51470500  0.25939000  1
  C  C7  1  0.02313300  0.51536700  0.30996500  1
  C  C8  1  0.00000000  0.59657900  0.50000000  1
  C  C9  1  0.18103800  0.37854000  0.75393900  1
  C  C10  1  0.13147700  0.39897900  0.73297800  1
  C  C11  1  0.17055900  0.33571200  0.79030300  1
  C  C12  1  0.11488200  0.31884900  0.77605600  1
  C  C13  1  0.09203500  0.36768000  0.75986500  1
  C  C14  1  0.01316700  0.49689500  0.65325300  1
  C  C15  1  0.05871700  0.47638100  0.67235400  1
  C  C16  1  0.07367800  0.47600400  0.72499100  1
  C  C17  1  0.12476200  0.45684400  0.74001500  1
  C  C18  1  0.03500200  0.49384500  0.76014200  1
  C  C19  1  0.03629900  0.49408800  0.81555300  1
  C  C20  1  0.99450600  0.50947800  0.84605600  1
  C  C21  1  0.95271600  0.53135000  0.82001200  1
  C  C22  1  0.98828100  0.51470500  0.74061000  1
  C  C23  1  0.97686700  0.51536700  0.69003500  1
  C  C24  1  0.24606100  0.81896200  0.37854000  1
  C  C25  1  0.26702200  0.86852300  0.39897900  1
  C  C26  1  0.20969700  0.82944100  0.33571200  1
  C  C27  1  0.40342100  0.00000000  0.50000000  1
  C  C28  1  0.22394400  0.88511800  0.31884900  1
  C  C29  1  0.24013500  0.90796500  0.36768000  1
  C  C30  1  0.34674700  0.98683300  0.49689500  1
  C  C31  1  0.32764600  0.94128300  0.47638100  1
  C  C32  1  0.27500900  0.92632200  0.47600400  1
  C  C33  1  0.25998500  0.87523800  0.45684400  1
  C  C34  1  0.23985800  0.96499800  0.49384500  1
  C  C35  1  0.18444700  0.96370100  0.49408800  1
  C  C36  1  0.15394400  0.00549400  0.50947800  1
  C  C37  1  0.17998800  0.04728400  0.53135000  1
  C  C38  1  0.25939000  0.01171900  0.51470500  1
  C  C39  1  0.30996500  0.02313300  0.51536700  1
  C  C40  1  0.75393900  0.18103800  0.37854000  1
  C  C41  1  0.73297800  0.13147700  0.39897900  1
  C  C42  1  0.50000000  0.00000000  0.40342100  1
  C  C43  1  0.79030300  0.17055900  0.33571200  1
  C  C44  1  0.77605600  0.11488200  0.31884900  1
  C  C45  1  0.75986500  0.09203500  0.36768000  1
  C  C46  1  0.65325300  0.01316700  0.49689500  1
  C  C47  1  0.00000000  0.50000000  0.40342100  1
  C  C48  1  0.67235400  0.05871700  0.47638100  1
  C  C49  1  0.72499100  0.07367800  0.47600400  1
  C  C50  1  0.74001500  0.12476200  0.45684400  1
  C  C51  1  0.76014200  0.03500200  0.49384500  1
  C  C52  1  0.81555300  0.03629900  0.49408800  1
  C  C53  1  0.84605600  0.99450600  0.50947800  1
  C  C54  1  0.82001200  0.95271600  0.53135000  1
  C  C55  1  0.74061000  0.98828100  0.51470500  1
  C  C56  1  0.69003500  0.97686700  0.51536700  1
  C  C57  1  0.59657900  0.00000000  0.50000000  1
  C  C58  1  0.37854000  0.24606100  0.81896200  1
  C  C59  1  0.39897900  0.26702200  0.86852300  1
  C  C60  1  0.33571200  0.20969700  0.82944100  1
  C  C61  1  0.31884900  0.22394400  0.88511800  1
  C  C62  1  0.36768000  0.24013500  0.90796500  1
  C  C63  1  0.49689500  0.34674700  0.98683300  1
  C  C64  1  0.47638100  0.32764600  0.94128300  1
  C  C65  1  0.47600400  0.27500900  0.92632200  1
  C  C66  1  0.45684400  0.25998500  0.87523800  1
  C  C67  1  0.49384500  0.23985800  0.96499800  1
  C  C68  1  0.49408800  0.18444700  0.96370100  1
  C  C69  1  0.50947800  0.15394400  0.00549400  1
  C  C70  1  0.53135000  0.17998800  0.04728400  1
  C  C71  1  0.51470500  0.25939000  0.01171900  1
  C  C72  1  0.51536700  0.30996500  0.02313300  1
  C  C73  1  0.50000000  0.00000000  0.59657900  1
  C  C74  1  0.37854000  0.75393900  0.18103800  1
  C  C75  1  0.39897900  0.73297800  0.13147700  1
  C  C76  1  0.33571200  0.79030300  0.17055900  1
  C  C77  1  0.31884900  0.77605600  0.11488200  1
  C  C78  1  0.36768000  0.75986500  0.09203500  1
  C  C79  1  0.49689500  0.65325300  0.01316700  1
  C  C80  1  0.47638100  0.67235400  0.05871700  1
  C  C81  1  0.47600400  0.72499100  0.07367800  1
  C  C82  1  0.45684400  0.74001500  0.12476200  1
  C  C83  1  0.49384500  0.76014200  0.03500200  1
  C  C84  1  0.49408800  0.81555300  0.03629900  1
  C  C85  1  0.50947800  0.84605600  0.99450600  1
  C  C86  1  0.53135000  0.82001200  0.95271600  1
  C  C87  1  0.51470500  0.74061000  0.98828100  1
  C  C88  1  0.51536700  0.69003500  0.97686700  1
  C  C89  1  0.37854000  0.81896200  0.75393900  1
  C  C90  1  0.39897900  0.86852300  0.73297800  1
  C  C91  1  0.33571200  0.82944100  0.79030300  1
  C  C92  1  0.31884900  0.88511800  0.77605600  1
  C  C93  1  0.36768000  0.90796500  0.75986500  1
  C  C94  1  0.50000000  0.40342100  0.00000000  1
  C  C95  1  0.49689500  0.98683300  0.65325300  1
  C  C96  1  0.47638100  0.94128300  0.67235400  1
  C  C97  1  0.47600400  0.92632200  0.72499100  1
  C  C98  1  0.45684400  0.87523800  0.74001500  1
  C  C99  1  0.49384500  0.96499800  0.76014200  1
  C  C100  1  0.49408800  0.96370100  0.81555300  1
  C  C101  1  0.50947800  0.00549400  0.84605600  1
  C  C102  1  0.53135000  0.04728400  0.82001200  1
  C  C103  1  0.51470500  0.01171900  0.74061000  1
  C  C104  1  0.51536700  0.02313300  0.69003500  1
  C  C105  1  0.37854000  0.18103800  0.24606100  1
  C  C106  1  0.39897900  0.13147700  0.26702200  1
  C  C107  1  0.33571200  0.17055900  0.20969700  1
  C  C108  1  0.40342100  0.50000000  0.00000000  1
  C  C109  1  0.31884900  0.11488200  0.22394400  1
  C  C110  1  0.36768000  0.09203500  0.24013500  1
  C  C111  1  0.49689500  0.01316700  0.34674700  1
  C  C112  1  0.47638100  0.05871700  0.32764600  1
  C  C113  1  0.47600400  0.07367800  0.27500900  1
  C  C114  1  0.45684400  0.12476200  0.25998500  1
  C  C115  1  0.49384500  0.03500200  0.23985800  1
  C  C116  1  0.49408800  0.03629900  0.18444700  1
  C  C117  1  0.50947800  0.99450600  0.15394400  1
  C  C118  1  0.53135000  0.95271600  0.17998800  1
  C  C119  1  0.51470500  0.98828100  0.25939000  1
  C  C120  1  0.51536700  0.97686700  0.30996500  1
  C  C121  1  0.81896200  0.24606100  0.62146000  1
  C  C122  1  0.86852300  0.26702200  0.60102100  1
  C  C123  1  0.50000000  0.59657900  0.00000000  1
  C  C124  1  0.82944100  0.20969700  0.66428800  1
  C  C125  1  0.88511800  0.22394400  0.68115100  1
  C  C126  1  0.90796500  0.24013500  0.63232000  1
  C  C127  1  0.98683300  0.34674700  0.50310500  1
  C  C128  1  0.94128300  0.32764600  0.52361900  1
  C  C129  1  0.92632200  0.27500900  0.52399600  1
  C  C130  1  0.87523800  0.25998500  0.54315600  1
  C  C131  1  0.96499800  0.23985800  0.50615500  1
  C  C132  1  0.96370100  0.18444700  0.50591200  1
  C  C133  1  0.00549400  0.15394400  0.49052200  1
  C  C134  1  0.04728400  0.17998800  0.46865000  1
  C  C135  1  0.01171900  0.25939000  0.48529500  1
  C  C136  1  0.02313300  0.30996500  0.48463300  1
  C  C137  1  0.59657900  0.50000000  0.00000000  1
  C  C138  1  0.18103800  0.75393900  0.62146000  1
  C  C139  1  0.13147700  0.73297800  0.60102100  1
  C  C140  1  0.17055900  0.79030300  0.66428800  1
  C  C141  1  0.11488200  0.77605600  0.68115100  1
  C  C142  1  0.09203500  0.75986500  0.63232000  1
  C  C143  1  0.01316700  0.65325300  0.50310500  1
  C  C144  1  0.05871700  0.67235400  0.52361900  1
  C  C145  1  0.07367800  0.72499100  0.52399600  1
  C  C146  1  0.12476200  0.74001500  0.54315600  1
  C  C147  1  0.03500200  0.76014200  0.50615500  1
  C  C148  1  0.03629900  0.81555300  0.50591200  1
  C  C149  1  0.99450600  0.84605600  0.49052200  1
  C  C150  1  0.95271600  0.82001200  0.46865000  1
  C  C151  1  0.98828100  0.74061000  0.48529500  1
  C  C152  1  0.97686700  0.69003500  0.48463300  1
  C  C153  1  0.24606100  0.37854000  0.18103800  1
  C  C154  1  0.26702200  0.39897900  0.13147700  1
  C  C155  1  0.20969700  0.33571200  0.17055900  1
  C  C156  1  0.22394400  0.31884900  0.11488200  1
  C  C157  1  0.24013500  0.36768000  0.09203500  1
  C  C158  1  0.34674700  0.49689500  0.01316700  1
  C  C159  1  0.32764600  0.47638100  0.05871700  1
  C  C160  1  0.27500900  0.47600400  0.07367800  1
  C  C161  1  0.50000000  0.00000000  0.90342100  1
  C  C162  1  0.25998500  0.45684400  0.12476200  1
  C  C163  1  0.23985800  0.49384500  0.03500200  1
  C  C164  1  0.18444700  0.49408800  0.03629900  1
  C  C165  1  0.15394400  0.50947800  0.99450600  1
  C  C166  1  0.17998800  0.53135000  0.95271600  1
  C  C167  1  0.25939000  0.51470500  0.98828100  1
  C  C168  1  0.30996500  0.51536700  0.97686700  1
  C  C169  1  0.75393900  0.37854000  0.81896200  1
  C  C170  1  0.73297800  0.39897900  0.86852300  1
  C  C171  1  0.79030300  0.33571200  0.82944100  1
  C  C172  1  0.77605600  0.31884900  0.88511800  1
  C  C173  1  0.75986500  0.36768000  0.90796500  1
  C  C174  1  0.50000000  0.90342100  0.00000000  1
  C  C175  1  0.65325300  0.49689500  0.98683300  1
  C  C176  1  0.67235400  0.47638100  0.94128300  1
  C  C177  1  0.72499100  0.47600400  0.92632200  1
  C  C178  1  0.74001500  0.45684400  0.87523800  1
  C  C179  1  0.76014200  0.49384500  0.96499800  1
  C  C180  1  0.81555300  0.49408800  0.96370100  1
  C  C181  1  0.84605600  0.50947800  0.00549400  1
  C  C182  1  0.82001200  0.53135000  0.04728400  1
  C  C183  1  0.74061000  0.51470500  0.01171900  1
  C  C184  1  0.69003500  0.51536700  0.02313300  1
  C  C185  1  0.00000000  0.40342100  0.50000000  1
  C  C186  1  0.50000000  0.00000000  0.09657900  1
  C  C187  1  0.50000000  0.09657900  0.00000000  1
  C  C188  1  0.90342100  0.50000000  0.00000000  1
  C  C189  1  0.00000000  0.50000000  0.90342100  1
  C  C190  1  0.09657900  0.50000000  0.00000000  1
  C  C191  1  0.00000000  0.50000000  0.09657900  1
  C  C192  1  0.00000000  0.90342100  0.50000000  1
  C  C193  1  0.90342100  0.00000000  0.50000000  1
  C  C194  1  0.00000000  0.09657900  0.50000000  1
  C  C195  1  0.00000000  0.50000000  0.59657900  1
  C  C196  1  0.09657900  0.00000000  0.50000000  1
  C  C197  1  0.81896200  0.37854000  0.24606100  1
  C  C198  1  0.86852300  0.39897900  0.26702200  1
  C  C199  1  0.82944100  0.33571200  0.20969700  1
  C  C200  1  0.88511800  0.31884900  0.22394400  1
  C  C201  1  0.90796500  0.36768000  0.24013500  1
  C  C202  1  0.98683300  0.49689500  0.34674700  1
  C  C203  1  0.94128300  0.47638100  0.32764600  1
  C  C204  1  0.92632200  0.47600400  0.27500900  1
  N  N1  1  0.04797400  0.53476600  0.23038400  1
  N  N2  1  0.83760100  0.48230100  0.29290100  1
  N  N3  1  0.95202600  0.53476600  0.76961600  1
  N  N4  1  0.16239900  0.48230100  0.70709900  1
  N  N5  1  0.23038400  0.04797400  0.53476600  1
  N  N6  1  0.29290100  0.83760100  0.48230100  1
  N  N7  1  0.76961600  0.95202600  0.53476600  1
  N  N8  1  0.70709900  0.16239900  0.48230100  1
  N  N9  1  0.53476600  0.23038400  0.04797400  1
  N  N10  1  0.48230100  0.29290100  0.83760100  1
  N  N11  1  0.53476600  0.76961600  0.95202600  1
  N  N12  1  0.48230100  0.70709900  0.16239900  1
  N  N13  1  0.53476600  0.04797400  0.76961600  1
  N  N14  1  0.48230100  0.83760100  0.70709900  1
  N  N15  1  0.53476600  0.95202600  0.23038400  1
  N  N16  1  0.48230100  0.16239900  0.29290100  1
  N  N17  1  0.04797400  0.23038400  0.46523400  1
  N  N18  1  0.83760100  0.29290100  0.51769900  1
  N  N19  1  0.95202600  0.76961600  0.46523400  1
  N  N20  1  0.16239900  0.70709900  0.51769900  1
  N  N21  1  0.23038400  0.53476600  0.95202600  1
  N  N22  1  0.29290100  0.48230100  0.16239900  1
  N  N23  1  0.76961600  0.53476600  0.04797400  1
  N  N24  1  0.70709900  0.48230100  0.83760100  1
  Cl  Cl1  1  0.10667300  0.54550500  0.15434300  1
  Cl  Cl2  1  0.89332700  0.54550500  0.84565700  1
  Cl  Cl3  1  0.15434300  0.10667300  0.54550500  1
  Cl  Cl4  1  0.84565700  0.89332700  0.54550500  1
  Cl  Cl5  1  0.54550500  0.15434300  0.10667300  1
  Cl  Cl6  1  0.54550500  0.84565700  0.89332700  1
  Cl  Cl7  1  0.54550500  0.10667300  0.84565700  1
  Cl  Cl8  1  0.54550500  0.89332700  0.15434300  1
  Cl  Cl9  1  0.10667300  0.15434300  0.45449500  1
  Cl  Cl10  1  0.89332700  0.84565700  0.45449500  1
  Cl  Cl11  1  0.15434300  0.54550500  0.89332700  1
  Cl  Cl12  1  0.84565700  0.54550500  0.10667300  1
  O  O1  1  0.95953900  0.50000000  0.57321900  1
  O  O2  1  0.04046100  0.57321900  0.50000000  1
  O  O3  1  0.09199700  0.29982000  0.81834900  1
  O  O4  1  0.95953900  0.57321900  0.50000000  1
  O  O5  1  0.18165100  0.90800300  0.29982000  1
  O  O6  1  0.42678100  0.04046100  0.50000000  1
  O  O7  1  0.42678100  0.95953900  0.50000000  1
  O  O8  1  0.81834900  0.09199700  0.29982000  1
  O  O9  1  0.50000000  0.04046100  0.42678100  1
  O  O10  1  0.50000000  0.95953900  0.42678100  1
  O  O11  1  0.57321900  0.04046100  0.50000000  1
  O  O12  1  0.29982000  0.18165100  0.90800300  1
  O  O13  1  0.57321900  0.95953900  0.50000000  1
  O  O14  1  0.50000000  0.04046100  0.57321900  1
  O  O15  1  0.29982000  0.81834900  0.09199700  1
  O  O16  1  0.50000000  0.95953900  0.57321900  1
  O  O17  1  0.29982000  0.90800300  0.81834900  1
  O  O18  1  0.04046100  0.50000000  0.42678100  1
  O  O19  1  0.50000000  0.42678100  0.04046100  1
  O  O20  1  0.50000000  0.42678100  0.95953900  1
  O  O21  1  0.29982000  0.09199700  0.18165100  1
  O  O22  1  0.42678100  0.50000000  0.04046100  1
  O  O23  1  0.42678100  0.50000000  0.95953900  1
  O  O24  1  0.90800300  0.18165100  0.70018000  1
  O  O25  1  0.50000000  0.57321900  0.04046100  1
  O  O26  1  0.50000000  0.57321900  0.95953900  1
  O  O27  1  0.95953900  0.50000000  0.42678100  1
  O  O28  1  0.57321900  0.50000000  0.04046100  1
  O  O29  1  0.09199700  0.81834900  0.70018000  1
  O  O30  1  0.57321900  0.50000000  0.95953900  1
  O  O31  1  0.18165100  0.29982000  0.09199700  1
  O  O32  1  0.54046100  0.00000000  0.92678100  1
  O  O33  1  0.45953900  0.00000000  0.92678100  1
  O  O34  1  0.81834900  0.29982000  0.90800300  1
  O  O35  1  0.54046100  0.92678100  0.00000000  1
  O  O36  1  0.45953900  0.92678100  0.00000000  1
  O  O37  1  0.54046100  0.00000000  0.07321900  1
  O  O38  1  0.45953900  0.00000000  0.07321900  1
  O  O39  1  0.54046100  0.07321900  0.00000000  1
  O  O40  1  0.45953900  0.07321900  0.00000000  1
  O  O41  1  0.92678100  0.54046100  0.00000000  1
  O  O42  1  0.04046100  0.42678100  0.50000000  1
  O  O43  1  0.92678100  0.45953900  0.00000000  1
  O  O44  1  0.00000000  0.54046100  0.92678100  1
  O  O45  1  0.00000000  0.45953900  0.92678100  1
  O  O46  1  0.07321900  0.54046100  0.00000000  1
  O  O47  1  0.07321900  0.45953900  0.00000000  1
  O  O48  1  0.00000000  0.54046100  0.07321900  1
  O  O49  1  0.00000000  0.45953900  0.07321900  1
  O  O50  1  0.95953900  0.42678100  0.50000000  1
  O  O51  1  0.00000000  0.92678100  0.54046100  1
  O  O52  1  0.00000000  0.92678100  0.45953900  1
  O  O53  1  0.92678100  0.00000000  0.54046100  1
  O  O54  1  0.92678100  0.00000000  0.45953900  1
  O  O55  1  0.00000000  0.07321900  0.54046100  1
  O  O56  1  0.00000000  0.07321900  0.45953900  1
  O  O57  1  0.07321900  0.00000000  0.54046100  1
  O  O58  1  0.07321900  0.00000000  0.45953900  1
  O  O59  1  0.04046100  0.50000000  0.57321900  1
  O  O60  1  0.90800300  0.29982000  0.18165100  1
