# generated using pymatgen
data_CuH6C13O6
_symmetry_space_group_name_H-M   'P 1'
_cell_length_a   25.61100000
_cell_length_b   25.61100000
_cell_length_c   23.52180000
_cell_angle_alpha   90.00000000
_cell_angle_beta   90.00000000
_cell_angle_gamma   90.00000000
_symmetry_Int_Tables_number   1
_chemical_formula_structural   CuH6C13O6
_chemical_formula_sum   'Cu16 H96 C208 O96'
_cell_volume   15428.49717190
_cell_formula_units_Z   16
loop_
 _symmetry_equiv_pos_site_id
 _symmetry_equiv_pos_as_xyz
  1  'x, y, z'
loop_
 _atom_site_type_symbol
 _atom_site_label
 _atom_site_symmetry_multiplicity
 _atom_site_fract_x
 _atom_site_fract_y
 _atom_site_fract_z
 _atom_site_occupancy
  Cu  Cu1  1  0.01019700  0.95314800  0.96008900  1
  Cu  Cu2  1  0.01019700  0.02645800  0.03991100  1
  Cu  Cu3  1  0.51019700  0.02645800  0.46008900  1
  Cu  Cu4  1  0.51019700  0.95314800  0.53991100  1
  Cu  Cu5  1  0.29685200  0.73980300  0.21008900  1
  Cu  Cu6  1  0.22354200  0.73980300  0.28991100  1
  Cu  Cu7  1  0.22354200  0.23980300  0.71008900  1
  Cu  Cu8  1  0.29685200  0.23980300  0.78991100  1
  Cu  Cu9  1  0.72354200  0.23980300  0.78991100  1
  Cu  Cu10  1  0.79685200  0.23980300  0.71008900  1
  Cu  Cu11  1  0.79685200  0.73980300  0.28991100  1
  Cu  Cu12  1  0.72354200  0.73980300  0.21008900  1
  Cu  Cu13  1  0.51019700  0.45314800  0.46008900  1
  Cu  Cu14  1  0.51019700  0.52645800  0.53991100  1
  Cu  Cu15  1  0.01019700  0.52645800  0.96008900  1
  Cu  Cu16  1  0.01019700  0.45314800  0.03991100  1
  H  H1  1  0.89419800  0.96443300  0.15246200  1
  H  H2  1  0.84866100  0.90550500  0.21819500  1
  H  H3  1  0.83741400  0.78888600  0.08435800  1
  H  H4  1  0.89843000  0.81502100  0.88204600  1
  H  H5  1  0.89497400  0.89497400  0.80210600  1
  H  H6  1  0.87195200  0.98034500  0.86554000  1
  H  H7  1  0.62619600  0.01517300  0.65246200  1
  H  H8  1  0.67173300  0.07410100  0.71819500  1
  H  H9  1  0.68298000  0.19072000  0.58435800  1
  H  H10  1  0.62196400  0.16458500  0.38204600  1
  H  H11  1  0.62542000  0.08463200  0.30210600  1
  H  H12  1  0.64844300  0.99926100  0.36554000  1
  H  H13  1  0.28556700  0.62380400  0.40246200  1
  H  H14  1  0.34449500  0.57826700  0.46819500  1
  H  H15  1  0.46111400  0.56702000  0.33435800  1
  H  H16  1  0.43497900  0.62803600  0.13204600  1
  H  H17  1  0.35502600  0.62458000  0.05210600  1
  H  H18  1  0.26965500  0.60155700  0.11554000  1
  H  H19  1  0.23482700  0.35580200  0.90246200  1
  H  H20  1  0.17589900  0.40133900  0.96819500  1
  H  H21  1  0.05928000  0.41258600  0.83435800  1
  H  H22  1  0.08541500  0.35157000  0.63204600  1
  H  H23  1  0.16536800  0.35502600  0.55210600  1
  H  H24  1  0.25073900  0.37804800  0.61554000  1
  H  H25  1  0.62619600  0.96443300  0.34753800  1
  H  H26  1  0.67173300  0.90550500  0.28180500  1
  H  H27  1  0.68298000  0.78888600  0.41564200  1
  H  H28  1  0.62196400  0.81502100  0.61795400  1
  H  H29  1  0.62542000  0.89497400  0.69789400  1
  H  H30  1  0.64844300  0.98034500  0.63446000  1
  H  H31  1  0.89419800  0.01517300  0.84753800  1
  H  H32  1  0.84866100  0.07410100  0.78180500  1
  H  H33  1  0.83741400  0.19072000  0.91564200  1
  H  H34  1  0.89843000  0.16458500  0.11795400  1
  H  H35  1  0.89497400  0.08463200  0.19789400  1
  H  H36  1  0.87195200  0.99926100  0.13446000  1
  H  H37  1  0.23482700  0.62380400  0.09753800  1
  H  H38  1  0.17589900  0.57826700  0.03180500  1
  H  H39  1  0.05928000  0.56702000  0.16564200  1
  H  H40  1  0.08541500  0.62803600  0.36795400  1
  H  H41  1  0.16536800  0.62458000  0.44789400  1
  H  H42  1  0.25073900  0.60155700  0.38446000  1
  H  H43  1  0.28556700  0.35580200  0.59753800  1
  H  H44  1  0.34449500  0.40133900  0.53180500  1
  H  H45  1  0.46111400  0.41258600  0.66564200  1
  H  H46  1  0.43497900  0.35157000  0.86795400  1
  H  H47  1  0.35502600  0.35502600  0.94789400  1
  H  H48  1  0.26965500  0.37804800  0.88446000  1
  H  H49  1  0.12619600  0.01517300  0.84753800  1
  H  H50  1  0.17173300  0.07410100  0.78180500  1
  H  H51  1  0.18298000  0.19072000  0.91564200  1
  H  H52  1  0.12196400  0.16458500  0.11795400  1
  H  H53  1  0.12542000  0.08463200  0.19789400  1
  H  H54  1  0.14844300  0.99926100  0.13446000  1
  H  H55  1  0.39419800  0.96443300  0.34753800  1
  H  H56  1  0.34866100  0.90550500  0.28180500  1
  H  H57  1  0.33741400  0.78888600  0.41564200  1
  H  H58  1  0.39843000  0.81502100  0.61795400  1
  H  H59  1  0.39497400  0.89497400  0.69789400  1
  H  H60  1  0.37195200  0.98034500  0.63446000  1
  H  H61  1  0.73482700  0.35580200  0.59753800  1
  H  H62  1  0.67589900  0.40133900  0.53180500  1
  H  H63  1  0.55928000  0.41258600  0.66564200  1
  H  H64  1  0.58541500  0.35157000  0.86795400  1
  H  H65  1  0.66536800  0.35502600  0.94789400  1
  H  H66  1  0.75073900  0.37804800  0.88446000  1
  H  H67  1  0.78556700  0.62380400  0.09753800  1
  H  H68  1  0.84449500  0.57826700  0.03180500  1
  H  H69  1  0.96111400  0.56702000  0.16564200  1
  H  H70  1  0.93497900  0.62803600  0.36795400  1
  H  H71  1  0.85502600  0.62458000  0.44789400  1
  H  H72  1  0.76965500  0.60155700  0.38446000  1
  H  H73  1  0.39419800  0.01517300  0.65246200  1
  H  H74  1  0.34866100  0.07410100  0.71819500  1
  H  H75  1  0.33741400  0.19072000  0.58435800  1
  H  H76  1  0.39843000  0.16458500  0.38204600  1
  H  H77  1  0.39497400  0.08463200  0.30210600  1
  H  H78  1  0.37195200  0.99926100  0.36554000  1
  H  H79  1  0.12619600  0.96443300  0.15246200  1
  H  H80  1  0.17173300  0.90550500  0.21819500  1
  H  H81  1  0.18298000  0.78888600  0.08435800  1
  H  H82  1  0.12196400  0.81502100  0.88204600  1
  H  H83  1  0.12542000  0.89497400  0.80210600  1
  H  H84  1  0.14844300  0.98034500  0.86554000  1
  H  H85  1  0.78556700  0.35580200  0.90246200  1
  H  H86  1  0.84449500  0.40133900  0.96819500  1
  H  H87  1  0.96111400  0.41258600  0.83435800  1
  H  H88  1  0.93497900  0.35157000  0.63204600  1
  H  H89  1  0.85502600  0.35502600  0.55210600  1
  H  H90  1  0.76965500  0.37804800  0.61554000  1
  H  H91  1  0.73482700  0.62380400  0.40246200  1
  H  H92  1  0.67589900  0.57826700  0.46819500  1
  H  H93  1  0.55928000  0.56702000  0.33435800  1
  H  H94  1  0.58541500  0.62803600  0.13204600  1
  H  H95  1  0.66536800  0.62458000  0.05210600  1
  H  H96  1  0.75073900  0.60155700  0.11554000  1
  C  C1  1  0.07982700  0.53903900  0.05360900  1
  C  C2  1  0.07982700  0.44056700  0.94639100  1
  C  C3  1  0.94056700  0.44056700  0.94639100  1
  C  C4  1  0.94056700  0.53903900  0.05360900  1
  C  C5  1  0.07982700  0.94056700  0.05360900  1
  C  C6  1  0.87723200  0.86343800  0.06351300  1
  C  C7  1  0.89646600  0.91103300  0.08490500  1
  C  C8  1  0.88217300  0.92655000  0.13695700  1
  C  C9  1  0.85871700  0.89273300  0.17351000  1
  C  C10  1  0.84345900  0.84299000  0.15758000  1
  C  C11  1  0.85467400  0.82773500  0.10134200  1
  C  C12  1  0.88268400  0.88004600  0.94283000  1
  C  C13  1  0.89217600  0.85855300  0.88995900  1
  C  C14  1  0.89240400  0.89732700  0.84863600  1
  C  C15  1  0.87549400  0.94075700  0.87728800  1
  C  C16  1  0.88250000  0.84732900  0.99905900  1
  C  C17  1  0.64316200  0.11616800  0.56351300  1
  C  C18  1  0.62392900  0.06857300  0.58490500  1
  C  C19  1  0.63822100  0.05305600  0.63695700  1
  C  C20  1  0.66167700  0.08687300  0.67351000  1
  C  C21  1  0.67693600  0.13661600  0.65758000  1
  C  C22  1  0.66572000  0.15187100  0.60134200  1
  C  C23  1  0.63771000  0.09956000  0.44283000  1
  C  C24  1  0.62821900  0.12105300  0.38995900  1
  C  C25  1  0.62799000  0.08227900  0.34863600  1
  C  C26  1  0.64490000  0.03884900  0.37728800  1
  C  C27  1  0.63789500  0.13227600  0.49905900  1
  C  C28  1  0.38656200  0.60683800  0.31351300  1
  C  C29  1  0.33896700  0.62607100  0.33490500  1
  C  C30  1  0.32345000  0.61177900  0.38695700  1
  C  C31  1  0.35726700  0.58832300  0.42351000  1
  C  C32  1  0.40701000  0.57306400  0.40758000  1
  C  C33  1  0.42226500  0.58428000  0.35134200  1
  C  C34  1  0.36995400  0.61229000  0.19283000  1
  C  C35  1  0.57982700  0.03903900  0.55360900  1
  C  C36  1  0.39144700  0.62178100  0.13995900  1
  C  C37  1  0.35267300  0.62201000  0.09863600  1
  C  C38  1  0.30924300  0.60510000  0.12728800  1
  C  C39  1  0.40267100  0.61210500  0.24905900  1
  C  C40  1  0.13383200  0.37276800  0.81351300  1
  C  C41  1  0.18142700  0.35353400  0.83490500  1
  C  C42  1  0.19694400  0.36782700  0.88695700  1
  C  C43  1  0.16312700  0.39128300  0.92351000  1
  C  C44  1  0.11338400  0.40654100  0.90758000  1
  C  C45  1  0.09812900  0.39532600  0.85134200  1
  C  C46  1  0.15044000  0.36731600  0.69283000  1
  C  C47  1  0.12894700  0.35782400  0.63995900  1
  C  C48  1  0.16772100  0.35759600  0.59863600  1
  C  C49  1  0.21115100  0.37450600  0.62728800  1
  C  C50  1  0.11772400  0.36750000  0.74905900  1
  C  C51  1  0.64316200  0.86343800  0.43648700  1
  C  C52  1  0.62392900  0.91103300  0.41509500  1
  C  C53  1  0.57982700  0.94056700  0.44639100  1
  C  C54  1  0.63822100  0.92655000  0.36304300  1
  C  C55  1  0.66167700  0.89273300  0.32649000  1
  C  C56  1  0.67693600  0.84299000  0.34242000  1
  C  C57  1  0.66572000  0.82773500  0.39865800  1
  C  C58  1  0.63771000  0.88004600  0.55717000  1
  C  C59  1  0.62821900  0.85855300  0.61004100  1
  C  C60  1  0.94056700  0.94056700  0.05360900  1
  C  C61  1  0.62799000  0.89732700  0.65136400  1
  C  C62  1  0.64490000  0.94075700  0.62271200  1
  C  C63  1  0.63789500  0.84732900  0.50094100  1
  C  C64  1  0.87723200  0.11616800  0.93648700  1
  C  C65  1  0.89646600  0.06857300  0.91509500  1
  C  C66  1  0.88217300  0.05305600  0.86304300  1
  C  C67  1  0.85871700  0.08687300  0.82649000  1
  C  C68  1  0.84345900  0.13661600  0.84242000  1
  C  C69  1  0.85467400  0.15187100  0.89865800  1
  C  C70  1  0.88268400  0.09956000  0.05717000  1
  C  C71  1  0.89217600  0.12105300  0.11004100  1
  C  C72  1  0.89240400  0.08227900  0.15136400  1
  C  C73  1  0.44056700  0.94056700  0.44639100  1
  C  C74  1  0.87549400  0.03884900  0.12271200  1
  C  C75  1  0.88250000  0.13227600  0.00094100  1
  C  C76  1  0.13383200  0.60683800  0.18648700  1
  C  C77  1  0.18142700  0.62607100  0.16509500  1
  C  C78  1  0.19694400  0.61177900  0.11304300  1
  C  C79  1  0.16312700  0.58832300  0.07649000  1
  C  C80  1  0.11338400  0.57306400  0.09242000  1
  C  C81  1  0.09812900  0.58428000  0.14865800  1
  C  C82  1  0.15044000  0.61229000  0.30717000  1
  C  C83  1  0.12894700  0.62178100  0.36004100  1
  C  C84  1  0.16772100  0.62201000  0.40136400  1
  C  C85  1  0.21115100  0.60510000  0.37271200  1
  C  C86  1  0.11772400  0.61210500  0.25094100  1
  C  C87  1  0.38656200  0.37276800  0.68648700  1
  C  C88  1  0.33896700  0.35353400  0.66509500  1
  C  C89  1  0.32345000  0.36782700  0.61304300  1
  C  C90  1  0.35726700  0.39128300  0.57649000  1
  C  C91  1  0.40701000  0.40654100  0.59242000  1
  C  C92  1  0.44056700  0.03903900  0.55360900  1
  C  C93  1  0.42226500  0.39532600  0.64865800  1
  C  C94  1  0.36995400  0.36731600  0.80717000  1
  C  C95  1  0.39144700  0.35782400  0.86004100  1
  C  C96  1  0.35267300  0.35759600  0.90136400  1
  C  C97  1  0.30924300  0.37450600  0.87271200  1
  C  C98  1  0.40267100  0.36750000  0.75094100  1
  C  C99  1  0.14316200  0.11616800  0.93648700  1
  C  C100  1  0.12392900  0.06857300  0.91509500  1
  C  C101  1  0.13822100  0.05305600  0.86304300  1
  C  C102  1  0.16167700  0.08687300  0.82649000  1
  C  C103  1  0.17693600  0.13661600  0.84242000  1
  C  C104  1  0.16572000  0.15187100  0.89865800  1
  C  C105  1  0.13771000  0.09956000  0.05717000  1
  C  C106  1  0.12821900  0.12105300  0.11004100  1
  C  C107  1  0.12799000  0.08227900  0.15136400  1
  C  C108  1  0.14490000  0.03884900  0.12271200  1
  C  C109  1  0.13789500  0.13227600  0.00094100  1
  C  C110  1  0.37723200  0.86343800  0.43648700  1
  C  C111  1  0.39646600  0.91103300  0.41509500  1
  C  C112  1  0.38217300  0.92655000  0.36304300  1
  C  C113  1  0.35871700  0.89273300  0.32649000  1
  C  C114  1  0.34345900  0.84299000  0.34242000  1
  C  C115  1  0.35467400  0.82773500  0.39865800  1
  C  C116  1  0.38268400  0.88004600  0.55717000  1
  C  C117  1  0.39217600  0.85855300  0.61004100  1
  C  C118  1  0.39240400  0.89732700  0.65136400  1
  C  C119  1  0.37549400  0.94075700  0.62271200  1
  C  C120  1  0.30943300  0.67017300  0.30360900  1
  C  C121  1  0.38250000  0.84732900  0.50094100  1
  C  C122  1  0.63383200  0.37276800  0.68648700  1
  C  C123  1  0.68142700  0.35353400  0.66509500  1
  C  C124  1  0.69694400  0.36782700  0.61304300  1
  C  C125  1  0.66312700  0.39128300  0.57649000  1
  C  C126  1  0.61338400  0.40654100  0.59242000  1
  C  C127  1  0.59812900  0.39532600  0.64865800  1
  C  C128  1  0.65044000  0.36731600  0.80717000  1
  C  C129  1  0.62894700  0.35782400  0.86004100  1
  C  C130  1  0.66772100  0.35759600  0.90136400  1
  C  C131  1  0.71115100  0.37450600  0.87271200  1
  C  C132  1  0.61772400  0.36750000  0.75094100  1
  C  C133  1  0.88656200  0.60683800  0.18648700  1
  C  C134  1  0.83896700  0.62607100  0.16509500  1
  C  C135  1  0.82345000  0.61177900  0.11304300  1
  C  C136  1  0.85726700  0.58832300  0.07649000  1
  C  C137  1  0.90701000  0.57306400  0.09242000  1
  C  C138  1  0.92226500  0.58428000  0.14865800  1
  C  C139  1  0.21096100  0.67017300  0.19639100  1
  C  C140  1  0.86995400  0.61229000  0.30717000  1
  C  C141  1  0.89144700  0.62178100  0.36004100  1
  C  C142  1  0.85267300  0.62201000  0.40136400  1
  C  C143  1  0.80924300  0.60510000  0.37271200  1
  C  C144  1  0.90267100  0.61210500  0.25094100  1
  C  C145  1  0.37723200  0.11616800  0.56351300  1
  C  C146  1  0.39646600  0.06857300  0.58490500  1
  C  C147  1  0.38217300  0.05305600  0.63695700  1
  C  C148  1  0.35871700  0.08687300  0.67351000  1
  C  C149  1  0.34345900  0.13661600  0.65758000  1
  C  C150  1  0.35467400  0.15187100  0.60134200  1
  C  C151  1  0.38268400  0.09956000  0.44283000  1
  C  C152  1  0.39217600  0.12105300  0.38995900  1
  C  C153  1  0.39240400  0.08227900  0.34863600  1
  C  C154  1  0.37549400  0.03884900  0.37728800  1
  C  C155  1  0.38250000  0.13227600  0.49905900  1
  C  C156  1  0.14316200  0.86343800  0.06351300  1
  C  C157  1  0.21096100  0.80943300  0.19639100  1
  C  C158  1  0.12392900  0.91103300  0.08490500  1
  C  C159  1  0.13822100  0.92655000  0.13695700  1
  C  C160  1  0.16167700  0.89273300  0.17351000  1
  C  C161  1  0.17693600  0.84299000  0.15758000  1
  C  C162  1  0.16572000  0.82773500  0.10134200  1
  C  C163  1  0.13771000  0.88004600  0.94283000  1
  C  C164  1  0.12821900  0.85855300  0.88995900  1
  C  C165  1  0.12799000  0.89732700  0.84863600  1
  C  C166  1  0.14490000  0.94075700  0.87728800  1
  C  C167  1  0.13789500  0.84732900  0.99905900  1
  C  C168  1  0.88656200  0.37276800  0.81351300  1
  C  C169  1  0.83896700  0.35353400  0.83490500  1
  C  C170  1  0.82345000  0.36782700  0.88695700  1
  C  C171  1  0.85726700  0.39128300  0.92351000  1
  C  C172  1  0.90701000  0.40654100  0.90758000  1
  C  C173  1  0.92226500  0.39532600  0.85134200  1
  C  C174  1  0.86995400  0.36731600  0.69283000  1
  C  C175  1  0.89144700  0.35782400  0.63995900  1
  C  C176  1  0.30943300  0.80943300  0.30360900  1
  C  C177  1  0.85267300  0.35759600  0.59863600  1
  C  C178  1  0.80924300  0.37450600  0.62728800  1
  C  C179  1  0.90267100  0.36750000  0.74905900  1
  C  C180  1  0.63383200  0.60683800  0.31351300  1
  C  C181  1  0.68142700  0.62607100  0.33490500  1
  C  C182  1  0.69694400  0.61177900  0.38695700  1
  C  C183  1  0.66312700  0.58832300  0.42351000  1
  C  C184  1  0.61338400  0.57306400  0.40758000  1
  C  C185  1  0.59812900  0.58428000  0.35134200  1
  C  C186  1  0.65044000  0.61229000  0.19283000  1
  C  C187  1  0.62894700  0.62178100  0.13995900  1
  C  C188  1  0.66772100  0.62201000  0.09863600  1
  C  C189  1  0.71115100  0.60510000  0.12728800  1
  C  C190  1  0.61772400  0.61210500  0.24905900  1
  C  C191  1  0.21096100  0.30943300  0.80360900  1
  C  C192  1  0.30943300  0.30943300  0.69639100  1
  C  C193  1  0.94056700  0.03903900  0.94639100  1
  C  C194  1  0.30943300  0.17017300  0.69639100  1
  C  C195  1  0.21096100  0.17017300  0.80360900  1
  C  C196  1  0.71096100  0.30943300  0.69639100  1
  C  C197  1  0.80943300  0.30943300  0.80360900  1
  C  C198  1  0.80943300  0.17017300  0.80360900  1
  C  C199  1  0.71096100  0.17017300  0.69639100  1
  C  C200  1  0.80943300  0.67017300  0.19639100  1
  C  C201  1  0.71096100  0.67017300  0.30360900  1
  C  C202  1  0.71096100  0.80943300  0.30360900  1
  C  C203  1  0.07982700  0.03903900  0.94639100  1
  C  C204  1  0.80943300  0.80943300  0.19639100  1
  C  C205  1  0.44056700  0.44056700  0.55360900  1
  C  C206  1  0.44056700  0.53903900  0.44639100  1
  C  C207  1  0.57982700  0.53903900  0.44639100  1
  C  C208  1  0.57982700  0.44056700  0.55360900  1
  O  O1  1  0.06298500  0.99795900  0.92759600  1
  O  O2  1  0.06298500  0.49795900  0.07240400  1
  O  O3  1  0.06298500  0.55630100  0.00888100  1
  O  O4  1  0.06298500  0.42330500  0.99111900  1
  O  O5  1  0.06298500  0.48164700  0.92759600  1
  O  O6  1  0.95740900  0.42330500  0.99111900  1
  O  O7  1  0.95740900  0.48164700  0.92759600  1
  O  O8  1  0.95740900  0.49795900  0.07240400  1
  O  O9  1  0.95740900  0.55630100  0.00888100  1
  O  O10  1  0.06298500  0.98164700  0.07240400  1
  O  O11  1  0.87141400  0.93172100  0.93548700  1
  O  O12  1  0.06298500  0.92330500  0.00888100  1
  O  O13  1  0.88000500  0.80023200  0.99114400  1
  O  O14  1  0.64898000  0.04788500  0.43548700  1
  O  O15  1  0.64038900  0.17937300  0.49114400  1
  O  O16  1  0.31827900  0.60102000  0.18548700  1
  O  O17  1  0.44976800  0.60961100  0.24114400  1
  O  O18  1  0.56298500  0.99795900  0.57240400  1
  O  O19  1  0.56298500  0.05630100  0.50888100  1
  O  O20  1  0.20211500  0.37858600  0.68548700  1
  O  O21  1  0.07062700  0.36999500  0.74114400  1
  O  O22  1  0.56298500  0.92330500  0.49111900  1
  O  O23  1  0.64898000  0.93172100  0.56451300  1
  O  O24  1  0.64038900  0.80023200  0.50885600  1
  O  O25  1  0.56298500  0.98164700  0.42759600  1
  O  O26  1  0.87141400  0.04788500  0.06451300  1
  O  O27  1  0.88000500  0.17937300  0.00885600  1
  O  O28  1  0.45740900  0.92330500  0.49111900  1
  O  O29  1  0.45740900  0.98164700  0.42759600  1
  O  O30  1  0.20211500  0.60102000  0.31451300  1
  O  O31  1  0.07062700  0.60961100  0.25885600  1
  O  O32  1  0.45740900  0.99795900  0.57240400  1
  O  O33  1  0.31827900  0.37858600  0.81451300  1
  O  O34  1  0.44976800  0.36999500  0.75885600  1
  O  O35  1  0.45740900  0.05630100  0.50888100  1
  O  O36  1  0.14898000  0.04788500  0.06451300  1
  O  O37  1  0.14038900  0.17937300  0.00885600  1
  O  O38  1  0.37141400  0.93172100  0.56451300  1
  O  O39  1  0.95740900  0.98164700  0.07240400  1
  O  O40  1  0.38000500  0.80023200  0.50885600  1
  O  O41  1  0.26835300  0.68701500  0.32240400  1
  O  O42  1  0.70211500  0.37858600  0.81451300  1
  O  O43  1  0.32669500  0.68701500  0.25888100  1
  O  O44  1  0.57062700  0.36999500  0.75885600  1
  O  O45  1  0.81827900  0.60102000  0.31451300  1
  O  O46  1  0.94976800  0.60961100  0.25885600  1
  O  O47  1  0.19369900  0.68701500  0.24111900  1
  O  O48  1  0.25204100  0.68701500  0.17759600  1
  O  O49  1  0.37141400  0.04788500  0.43548700  1
  O  O50  1  0.38000500  0.17937300  0.49114400  1
  O  O51  1  0.19369900  0.79259100  0.24111900  1
  O  O52  1  0.14898000  0.93172100  0.93548700  1
  O  O53  1  0.14038900  0.80023200  0.99114400  1
  O  O54  1  0.25204100  0.79259100  0.17759600  1
  O  O55  1  0.81827900  0.37858600  0.68548700  1
  O  O56  1  0.94976800  0.36999500  0.74114400  1
  O  O57  1  0.95740900  0.92330500  0.00888100  1
  O  O58  1  0.26835300  0.79259100  0.32240400  1
  O  O59  1  0.32669500  0.79259100  0.25888100  1
  O  O60  1  0.70211500  0.60102000  0.18548700  1
  O  O61  1  0.57062700  0.60961100  0.24114400  1
  O  O62  1  0.25204100  0.29259100  0.82240400  1
  O  O63  1  0.19369900  0.29259100  0.75888100  1
  O  O64  1  0.32669500  0.29259100  0.74111900  1
  O  O65  1  0.26835300  0.29259100  0.67759600  1
  O  O66  1  0.32669500  0.18701500  0.74111900  1
  O  O67  1  0.26835300  0.18701500  0.67759600  1
  O  O68  1  0.25204100  0.18701500  0.82240400  1
  O  O69  1  0.19369900  0.18701500  0.75888100  1
  O  O70  1  0.75204100  0.29259100  0.67759600  1
  O  O71  1  0.95740900  0.05630100  0.99111900  1
  O  O72  1  0.69369900  0.29259100  0.74111900  1
  O  O73  1  0.82669500  0.29259100  0.75888100  1
  O  O74  1  0.76835300  0.29259100  0.82240400  1
  O  O75  1  0.82669500  0.18701500  0.75888100  1
  O  O76  1  0.76835300  0.18701500  0.82240400  1
  O  O77  1  0.75204100  0.18701500  0.67759600  1
  O  O78  1  0.69369900  0.18701500  0.74111900  1
  O  O79  1  0.95740900  0.99795900  0.92759600  1
  O  O80  1  0.76835300  0.68701500  0.17759600  1
  O  O81  1  0.82669500  0.68701500  0.24111900  1
  O  O82  1  0.69369900  0.68701500  0.25888100  1
  O  O83  1  0.75204100  0.68701500  0.32240400  1
  O  O84  1  0.69369900  0.79259100  0.25888100  1
  O  O85  1  0.75204100  0.79259100  0.32240400  1
  O  O86  1  0.76835300  0.79259100  0.17759600  1
  O  O87  1  0.82669500  0.79259100  0.24111900  1
  O  O88  1  0.45740900  0.48164700  0.57240400  1
  O  O89  1  0.45740900  0.42330500  0.50888100  1
  O  O90  1  0.06298500  0.05630100  0.99111900  1
  O  O91  1  0.45740900  0.55630100  0.49111900  1
  O  O92  1  0.45740900  0.49795900  0.42759600  1
  O  O93  1  0.56298500  0.55630100  0.49111900  1
  O  O94  1  0.56298500  0.49795900  0.42759600  1
  O  O95  1  0.56298500  0.48164700  0.57240400  1
  O  O96  1  0.56298500  0.42330500  0.50888100  1
