# generated using pymatgen
data_H19PdC20N2ClO5
_symmetry_space_group_name_H-M   'P 1'
_cell_length_a   20.60020000
_cell_length_b   20.60020000
_cell_length_c   16.82010000
_cell_angle_alpha   90.00000000
_cell_angle_beta   90.00000000
_cell_angle_gamma   120.00000000
_symmetry_Int_Tables_number   1
_chemical_formula_structural   H19PdC20N2ClO5
_chemical_formula_sum   'H114 Pd6 C120 N12 Cl6 O30'
_cell_volume   6181.61678899
_cell_formula_units_Z   6
loop_
 _symmetry_equiv_pos_site_id
 _symmetry_equiv_pos_as_xyz
  1  'x, y, z'
loop_
 _atom_site_type_symbol
 _atom_site_label
 _atom_site_symmetry_multiplicity
 _atom_site_fract_x
 _atom_site_fract_y
 _atom_site_fract_z
 _atom_site_occupancy
  H  H1  1  0.46536600  0.26046500  0.10960900  1
  H  H2  1  0.40280900  0.16642400  0.08639900  1
  H  H3  1  0.47874400  0.31694800  0.94829600  1
  H  H4  1  0.38274600  0.45124000  0.11569800  1
  H  H5  1  0.62104100  0.54572600  0.90774600  1
  H  H6  1  0.47607000  0.23919300  0.25016700  1
  H  H7  1  0.40174600  0.18194800  0.30265700  1
  H  H8  1  0.38124400  0.26291600  0.21203700  1
  H  H9  1  0.88932200  0.16205300  0.94845600  1
  H  H10  1  0.91990100  0.20302200  0.03964900  1
  H  H11  1  0.93328200  0.12815600  0.02259600  1
  H  H12  1  0.77518600  0.01452900  0.94856600  1
  H  H13  1  0.83511300  0.99883200  0.00675400  1
  H  H14  1  0.74497800  0.97782500  0.03991400  1
  H  H15  1  0.88093100  0.06713700  0.15172800  1
  H  H16  1  0.77957900  0.02238600  0.16685700  1
  H  H17  1  0.76224300  0.14424600  0.98912200  1
  H  H18  1  0.90558900  0.19250500  0.19012800  1
  H  H19  1  0.85473300  0.12626800  0.26401300  1
  H  H20  1  0.73953500  0.20490200  0.10960900  1
  H  H21  1  0.83357600  0.23638500  0.08639900  1
  H  H22  1  0.68305200  0.16179700  0.94829600  1
  H  H23  1  0.54876000  0.93150600  0.11569800  1
  H  H24  1  0.45427400  0.07531600  0.90774600  1
  H  H25  1  0.76080700  0.23687700  0.25016700  1
  H  H26  1  0.81805200  0.21979800  0.30265700  1
  H  H27  1  0.73708400  0.11832700  0.21203700  1
  H  H28  1  0.16205300  0.27273100  0.44845600  1
  H  H29  1  0.20302200  0.28312100  0.53964900  1
  H  H30  1  0.12815600  0.19487400  0.52259600  1
  H  H31  1  0.01452900  0.23934300  0.44856600  1
  H  H32  1  0.99883200  0.16371800  0.50675400  1
  H  H33  1  0.97782500  0.23284800  0.53991400  1
  H  H34  1  0.06713700  0.18620600  0.65172800  1
  H  H35  1  0.02238600  0.24280700  0.66685700  1
  H  H36  1  0.14424600  0.38200300  0.48912200  1
  H  H37  1  0.19250500  0.28691600  0.69012800  1
  H  H38  1  0.12626800  0.27153500  0.76401300  1
  H  H39  1  0.20490200  0.46536600  0.60960900  1
  H  H40  1  0.23638500  0.40280900  0.58639900  1
  H  H41  1  0.16179700  0.47874400  0.44829600  1
  H  H42  1  0.93150600  0.38274600  0.61569800  1
  H  H43  1  0.07531600  0.62104100  0.40774600  1
  H  H44  1  0.23687700  0.47607000  0.75016700  1
  H  H45  1  0.21979800  0.40174600  0.80265700  1
  H  H46  1  0.11832700  0.38124400  0.71203700  1
  H  H47  1  0.72726900  0.88932200  0.44845600  1
  H  H48  1  0.71687900  0.91990100  0.53964900  1
  H  H49  1  0.80512600  0.93328200  0.52259600  1
  H  H50  1  0.76065700  0.77518600  0.44856600  1
  H  H51  1  0.83628200  0.83511300  0.50675400  1
  H  H52  1  0.76715200  0.74497800  0.53991400  1
  H  H53  1  0.81379400  0.88093100  0.65172800  1
  H  H54  1  0.75719300  0.77957900  0.66685700  1
  H  H55  1  0.61799700  0.76224300  0.48912200  1
  H  H56  1  0.71308400  0.90558900  0.69012800  1
  H  H57  1  0.72846500  0.85473300  0.76401300  1
  H  H58  1  0.53463400  0.73953500  0.60960900  1
  H  H59  1  0.59719100  0.83357600  0.58639900  1
  H  H60  1  0.52125600  0.68305200  0.44829600  1
  H  H61  1  0.61725400  0.54876000  0.61569800  1
  H  H62  1  0.37895900  0.45427400  0.40774600  1
  H  H63  1  0.52393000  0.76080700  0.75016700  1
  H  H64  1  0.59825400  0.81805200  0.80265700  1
  H  H65  1  0.61875600  0.73708400  0.71203700  1
  H  H66  1  0.11067800  0.83794700  0.44845600  1
  H  H67  1  0.08009900  0.79697800  0.53964900  1
  H  H68  1  0.06671800  0.87184400  0.52259600  1
  H  H69  1  0.22481400  0.98547100  0.44856600  1
  H  H70  1  0.16488700  0.00116800  0.50675400  1
  H  H71  1  0.25502200  0.02217500  0.53991400  1
  H  H72  1  0.11906900  0.93286300  0.65172800  1
  H  H73  1  0.22042100  0.97761400  0.66685700  1
  H  H74  1  0.23775700  0.85575400  0.48912200  1
  H  H75  1  0.09441100  0.80749500  0.69012800  1
  H  H76  1  0.14526700  0.87373200  0.76401300  1
  H  H77  1  0.26046500  0.79509800  0.60960900  1
  H  H78  1  0.16642400  0.76361500  0.58639900  1
  H  H79  1  0.31694800  0.83820300  0.44829600  1
  H  H80  1  0.45124000  0.06849400  0.61569800  1
  H  H81  1  0.54572600  0.92468400  0.40774600  1
  H  H82  1  0.23919300  0.76312300  0.75016700  1
  H  H83  1  0.18194800  0.78020200  0.80265700  1
  H  H84  1  0.26291600  0.88167300  0.71203700  1
  H  H85  1  0.83794700  0.72726900  0.94845600  1
  H  H86  1  0.79697800  0.71687900  0.03964900  1
  H  H87  1  0.87184400  0.80512600  0.02259600  1
  H  H88  1  0.98547100  0.76065700  0.94856600  1
  H  H89  1  0.00116800  0.83628200  0.00675400  1
  H  H90  1  0.02217500  0.76715200  0.03991400  1
  H  H91  1  0.93286300  0.81379400  0.15172800  1
  H  H92  1  0.97761400  0.75719300  0.16685700  1
  H  H93  1  0.85575400  0.61799700  0.98912200  1
  H  H94  1  0.80749500  0.71308400  0.19012800  1
  H  H95  1  0.87373200  0.72846500  0.26401300  1
  H  H96  1  0.79509800  0.53463400  0.10960900  1
  H  H97  1  0.76361500  0.59719100  0.08639900  1
  H  H98  1  0.83820300  0.52125600  0.94829600  1
  H  H99  1  0.06849400  0.61725400  0.11569800  1
  H  H100  1  0.92468400  0.37895900  0.90774600  1
  H  H101  1  0.76312300  0.52393000  0.25016700  1
  H  H102  1  0.78020200  0.59825400  0.30265700  1
  H  H103  1  0.88167300  0.61875600  0.21203700  1
  H  H104  1  0.27273100  0.11067800  0.94845600  1
  H  H105  1  0.28312100  0.08009900  0.03964900  1
  H  H106  1  0.19487400  0.06671800  0.02259600  1
  H  H107  1  0.23934300  0.22481400  0.94856600  1
  H  H108  1  0.16371800  0.16488700  0.00675400  1
  H  H109  1  0.23284800  0.25502200  0.03991400  1
  H  H110  1  0.18620600  0.11906900  0.15172800  1
  H  H111  1  0.24280700  0.22042100  0.16685700  1
  H  H112  1  0.38200300  0.23775700  0.98912200  1
  H  H113  1  0.28691600  0.09441100  0.19012800  1
  H  H114  1  0.27153500  0.14526700  0.26401300  1
  Pd  Pd1  1  0.43603400  0.71676100  0.24931500  1
  Pd  Pd2  1  0.28071700  0.71676100  0.24931500  1
  Pd  Pd3  1  0.28227400  0.56455900  0.24601100  1
  Pd  Pd4  1  0.56396600  0.28323900  0.74931500  1
  Pd  Pd5  1  0.71928300  0.28323900  0.74931500  1
  Pd  Pd6  1  0.71772600  0.43544100  0.74601100  1
  C  C1  1  0.40577000  0.21705000  0.11070500  1
  C  C2  1  0.37399100  0.20520100  0.19679200  1
  C  C3  1  0.55467000  0.42841900  0.92617700  1
  C  C4  1  0.49503800  0.37280900  0.96810500  1
  C  C5  1  0.45710100  0.39093300  0.02573700  1
  C  C6  1  0.38620800  0.31878800  0.06931800  1
  C  C7  1  0.47988900  0.46999300  0.04090600  1
  C  C8  1  0.40426100  0.59302900  0.35964200  1
  C  C9  1  0.43713000  0.49268300  0.08492200  1
  C  C10  1  0.45548300  0.56869400  0.08576000  1
  C  C11  1  0.51802000  0.61817600  0.04429700  1
  C  C12  1  0.53634200  0.52359600  0.99134700  1
  C  C13  1  0.57425500  0.50169100  0.93998000  1
  C  C14  1  0.89309100  0.14801300  0.01366800  1
  C  C15  1  0.81755800  0.09084800  0.05680100  1
  C  C16  1  0.79242000  0.01870600  0.00896500  1
  C  C17  1  0.83321300  0.07498600  0.14671600  1
  C  C18  1  0.76201700  0.12561900  0.05259500  1
  C  C19  1  0.85386000  0.14302000  0.20014100  1
  C  C20  1  0.18875800  0.59302900  0.35964200  1
  C  C21  1  0.78295000  0.18872000  0.11070500  1
  C  C22  1  0.79479900  0.16879000  0.19679200  1
  C  C23  1  0.57158100  0.12625100  0.92617700  1
  C  C24  1  0.62719100  0.12222900  0.96810500  1
  C  C25  1  0.60906700  0.06616800  0.02573700  1
  C  C26  1  0.68121200  0.06742000  0.06931800  1
  C  C27  1  0.53000700  0.00989700  0.04090600  1
  C  C28  1  0.50731700  0.94444800  0.08492200  1
  C  C29  1  0.43130600  0.88678900  0.08576000  1
  C  C30  1  0.38182400  0.89984400  0.04429700  1
  C  C31  1  0.47640400  0.01274600  0.99134700  1
  C  C32  1  0.49830900  0.07256400  0.93998000  1
  C  C33  1  0.14801300  0.25492100  0.51366800  1
  C  C34  1  0.09084800  0.27329000  0.55680100  1
  C  C35  1  0.40706600  0.81414200  0.35574400  1
  C  C36  1  0.01870600  0.22628600  0.50896500  1
  C  C37  1  0.07498600  0.24177300  0.64671600  1
  C  C38  1  0.12561900  0.36360200  0.55259500  1
  C  C39  1  0.14302000  0.28916000  0.70014100  1
  C  C40  1  0.18872000  0.40577000  0.61070500  1
  C  C41  1  0.16879000  0.37399100  0.69679200  1
  C  C42  1  0.12625100  0.55467000  0.42617700  1
  C  C43  1  0.12222900  0.49503800  0.46810500  1
  C  C44  1  0.06616800  0.45710100  0.52573700  1
  C  C45  1  0.06742000  0.38620800  0.56931800  1
  C  C46  1  0.00989700  0.47988900  0.54090600  1
  C  C47  1  0.94444800  0.43713000  0.58492200  1
  C  C48  1  0.88678900  0.45548300  0.58576000  1
  C  C49  1  0.89984400  0.51802000  0.54429700  1
  C  C50  1  0.01274600  0.53634200  0.49134700  1
  C  C51  1  0.07256400  0.57425500  0.43998000  1
  C  C52  1  0.40772900  0.81546700  0.14444600  1
  C  C53  1  0.74507900  0.89309100  0.51366800  1
  C  C54  1  0.72671000  0.81755800  0.55680100  1
  C  C55  1  0.77371400  0.79242000  0.50896500  1
  C  C56  1  0.75822700  0.83321300  0.64671600  1
  C  C57  1  0.63639800  0.76201700  0.55259500  1
  C  C58  1  0.71084000  0.85386000  0.70014100  1
  C  C59  1  0.59423000  0.78295000  0.61070500  1
  C  C60  1  0.62600900  0.79479900  0.69679200  1
  C  C61  1  0.44533000  0.57158100  0.42617700  1
  C  C62  1  0.50496200  0.62719100  0.46810500  1
  C  C63  1  0.54289900  0.60906700  0.52573700  1
  C  C64  1  0.61379200  0.68121200  0.56931800  1
  C  C65  1  0.52011100  0.53000700  0.54090600  1
  C  C66  1  0.56287000  0.50731700  0.58492200  1
  C  C67  1  0.54451700  0.43130600  0.58576000  1
  C  C68  1  0.48198000  0.38182400  0.54429700  1
  C  C69  1  0.46365800  0.47640400  0.49134700  1
  C  C70  1  0.42574500  0.49830900  0.43998000  1
  C  C71  1  0.10690900  0.85198700  0.51366800  1
  C  C72  1  0.18244200  0.90915200  0.55680100  1
  C  C73  1  0.20758000  0.98129400  0.50896500  1
  C  C74  1  0.16678700  0.92501400  0.64671600  1
  C  C75  1  0.23798300  0.87438100  0.55259500  1
  C  C76  1  0.81564400  0.40782400  0.64026300  1
  C  C77  1  0.14614000  0.85698000  0.70014100  1
  C  C78  1  0.21705000  0.81128000  0.61070500  1
  C  C79  1  0.20520100  0.83121000  0.69679200  1
  C  C80  1  0.42841900  0.87374900  0.42617700  1
  C  C81  1  0.37280900  0.87777100  0.46810500  1
  C  C82  1  0.39093300  0.93383200  0.52573700  1
  C  C83  1  0.31878800  0.93258000  0.56931800  1
  C  C84  1  0.46999300  0.99010300  0.54090600  1
  C  C85  1  0.49268300  0.05555200  0.58492200  1
  C  C86  1  0.56869400  0.11321100  0.58576000  1
  C  C87  1  0.61817600  0.10015600  0.54429700  1
  C  C88  1  0.52359600  0.98725400  0.49134700  1
  C  C89  1  0.50169100  0.92743600  0.43998000  1
  C  C90  1  0.59219000  0.40782400  0.64026300  1
  C  C91  1  0.59573900  0.40697100  0.85964200  1
  C  C92  1  0.81124200  0.40697100  0.85964200  1
  C  C93  1  0.59293400  0.18585800  0.85574400  1
  C  C94  1  0.59227100  0.18453300  0.64444600  1
  C  C95  1  0.85198700  0.74507900  0.01366800  1
  C  C96  1  0.90915200  0.72671000  0.05680100  1
  C  C97  1  0.98129400  0.77371400  0.00896500  1
  C  C98  1  0.18435600  0.59217600  0.14026300  1
  C  C99  1  0.92501400  0.75822700  0.14671600  1
  C  C100  1  0.87438100  0.63639800  0.05259500  1
  C  C101  1  0.85698000  0.71084000  0.20014100  1
  C  C102  1  0.81128000  0.59423000  0.11070500  1
  C  C103  1  0.83121000  0.62600900  0.19679200  1
  C  C104  1  0.87374900  0.44533000  0.92617700  1
  C  C105  1  0.87777100  0.50496200  0.96810500  1
  C  C106  1  0.93383200  0.54289900  0.02573700  1
  C  C107  1  0.93258000  0.61379200  0.06931800  1
  C  C108  1  0.99010300  0.52011100  0.04090600  1
  C  C109  1  0.05555200  0.56287000  0.08492200  1
  C  C110  1  0.11321100  0.54451700  0.08576000  1
  C  C111  1  0.10015600  0.48198000  0.04429700  1
  C  C112  1  0.98725400  0.46365800  0.99134700  1
  C  C113  1  0.92743600  0.42574500  0.93998000  1
  C  C114  1  0.40781000  0.59217600  0.14026300  1
  C  C115  1  0.25492100  0.10690900  0.01366800  1
  C  C116  1  0.27329000  0.18244200  0.05680100  1
  C  C117  1  0.22628600  0.20758000  0.00896500  1
  C  C118  1  0.24177300  0.16678700  0.14671600  1
  C  C119  1  0.36360200  0.23798300  0.05259500  1
  C  C120  1  0.28916000  0.14614000  0.20014100  1
  N  N1  1  0.42284100  0.19244600  0.24725600  1
  N  N2  1  0.55492000  0.59559300  0.99475100  1
  N  N3  1  0.80755400  0.23039500  0.24725600  1
  N  N4  1  0.40440700  0.95932700  0.99475100  1
  N  N5  1  0.23039500  0.42284100  0.74725600  1
  N  N6  1  0.95932700  0.55492000  0.49475100  1
  N  N7  1  0.57715900  0.80755400  0.74725600  1
  N  N8  1  0.44508000  0.40440700  0.49475100  1
  N  N9  1  0.19244600  0.76960500  0.74725600  1
  N  N10  1  0.59559300  0.04067300  0.49475100  1
  N  N11  1  0.76960500  0.57715900  0.24725600  1
  N  N12  1  0.04067300  0.44508000  0.99475100  1
  Cl  Cl1  1  0.56016000  0.71318000  0.05140000  1
  Cl  Cl2  1  0.28682000  0.84698000  0.05140000  1
  Cl  Cl3  1  0.84698000  0.56016000  0.55140000  1
  Cl  Cl4  1  0.43984000  0.28682000  0.55140000  1
  Cl  Cl5  1  0.71318000  0.15302000  0.55140000  1
  Cl  Cl6  1  0.15302000  0.43984000  0.05140000  1
  O  O1  1  0.34045900  0.55154800  0.33259700  1
  O  O2  1  0.20795400  0.65736500  0.33507100  1
  O  O3  1  0.35338600  0.33525600  0.11495900  1
  O  O4  1  0.21107900  0.55154800  0.33259700  1
  O  O5  1  0.44909300  0.79037600  0.33338600  1
  O  O6  1  0.34127300  0.79037600  0.33338600  1
  O  O7  1  0.66474400  0.01813000  0.11495900  1
  O  O8  1  0.44945900  0.79121100  0.16583300  1
  O  O9  1  0.34174200  0.79121100  0.16583300  1
  O  O10  1  0.01813000  0.35338600  0.61495900  1
  O  O11  1  0.79131900  0.44959600  0.66069200  1
  O  O12  1  0.64661400  0.66474400  0.61495900  1
  O  O13  1  0.79380200  0.34276600  0.66488900  1
  O  O14  1  0.65828600  0.44959600  0.66069200  1
  O  O15  1  0.54897400  0.34276600  0.66488900  1
  O  O16  1  0.33525600  0.98187000  0.61495900  1
  O  O17  1  0.20868100  0.55040400  0.16069200  1
  O  O18  1  0.55059900  0.34263500  0.83507100  1
  O  O19  1  0.65954100  0.44845200  0.83259700  1
  O  O20  1  0.79204600  0.34263500  0.83507100  1
  O  O21  1  0.78892100  0.44845200  0.83259700  1
  O  O22  1  0.55090700  0.20962400  0.83338600  1
  O  O23  1  0.65872700  0.20962400  0.83338600  1
  O  O24  1  0.55054100  0.20878900  0.66583300  1
  O  O25  1  0.20619800  0.65723400  0.16488900  1
  O  O26  1  0.65825800  0.20878900  0.66583300  1
  O  O27  1  0.34171400  0.55040400  0.16069200  1
  O  O28  1  0.45102600  0.65723400  0.16488900  1
  O  O29  1  0.98187000  0.64661400  0.11495900  1
  O  O30  1  0.44940100  0.65736500  0.33507100  1
