# Generated by REPEAT Assigner based on pymatgen
data_DB13-nbo-Syn024602
_audit_creation_date              2022-05-24
_audit_creation_method            REPEAT_Assigner
_cell_length_a                    22.544400
_cell_length_b                    22.544400
_cell_length_c                    22.544400
_cell_angle_alpha                 90.000000
_cell_angle_beta                  90.000000
_cell_angle_gamma                 90.000000
_cell_volume                      11458.190654
_symmetry_space_group_name_H-M    P1
_symmetry_Int_Tables_number       1
loop_
    _symmetry_equiv_pos_site_id
    _symmetry_equiv_pos_as_xyz
    1  x,y,z
loop_
    _atom_site_type_symbol
    _atom_site_label
    _atom_site_fract_x
    _atom_site_fract_y
    _atom_site_fract_z
    _atom_type_partial_charge
    Br  Br1   0.109759  0.580918  0.316057  0.105057
    Br  Br2   0.890241  0.580918  0.683943  0.119124
    Br  Br3   0.316057  0.109759  0.580918  0.094466
    Br  Br4   0.683943  0.890241  0.580918  0.114383
    Br  Br5   0.580918  0.316057  0.109759  0.104452
    Br  Br6   0.580918  0.683943  0.890241  0.119370
    Br  Br7   0.580918  0.109759  0.683943  0.105038
    Br  Br8   0.580918  0.890241  0.316057  0.119125
    Br  Br9   0.109759  0.316057  0.419082  0.094463
    Br  Br10  0.890241  0.683943  0.419082  0.114405
    Br  Br11  0.316057  0.580918  0.890241  0.104414
    Br  Br12  0.683943  0.580918  0.109759  0.119390
    C   C1    0.048163  0.532529  0.285847  -0.172233
    C   C2    0.007673  0.502514  0.318588  -0.158879
    C   C3    0.956793  0.471763  0.283133  0.388153
    C   C4    0.094032  0.415836  0.807550  -0.020968
    C   C5    0.151127  0.407478  0.784769  0.350809
    C   C6    0.190377  0.364299  0.807455  -0.162986
    C   C7    0.170545  0.326524  0.854561  -0.208307
    C   C8    0.116314  0.337475  0.878825  0.198554
    C   C9    0.000000  0.611866  0.500000  0.805566
    C   C10   0.079465  0.380952  0.855915  -0.285424
    C   C11   0.046549  0.463051  0.784867  0.115945
    C   C12   0.004223  0.492827  0.815963  -0.427090
    C   C13   0.957257  0.530384  0.782942  0.682397
    C   C14   0.951837  0.532529  0.714153  -0.198787
    C   C15   0.992327  0.502514  0.681412  -0.146289
    C   C16   0.043207  0.471763  0.716867  0.368171
    C   C17   0.192450  0.905968  0.415836  -0.135839
    C   C18   0.215231  0.848873  0.407478  0.460750
    C   C19   0.192545  0.809623  0.364299  -0.369985
    C   C20   0.145439  0.829455  0.326524  -0.008232
    C   C21   0.121175  0.883686  0.337475  -0.000390
    C   C22   0.144085  0.920535  0.380952  -0.066896
    C   C23   0.215133  0.953451  0.463051  0.100286
    C   C24   0.184037  0.995777  0.492827  -0.365242
    C   C25   0.217058  0.042743  0.530384  0.633304
    C   C26   0.285847  0.048163  0.532529  -0.148999
    C   C27   0.318588  0.007673  0.502514  -0.196268
    C   C28   0.283133  0.956793  0.471763  0.396434
    C   C29   0.807550  0.094032  0.415836  -0.098905
    C   C30   0.784769  0.151127  0.407478  0.378199
    C   C31   0.807455  0.190377  0.364299  -0.263325
    C   C32   0.854561  0.170545  0.326524  -0.086928
    C   C33   0.878825  0.116314  0.337475  0.045054
    C   C34   0.855915  0.079465  0.380952  -0.092972
    C   C35   0.784867  0.046549  0.463051  0.088011
    C   C36   0.388134  0.000000  0.500000  0.925207
    C   C37   0.815963  0.004223  0.492827  -0.346949
    C   C38   0.782942  0.957257  0.530384  0.632855
    C   C39   0.714153  0.951837  0.532529  -0.179580
    C   C40   0.681412  0.992327  0.502514  -0.147118
    C   C41   0.716867  0.043207  0.471763  0.376073
    C   C42   0.415836  0.192450  0.905968  -0.048288
    C   C43   0.407478  0.215231  0.848873  0.410847
    C   C44   0.364299  0.192545  0.809623  -0.249627
    C   C45   0.326524  0.145439  0.829455  -0.141681
    C   C46   0.337475  0.121175  0.883686  0.152017
    C   C47   0.380952  0.144085  0.920535  -0.258805
    C   C48   0.463051  0.215133  0.953451  0.109386
    C   C49   0.492827  0.184037  0.995777  -0.421251
    C   C50   0.530384  0.217058  0.042743  0.669517
    C   C51   0.532529  0.285847  0.048163  -0.169667
    C   C52   0.502514  0.318588  0.007673  -0.169835
    C   C53   0.471763  0.283133  0.956793  0.376148
    C   C54   0.415836  0.807550  0.094032  -0.005119
    C   C55   0.500000  0.000000  0.388134  0.899355
    C   C56   0.407478  0.784769  0.151127  0.329365
    C   C57   0.364299  0.807455  0.190377  -0.153281
    C   C58   0.326524  0.854561  0.170545  -0.217362
    C   C59   0.337475  0.878825  0.116314  0.204293
    C   C60   0.380952  0.855915  0.079465  -0.292472
    C   C61   0.000000  0.500000  0.388134  0.812867
    C   C62   0.463051  0.784867  0.046549  0.096088
    C   C63   0.492827  0.815963  0.004223  -0.408794
    C   C64   0.530384  0.782942  0.957257  0.664605
    C   C65   0.532529  0.714153  0.951837  -0.199179
    C   C66   0.502514  0.681412  0.992327  -0.137757
    C   C67   0.471763  0.716867  0.043207  0.381500
    C   C68   0.415836  0.905968  0.807550  -0.029353
    C   C69   0.407478  0.848873  0.784769  0.386558
    C   C70   0.364299  0.809623  0.807455  -0.241831
    C   C71   0.326524  0.829455  0.854561  -0.141871
    C   C72   0.337475  0.883686  0.878825  0.165824
    C   C73   0.380952  0.920535  0.855915  -0.274142
    C   C74   0.611866  0.000000  0.500000  0.805644
    C   C75   0.463051  0.953451  0.784867  0.090126
    C   C76   0.492827  0.995777  0.815963  -0.405348
    C   C77   0.530384  0.042743  0.782942  0.655036
    C   C78   0.532529  0.048163  0.714153  -0.172019
    C   C79   0.502514  0.007673  0.681412  -0.159240
    C   C80   0.471763  0.956793  0.716867  0.388626
    C   C81   0.415836  0.094032  0.192450  -0.020969
    C   C82   0.407478  0.151127  0.215231  0.350812
    C   C83   0.364299  0.190377  0.192545  -0.163011
    C   C84   0.326524  0.170545  0.145439  -0.208293
    C   C85   0.337475  0.116314  0.121175  0.198555
    C   C86   0.380952  0.079465  0.144085  -0.285427
    C   C87   0.463051  0.046549  0.215133  0.115972
    C   C88   0.492827  0.004223  0.184037  -0.427113
    C   C89   0.530384  0.957257  0.217058  0.682412
    C   C90   0.532529  0.951837  0.285847  -0.198809
    C   C91   0.502514  0.992327  0.318588  -0.146265
    C   C92   0.471763  0.043207  0.283133  0.368154
    C   C93   0.500000  0.000000  0.611866  0.812952
    C   C94   0.905968  0.192450  0.584164  -0.135860
    C   C95   0.848873  0.215231  0.592522  0.460814
    C   C96   0.809623  0.192545  0.635701  -0.370046
    C   C97   0.829455  0.145439  0.673476  -0.008207
    C   C98   0.883686  0.121175  0.662525  -0.000399
    C   C99   0.920535  0.144085  0.619048  -0.066895
    C   C100  0.953451  0.215133  0.536949  0.100288
    C   C101  0.995777  0.184037  0.507173  -0.365241
    C   C102  0.042743  0.217058  0.469616  0.633291
    C   C103  0.048163  0.285847  0.467471  -0.148967
    C   C104  0.007673  0.318588  0.497486  -0.196297
    C   C105  0.956793  0.283133  0.528237  0.396440
    C   C106  0.094032  0.807550  0.584164  -0.099071
    C   C107  0.151127  0.784769  0.592522  0.378308
    C   C108  0.190377  0.807455  0.635701  -0.263385
    C   C109  0.170545  0.854561  0.673476  -0.086892
    C   C110  0.116314  0.878825  0.662525  0.045032
    C   C111  0.079465  0.855915  0.619048  -0.092905
    C   C112  0.046549  0.784867  0.536949  0.088402
    C   C113  0.004223  0.815963  0.507173  -0.347145
    C   C114  0.957257  0.782942  0.469616  0.633048
    C   C115  0.951837  0.714153  0.467471  -0.179796
    C   C116  0.992327  0.681412  0.497486  -0.146742
    C   C117  0.043207  0.716867  0.528237  0.375575
    C   C118  0.192450  0.415836  0.094032  -0.048150
    C   C119  0.215231  0.407478  0.151127  0.410757
    C   C120  0.192545  0.364299  0.190377  -0.249591
    C   C121  0.145439  0.326524  0.170545  -0.141701
    C   C122  0.121175  0.337475  0.116314  0.152025
    C   C123  0.144085  0.380952  0.079465  -0.258847
    C   C124  0.500000  0.388134  0.000000  0.909213
    C   C125  0.215133  0.463051  0.046549  0.109004
    C   C126  0.184037  0.492827  0.004223  -0.420980
    C   C127  0.217058  0.530384  0.957257  0.669207
    C   C128  0.285847  0.532529  0.951837  -0.169431
    C   C129  0.318588  0.502514  0.992327  -0.170179
    C   C130  0.283133  0.471763  0.043207  0.376607
    C   C131  0.807550  0.415836  0.905968  -0.005113
    C   C132  0.784769  0.407478  0.848873  0.329372
    C   C133  0.807455  0.364299  0.809623  -0.153292
    C   C134  0.854561  0.326524  0.829455  -0.217355
    C   C135  0.878825  0.337475  0.883686  0.204289
    C   C136  0.855915  0.380952  0.920535  -0.292485
    C   C137  0.784867  0.463051  0.953451  0.096126
    C   C138  0.815963  0.492827  0.995777  -0.408898
    C   C139  0.782942  0.530384  0.042743  0.664739
    C   C140  0.388134  0.500000  0.000000  0.909288
    C   C141  0.714153  0.532529  0.048163  -0.199219
    C   C142  0.681412  0.502514  0.007673  -0.137754
    C   C143  0.716867  0.471763  0.956793  0.381484
    C   C144  0.500000  0.611866  0.000000  0.805304
    C   C145  0.611866  0.500000  0.000000  0.805323
    C   C146  0.500000  0.000000  0.888134  0.862719
    C   C147  0.500000  0.888134  0.000000  0.862541
    C   C148  0.000000  0.388134  0.500000  0.925246
    C   C149  0.500000  0.000000  0.111866  0.866905
    C   C150  0.500000  0.111866  0.000000  0.866040
    C   C151  0.888134  0.500000  0.000000  0.862596
    C   C152  0.000000  0.500000  0.888134  0.866875
    C   C153  0.111866  0.500000  0.000000  0.866035
    C   C154  0.000000  0.500000  0.111866  0.862696
    C   C155  0.000000  0.888134  0.500000  0.802775
    C   C156  0.888134  0.000000  0.500000  0.802807
    C   C157  0.000000  0.111866  0.500000  0.815606
    C   C158  0.000000  0.500000  0.611866  0.899398
    C   C159  0.111866  0.000000  0.500000  0.815592
    C   C160  0.905968  0.415836  0.192450  -0.029504
    C   C161  0.848873  0.407478  0.215231  0.386647
    C   C162  0.809623  0.364299  0.192545  -0.241868
    C   C163  0.829455  0.326524  0.145439  -0.141863
    C   C164  0.883686  0.337475  0.121175  0.165821
    C   C165  0.920535  0.380952  0.144085  -0.274083
    C   C166  0.953451  0.463051  0.215133  0.090513
    C   C167  0.995777  0.492827  0.184037  -0.405547
    C   C168  0.042743  0.530384  0.217058  0.655231
    Cl  Cl1   0.100933  0.301870  0.945573  -0.108079
    Cl  Cl2   0.054427  0.899067  0.301870  -0.097288
    Cl  Cl3   0.945573  0.100933  0.301870  -0.099846
    Cl  Cl4   0.301870  0.054427  0.899067  -0.100096
    Cl  Cl5   0.301870  0.945573  0.100933  -0.107574
    Cl  Cl6   0.301870  0.899067  0.945573  -0.104399
    Cl  Cl7   0.301870  0.100933  0.054427  -0.108079
    Cl  Cl8   0.899067  0.054427  0.698130  -0.097285
    Cl  Cl9   0.100933  0.945573  0.698130  -0.099843
    Cl  Cl10  0.054427  0.301870  0.100933  -0.100092
    Cl  Cl11  0.945573  0.301870  0.899067  -0.107574
    Cl  Cl12  0.899067  0.301870  0.054427  -0.104404
    Cu  Cu1   0.941110  0.500000  0.500000  0.998190
    Cu  Cu2   0.058890  0.500000  0.500000  0.996945
    Cu  Cu3   0.500000  0.941110  0.500000  0.998193
    Cu  Cu4   0.500000  0.058890  0.500000  0.996944
    Cu  Cu5   0.500000  0.500000  0.941110  0.997446
    Cu  Cu6   0.500000  0.500000  0.058890  0.997470
    Cu  Cu7   0.441110  0.000000  0.000000  0.731455
    Cu  Cu8   0.558890  0.000000  0.000000  1.044768
    Cu  Cu9   0.000000  0.441110  0.000000  0.731456
    Cu  Cu10  0.000000  0.558890  0.000000  1.044767
    Cu  Cu11  0.000000  0.000000  0.441110  0.911302
    Cu  Cu12  0.000000  0.000000  0.558890  0.911296
    H   H1    0.236190  0.355091  0.791722  0.136778
    H   H2    0.203369  0.296631  0.876311  0.125063
    H   H3    0.035705  0.387036  0.879097  0.177885
    H   H4    0.147400  0.451528  0.712472  0.404332
    H   H5    0.208278  0.763810  0.355091  0.216263
    H   H6    0.123689  0.796631  0.296631  0.083938
    H   H7    0.120903  0.964295  0.387036  0.107684
    H   H8    0.287528  0.852600  0.451528  0.403744
    H   H9    0.791722  0.236190  0.355091  0.155070
    H   H10   0.876311  0.203369  0.296631  0.111325
    H   H11   0.879097  0.035705  0.387036  0.107663
    H   H12   0.712472  0.147400  0.451528  0.391997
    H   H13   0.355091  0.208278  0.763810  0.191602
    H   H14   0.296631  0.123689  0.796631  0.104672
    H   H15   0.387036  0.120903  0.964295  0.176257
    H   H16   0.451528  0.287528  0.852600  0.417446
    H   H17   0.355091  0.791722  0.236190  0.136723
    H   H18   0.296631  0.876311  0.203369  0.129172
    H   H19   0.387036  0.879097  0.035705  0.175284
    H   H20   0.451528  0.712472  0.147400  0.424693
    H   H21   0.355091  0.763810  0.791722  0.190520
    H   H22   0.296631  0.796631  0.876311  0.099590
    H   H23   0.387036  0.964295  0.879097  0.175115
    H   H24   0.451528  0.852600  0.712472  0.434300
    H   H25   0.355091  0.236190  0.208278  0.136787
    H   H26   0.296631  0.203369  0.123689  0.125060
    H   H27   0.387036  0.035705  0.120903  0.177885
    H   H28   0.451528  0.147400  0.287528  0.404324
    H   H29   0.763810  0.208278  0.644909  0.216280
    H   H30   0.796631  0.123689  0.703369  0.083933
    H   H31   0.964295  0.120903  0.612964  0.107686
    H   H32   0.852600  0.287528  0.548472  0.403756
    H   H33   0.236190  0.791722  0.644909  0.155086
    H   H34   0.203369  0.876311  0.703369  0.111312
    H   H35   0.035705  0.879097  0.612964  0.107638
    H   H36   0.147400  0.712472  0.548472  0.392056
    H   H37   0.208278  0.355091  0.236190  0.191594
    H   H38   0.123689  0.296631  0.203369  0.104679
    H   H39   0.120903  0.387036  0.035705  0.176273
    H   H40   0.287528  0.451528  0.147400  0.417372
    H   H41   0.791722  0.355091  0.763810  0.136728
    H   H42   0.876311  0.296631  0.796631  0.129171
    H   H43   0.879097  0.387036  0.964295  0.175302
    H   H44   0.712472  0.451528  0.852600  0.424707
    H   H45   0.763810  0.355091  0.208278  0.190523
    H   H46   0.796631  0.296631  0.123689  0.099593
    H   H47   0.964295  0.387036  0.120903  0.175079
    H   H48   0.852600  0.451528  0.287528  0.434359
    O   O1    0.953135  0.500000  0.584809  -0.645807
    O   O2    0.916081  0.447713  0.309565  -0.410869
    O   O3    0.176293  0.442161  0.743521  -0.558327
    O   O4    0.046865  0.584809  0.500000  -0.610511
    O   O5    0.918761  0.559479  0.808893  -0.449980
    O   O6    0.083919  0.447713  0.690435  -0.396488
    O   O7    0.953135  0.584809  0.500000  -0.622468
    O   O8    0.256479  0.823707  0.442161  -0.555710
    O   O9    0.191107  0.081239  0.559479  -0.441721
    O   O10   0.309565  0.916081  0.447713  -0.400735
    O   O11   0.743521  0.176293  0.442161  -0.510932
    O   O12   0.808893  0.918761  0.559479  -0.437903
    O   O13   0.690435  0.083919  0.447713  -0.390924
    O   O14   0.415191  0.046865  0.500000  -0.648233
    O   O15   0.442161  0.256479  0.823707  -0.591861
    O   O16   0.415191  0.953135  0.500000  -0.636439
    O   O17   0.559479  0.191107  0.081239  -0.447463
    O   O18   0.447713  0.309565  0.916081  -0.398526
    O   O19   0.442161  0.743521  0.176293  -0.556754
    O   O20   0.500000  0.046865  0.415191  -0.627852
    O   O21   0.559479  0.808893  0.918761  -0.443815
    O   O22   0.447713  0.690435  0.083919  -0.411066
    O   O23   0.500000  0.953135  0.415191  -0.645798
    O   O24   0.442161  0.823707  0.743521  -0.586365
    O   O25   0.559479  0.081239  0.808893  -0.442551
    O   O26   0.447713  0.916081  0.690435  -0.410924
    O   O27   0.584809  0.046865  0.500000  -0.610553
    O   O28   0.442161  0.176293  0.256479  -0.558315
    O   O29   0.584809  0.953135  0.500000  -0.622442
    O   O30   0.559479  0.918761  0.191107  -0.449983
    O   O31   0.447713  0.083919  0.309565  -0.396480
    O   O32   0.823707  0.256479  0.557839  -0.555735
    O   O33   0.500000  0.046865  0.584809  -0.621229
    O   O34   0.081239  0.191107  0.440521  -0.441725
    O   O35   0.500000  0.953135  0.584809  -0.611859
    O   O36   0.916081  0.309565  0.552287  -0.400749
    O   O37   0.176293  0.743521  0.557839  -0.510994
    O   O38   0.918761  0.808893  0.440521  -0.437936
    O   O39   0.083919  0.690435  0.552287  -0.390856
    O   O40   0.046865  0.500000  0.415191  -0.621247
    O   O41   0.256479  0.442161  0.176293  -0.591795
    O   O42   0.191107  0.559479  0.918761  -0.447355
    O   O43   0.500000  0.415191  0.046865  -0.643467
    O   O44   0.309565  0.447713  0.083919  -0.398567
    O   O45   0.500000  0.415191  0.953135  -0.633171
    O   O46   0.743521  0.442161  0.823707  -0.556767
    O   O47   0.808893  0.559479  0.081239  -0.443895
    O   O48   0.690435  0.447713  0.916081  -0.411073
    O   O49   0.415191  0.500000  0.046865  -0.633208
    O   O50   0.415191  0.500000  0.953135  -0.643453
    O   O51   0.500000  0.584809  0.046865  -0.605014
    O   O52   0.500000  0.584809  0.953135  -0.625344
    O   O53   0.953135  0.500000  0.415191  -0.611810
    O   O54   0.584809  0.500000  0.046865  -0.625357
    O   O55   0.584809  0.500000  0.953135  -0.605022
    O   O56   0.546865  0.000000  0.915191  -0.631538
    O   O57   0.453135  0.000000  0.915191  -0.498913
    O   O58   0.546865  0.915191  0.000000  -0.633538
    O   O59   0.453135  0.915191  0.000000  -0.494286
    O   O60   0.546865  0.000000  0.084809  -0.633864
    O   O61   0.453135  0.000000  0.084809  -0.497077
    O   O62   0.546865  0.084809  0.000000  -0.633032
    O   O63   0.453135  0.084809  0.000000  -0.500945
    O   O64   0.915191  0.546865  0.000000  -0.633530
    O   O65   0.046865  0.415191  0.500000  -0.648244
    O   O66   0.915191  0.453135  0.000000  -0.494322
    O   O67   0.000000  0.546865  0.915191  -0.633868
    O   O68   0.000000  0.453135  0.915191  -0.497059
    O   O69   0.084809  0.546865  0.000000  -0.633052
    O   O70   0.084809  0.453135  0.000000  -0.500969
    O   O71   0.000000  0.546865  0.084809  -0.631518
    O   O72   0.000000  0.453135  0.084809  -0.498871
    O   O73   0.953135  0.415191  0.500000  -0.636449
    O   O74   0.000000  0.915191  0.546865  -0.504933
    O   O75   0.000000  0.915191  0.453135  -0.590268
    O   O76   0.915191  0.000000  0.546865  -0.590281
    O   O77   0.915191  0.000000  0.453135  -0.504961
    O   O78   0.000000  0.084809  0.546865  -0.511791
    O   O79   0.000000  0.084809  0.453135  -0.589785
    O   O80   0.084809  0.000000  0.546865  -0.589786
    O   O81   0.084809  0.000000  0.453135  -0.511785
    O   O82   0.046865  0.500000  0.584809  -0.627871
    O   O83   0.823707  0.442161  0.256479  -0.586415
    O   O84   0.081239  0.559479  0.191107  -0.442583
