# generated using pymatgen
data_CuH3C7I(NO2)2
_symmetry_space_group_name_H-M   'P 1'
_cell_length_a   10.81900000
_cell_length_b   10.81900000
_cell_length_c   21.63800000
_cell_angle_alpha   90.00000000
_cell_angle_beta   90.00000000
_cell_angle_gamma   90.00000000
_symmetry_Int_Tables_number   1
_chemical_formula_structural   CuH3C7I(NO2)2
_chemical_formula_sum   'Cu4 H12 C28 I4 N8 O16'
_cell_volume   2532.74436652
_cell_formula_units_Z   4
loop_
 _symmetry_equiv_pos_site_id
 _symmetry_equiv_pos_as_xyz
  1  'x, y, z'
loop_
 _atom_site_type_symbol
 _atom_site_label
 _atom_site_symmetry_multiplicity
 _atom_site_fract_x
 _atom_site_fract_y
 _atom_site_fract_z
 _atom_site_occupancy
  Cu  Cu1  1  0.87728600  0.00000000  0.00000000  1
  Cu  Cu2  1  0.12271400  0.00000000  0.00000000  1
  Cu  Cu3  1  0.00000000  0.87728600  0.50000000  1
  Cu  Cu4  1  0.00000000  0.12271400  0.50000000  1
  H  H1  1  0.94647700  0.19345700  0.69164100  1
  H  H2  1  0.05102200  0.70267900  0.73952700  1
  H  H3  1  0.98817800  0.73877000  0.66599000  1
  H  H4  1  0.80654300  0.94647700  0.19164100  1
  H  H5  1  0.29732100  0.05102200  0.23952700  1
  H  H6  1  0.26123000  0.98817800  0.16599000  1
  H  H7  1  0.17464100  0.38328100  0.04947400  1
  H  H8  1  0.75368500  0.47905400  0.91292000  1
  H  H9  1  0.82364200  0.33198000  0.90346200  1
  H  H10  1  0.61671900  0.17464100  0.54947400  1
  H  H11  1  0.52094600  0.75368500  0.41292000  1
  H  H12  1  0.66802000  0.82364200  0.40346200  1
  C  C1  1  0.00000000  0.00000000  0.88344700  1
  C  C2  1  0.00000000  0.76689500  0.00000000  1
  C  C3  1  0.00000000  0.00000000  0.11655300  1
  C  C4  1  0.00000000  0.23310500  0.00000000  1
  C  C5  1  0.00000000  0.00000000  0.38344700  1
  C  C6  1  0.23310500  0.00000000  0.50000000  1
  C  C7  1  0.00000000  0.00000000  0.61655300  1
  C  C8  1  0.76689500  0.00000000  0.50000000  1
  C  C9  1  0.99874900  0.01145000  0.81109600  1
  C  C10  1  0.97722400  0.10743000  0.71578000  1
  C  C11  1  0.99937200  0.99851200  0.68537500  1
  C  C12  1  0.03313100  0.89897100  0.72299900  1
  C  C13  1  0.05928100  0.77348600  0.69743300  1
  C  C14  1  0.98855000  0.99874900  0.31109600  1
  C  C15  1  0.89257000  0.97722400  0.21578000  1
  C  C16  1  0.00148800  0.99937200  0.18537500  1
  C  C17  1  0.10102900  0.03313100  0.22299900  1
  C  C18  1  0.22651400  0.05928100  0.19743300  1
  C  C19  1  0.00898100  0.62219200  0.00360600  1
  C  C20  1  0.09207000  0.43156000  0.02993000  1
  C  C21  1  0.99939200  0.37075100  0.99925200  1
  C  C22  1  0.90513500  0.44599700  0.97599500  1
  C  C23  1  0.79791200  0.39486500  0.94087400  1
  C  C24  1  0.37780800  0.00898100  0.50360600  1
  C  C25  1  0.56844000  0.09207000  0.52993000  1
  C  C26  1  0.62924900  0.99939200  0.49925200  1
  C  C27  1  0.55400300  0.90513500  0.47599500  1
  C  C28  1  0.60513500  0.79791200  0.44087400  1
  I  I1  1  0.25446900  0.74553100  0.67619600  1
  I  I2  1  0.25446900  0.25446900  0.17619600  1
  I  I3  1  0.64012700  0.35239200  0.00000000  1
  I  I4  1  0.64760800  0.64012700  0.50000000  1
  N  N1  1  0.96531900  0.11025700  0.77555600  1
  N  N2  1  0.03041100  0.90678900  0.78779100  1
  N  N3  1  0.88974300  0.96531900  0.27555600  1
  N  N4  1  0.09321100  0.03041100  0.28779100  1
  N  N5  1  0.10248700  0.55111200  0.02672000  1
  N  N6  1  0.91258600  0.57558300  0.97779700  1
  N  N7  1  0.44888800  0.10248700  0.52672000  1
  N  N8  1  0.42441700  0.91258600  0.47779700  1
  O  O1  1  0.09765700  0.00000000  0.91163900  1
  O  O2  1  0.90234300  0.00000000  0.91163900  1
  O  O3  1  0.09765700  0.82327700  0.00000000  1
  O  O4  1  0.90234300  0.82327700  0.00000000  1
  O  O5  1  0.09765700  0.00000000  0.08836100  1
  O  O6  1  0.90234300  0.00000000  0.08836100  1
  O  O7  1  0.09765700  0.17672300  0.00000000  1
  O  O8  1  0.90234300  0.17672300  0.00000000  1
  O  O9  1  0.00000000  0.09765700  0.41163900  1
  O  O10  1  0.00000000  0.90234300  0.41163900  1
  O  O11  1  0.17672300  0.09765700  0.50000000  1
  O  O12  1  0.17672300  0.90234300  0.50000000  1
  O  O13  1  0.00000000  0.09765700  0.58836100  1
  O  O14  1  0.00000000  0.90234300  0.58836100  1
  O  O15  1  0.82327700  0.09765700  0.50000000  1
  O  O16  1  0.82327700  0.90234300  0.50000000  1
