# generated using pymatgen
data_CuH9C20BrO6
_symmetry_space_group_name_H-M   'P 1'
_cell_length_a   22.43500000
_cell_length_b   22.43500000
_cell_length_c   22.43500000
_cell_angle_alpha   90.00000000
_cell_angle_beta   90.00000000
_cell_angle_gamma   90.00000000
_symmetry_Int_Tables_number   1
_chemical_formula_structural   CuH9C20BrO6
_chemical_formula_sum   'Cu12 H108 C240 Br12 O72'
_cell_volume   11292.19116287
_cell_formula_units_Z   12
loop_
 _symmetry_equiv_pos_site_id
 _symmetry_equiv_pos_as_xyz
  1  'x, y, z'
loop_
 _atom_site_type_symbol
 _atom_site_label
 _atom_site_symmetry_multiplicity
 _atom_site_fract_x
 _atom_site_fract_y
 _atom_site_fract_z
 _atom_site_occupancy
  Cu  Cu1  1  0.94082300  0.50000000  0.50000000  1
  Cu  Cu2  1  0.05917700  0.50000000  0.50000000  1
  Cu  Cu3  1  0.50000000  0.94082300  0.50000000  1
  Cu  Cu4  1  0.50000000  0.05917700  0.50000000  1
  Cu  Cu5  1  0.50000000  0.50000000  0.94082300  1
  Cu  Cu6  1  0.50000000  0.50000000  0.05917700  1
  Cu  Cu7  1  0.44082300  0.00000000  0.00000000  1
  Cu  Cu8  1  0.55917700  0.00000000  0.00000000  1
  Cu  Cu9  1  0.00000000  0.44082300  0.00000000  1
  Cu  Cu10  1  0.00000000  0.55917700  0.00000000  1
  Cu  Cu11  1  0.00000000  0.00000000  0.44082300  1
  Cu  Cu12  1  0.00000000  0.00000000  0.55917700  1
  H  H1  1  0.70133100  0.30195200  0.13882200  1
  H  H2  1  0.74469800  0.24469800  0.18047500  1
  H  H3  1  0.69487700  0.34308000  0.26133200  1
  H  H4  1  0.75290000  0.42596400  0.31713600  1
  H  H5  1  0.85028400  0.46236800  0.27594200  1
  H  H6  1  0.09300900  0.32241900  0.94225000  1
  H  H7  1  0.02260800  0.38584200  0.88873100  1
  H  H8  1  0.18992800  0.23739100  0.88783200  1
  H  H9  1  0.22311200  0.30063400  0.93466300  1
  H  H10  1  0.29866900  0.30195200  0.86117800  1
  H  H11  1  0.25530200  0.24469800  0.81952500  1
  H  H12  1  0.30512300  0.34308000  0.73866800  1
  H  H13  1  0.24710000  0.42596400  0.68286400  1
  H  H14  1  0.14971600  0.46236800  0.72405800  1
  H  H15  1  0.05775000  0.90699100  0.32241900  1
  H  H16  1  0.11126900  0.97739200  0.38584200  1
  H  H17  1  0.11216800  0.81007200  0.23739100  1
  H  H18  1  0.06533700  0.77688800  0.30063400  1
  H  H19  1  0.13882200  0.70133100  0.30195200  1
  H  H20  1  0.18047500  0.74469800  0.24469800  1
  H  H21  1  0.26133200  0.69487700  0.34308000  1
  H  H22  1  0.31713600  0.75290000  0.42596400  1
  H  H23  1  0.27594200  0.85028400  0.46236800  1
  H  H24  1  0.94225000  0.09300900  0.32241900  1
  H  H25  1  0.88873100  0.02260800  0.38584200  1
  H  H26  1  0.88783200  0.18992800  0.23739100  1
  H  H27  1  0.93466300  0.22311200  0.30063400  1
  H  H28  1  0.86117800  0.29866900  0.30195200  1
  H  H29  1  0.81952500  0.25530200  0.24469800  1
  H  H30  1  0.73866800  0.30512300  0.34308000  1
  H  H31  1  0.68286400  0.24710000  0.42596400  1
  H  H32  1  0.72405800  0.14971600  0.46236800  1
  H  H33  1  0.32241900  0.05775000  0.90699100  1
  H  H34  1  0.38584200  0.11126900  0.97739200  1
  H  H35  1  0.23739100  0.11216800  0.81007200  1
  H  H36  1  0.30063400  0.06533700  0.77688800  1
  H  H37  1  0.30195200  0.13882200  0.70133100  1
  H  H38  1  0.24469800  0.18047500  0.74469800  1
  H  H39  1  0.34308000  0.26133200  0.69487700  1
  H  H40  1  0.42596400  0.31713600  0.75290000  1
  H  H41  1  0.46236800  0.27594200  0.85028400  1
  H  H42  1  0.32241900  0.94225000  0.09300900  1
  H  H43  1  0.38584200  0.88873100  0.02260800  1
  H  H44  1  0.23739100  0.88783200  0.18992800  1
  H  H45  1  0.30063400  0.93466300  0.22311200  1
  H  H46  1  0.30195200  0.86117800  0.29866900  1
  H  H47  1  0.24469800  0.81952500  0.25530200  1
  H  H48  1  0.34308000  0.73866800  0.30512300  1
  H  H49  1  0.42596400  0.68286400  0.24710000  1
  H  H50  1  0.46236800  0.72405800  0.14971600  1
  H  H51  1  0.32241900  0.90699100  0.94225000  1
  H  H52  1  0.38584200  0.97739200  0.88873100  1
  H  H53  1  0.23739100  0.81007200  0.88783200  1
  H  H54  1  0.30063400  0.77688800  0.93466300  1
  H  H55  1  0.30195200  0.70133100  0.86117800  1
  H  H56  1  0.24469800  0.74469800  0.81952500  1
  H  H57  1  0.34308000  0.69487700  0.73866800  1
  H  H58  1  0.42596400  0.75290000  0.68286400  1
  H  H59  1  0.46236800  0.85028400  0.72405800  1
  H  H60  1  0.32241900  0.09300900  0.05775000  1
  H  H61  1  0.38584200  0.02260800  0.11126900  1
  H  H62  1  0.23739100  0.18992800  0.11216800  1
  H  H63  1  0.30063400  0.22311200  0.06533700  1
  H  H64  1  0.30195200  0.29866900  0.13882200  1
  H  H65  1  0.24469800  0.25530200  0.18047500  1
  H  H66  1  0.34308000  0.30512300  0.26133200  1
  H  H67  1  0.42596400  0.24710000  0.31713600  1
  H  H68  1  0.46236800  0.14971600  0.27594200  1
  H  H69  1  0.90699100  0.05775000  0.67758100  1
  H  H70  1  0.97739200  0.11126900  0.61415800  1
  H  H71  1  0.81007200  0.11216800  0.76260900  1
  H  H72  1  0.77688800  0.06533700  0.69936600  1
  H  H73  1  0.70133100  0.13882200  0.69804800  1
  H  H74  1  0.74469800  0.18047500  0.75530200  1
  H  H75  1  0.69487700  0.26133200  0.65692000  1
  H  H76  1  0.75290000  0.31713600  0.57403600  1
  H  H77  1  0.85028400  0.27594200  0.53763200  1
  H  H78  1  0.09300900  0.94225000  0.67758100  1
  H  H79  1  0.02260800  0.88873100  0.61415800  1
  H  H80  1  0.18992800  0.88783200  0.76260900  1
  H  H81  1  0.22311200  0.93466300  0.69936600  1
  H  H82  1  0.29866900  0.86117800  0.69804800  1
  H  H83  1  0.25530200  0.81952500  0.75530200  1
  H  H84  1  0.30512300  0.73866800  0.65692000  1
  H  H85  1  0.24710000  0.68286400  0.57403600  1
  H  H86  1  0.14971600  0.72405800  0.53763200  1
  H  H87  1  0.05775000  0.32241900  0.09300900  1
  H  H88  1  0.11126900  0.38584200  0.02260800  1
  H  H89  1  0.11216800  0.23739100  0.18992800  1
  H  H90  1  0.06533700  0.30063400  0.22311200  1
  H  H91  1  0.13882200  0.30195200  0.29866900  1
  H  H92  1  0.18047500  0.24469800  0.25530200  1
  H  H93  1  0.26133200  0.34308000  0.30512300  1
  H  H94  1  0.31713600  0.42596400  0.24710000  1
  H  H95  1  0.27594200  0.46236800  0.14971600  1
  H  H96  1  0.94225000  0.32241900  0.90699100  1
  H  H97  1  0.88873100  0.38584200  0.97739200  1
  H  H98  1  0.88783200  0.23739100  0.81007200  1
  H  H99  1  0.93466300  0.30063400  0.77688800  1
  H  H100  1  0.86117800  0.30195200  0.70133100  1
  H  H101  1  0.81952500  0.24469800  0.74469800  1
  H  H102  1  0.73866800  0.34308000  0.69487700  1
  H  H103  1  0.68286400  0.42596400  0.75290000  1
  H  H104  1  0.72405800  0.46236800  0.85028400  1
  H  H105  1  0.90699100  0.32241900  0.05775000  1
  H  H106  1  0.97739200  0.38584200  0.11126900  1
  H  H107  1  0.81007200  0.23739100  0.11216800  1
  H  H108  1  0.77688800  0.30063400  0.06533700  1
  C  C1  1  0.96182000  0.45937500  0.21165400  1
  C  C2  1  0.00145400  0.49122600  0.18010600  1
  C  C3  1  0.04903600  0.52250100  0.21779200  1
  C  C4  1  0.05075300  0.52215100  0.28455700  1
  C  C5  1  0.00000000  0.61241200  0.50000000  1
  C  C6  1  0.00754900  0.49905600  0.31751200  1
  C  C7  1  0.96230600  0.46676700  0.28207500  1
  C  C8  1  0.08771200  0.41472900  0.81875200  1
  C  C9  1  0.14609100  0.40141600  0.79566300  1
  C  C10  1  0.17856900  0.35654800  0.82051100  1
  C  C11  1  0.16062600  0.32861500  0.87224400  1
  C  C12  1  0.10892800  0.34200600  0.90104500  1
  C  C13  1  0.06895400  0.38113700  0.86971300  1
  C  C14  1  0.20760900  0.28523400  0.89078800  1
  C  C15  1  0.25645300  0.28834600  0.84208600  1
  C  C16  1  0.23259000  0.33524600  0.80139300  1
  C  C17  1  0.25922000  0.36002000  0.75225700  1
  C  C18  1  0.22685000  0.40740500  0.72330800  1
  C  C19  1  0.17291100  0.42764200  0.74667600  1
  C  C20  1  0.03818000  0.45937500  0.78834600  1
  C  C21  1  0.99854600  0.49122600  0.81989400  1
  C  C22  1  0.95096400  0.52250100  0.78220800  1
  C  C23  1  0.94924700  0.52215100  0.71544300  1
  C  C24  1  0.99245100  0.49905600  0.68248800  1
  C  C25  1  0.03769400  0.46676700  0.71792500  1
  C  C26  1  0.18124800  0.91228800  0.41472900  1
  C  C27  1  0.20433700  0.85390900  0.40141600  1
  C  C28  1  0.17948900  0.82143100  0.35654800  1
  C  C29  1  0.12775600  0.83937400  0.32861500  1
  C  C30  1  0.09895500  0.89107200  0.34200600  1
  C  C31  1  0.13028700  0.93104600  0.38113700  1
  C  C32  1  0.10921200  0.79239100  0.28523400  1
  C  C33  1  0.15791400  0.74354700  0.28834600  1
  C  C34  1  0.19860700  0.76741000  0.33524600  1
  C  C35  1  0.24774300  0.74078000  0.36002000  1
  C  C36  1  0.27669200  0.77315000  0.40740500  1
  C  C37  1  0.25332400  0.82708900  0.42764200  1
  C  C38  1  0.38758800  0.00000000  0.50000000  1
  C  C39  1  0.21165400  0.96182000  0.45937500  1
  C  C40  1  0.18010600  0.00145400  0.49122600  1
  C  C41  1  0.21779200  0.04903600  0.52250100  1
  C  C42  1  0.28455700  0.05075300  0.52215100  1
  C  C43  1  0.31751200  0.00754900  0.49905600  1
  C  C44  1  0.28207500  0.96230600  0.46676700  1
  C  C45  1  0.81875200  0.08771200  0.41472900  1
  C  C46  1  0.79566300  0.14609100  0.40141600  1
  C  C47  1  0.82051100  0.17856900  0.35654800  1
  C  C48  1  0.87224400  0.16062600  0.32861500  1
  C  C49  1  0.90104500  0.10892800  0.34200600  1
  C  C50  1  0.86971300  0.06895400  0.38113700  1
  C  C51  1  0.89078800  0.20760900  0.28523400  1
  C  C52  1  0.84208600  0.25645300  0.28834600  1
  C  C53  1  0.80139300  0.23259000  0.33524600  1
  C  C54  1  0.75225700  0.25922000  0.36002000  1
  C  C55  1  0.72330800  0.22685000  0.40740500  1
  C  C56  1  0.74667600  0.17291100  0.42764200  1
  C  C57  1  0.50000000  0.00000000  0.38758800  1
  C  C58  1  0.78834600  0.03818000  0.45937500  1
  C  C59  1  0.81989400  0.99854600  0.49122600  1
  C  C60  1  0.78220800  0.95096400  0.52250100  1
  C  C61  1  0.71544300  0.94924700  0.52215100  1
  C  C62  1  0.00000000  0.50000000  0.38758800  1
  C  C63  1  0.68248800  0.99245100  0.49905600  1
  C  C64  1  0.71792500  0.03769400  0.46676700  1
  C  C65  1  0.41472900  0.18124800  0.91228800  1
  C  C66  1  0.40141600  0.20433700  0.85390900  1
  C  C67  1  0.35654800  0.17948900  0.82143100  1
  C  C68  1  0.32861500  0.12775600  0.83937400  1
  C  C69  1  0.34200600  0.09895500  0.89107200  1
  C  C70  1  0.38113700  0.13028700  0.93104600  1
  C  C71  1  0.28523400  0.10921200  0.79239100  1
  C  C72  1  0.28834600  0.15791400  0.74354700  1
  C  C73  1  0.33524600  0.19860700  0.76741000  1
  C  C74  1  0.36002000  0.24774300  0.74078000  1
  C  C75  1  0.40740500  0.27669200  0.77315000  1
  C  C76  1  0.42764200  0.25332400  0.82708900  1
  C  C77  1  0.61241200  0.00000000  0.50000000  1
  C  C78  1  0.45937500  0.21165400  0.96182000  1
  C  C79  1  0.49122600  0.18010600  0.00145400  1
  C  C80  1  0.52250100  0.21779200  0.04903600  1
  C  C81  1  0.52215100  0.28455700  0.05075300  1
  C  C82  1  0.49905600  0.31751200  0.00754900  1
  C  C83  1  0.46676700  0.28207500  0.96230600  1
  C  C84  1  0.41472900  0.81875200  0.08771200  1
  C  C85  1  0.40141600  0.79566300  0.14609100  1
  C  C86  1  0.35654800  0.82051100  0.17856900  1
  C  C87  1  0.32861500  0.87224400  0.16062600  1
  C  C88  1  0.34200600  0.90104500  0.10892800  1
  C  C89  1  0.38113700  0.86971300  0.06895400  1
  C  C90  1  0.28523400  0.89078800  0.20760900  1
  C  C91  1  0.28834600  0.84208600  0.25645300  1
  C  C92  1  0.33524600  0.80139300  0.23259000  1
  C  C93  1  0.36002000  0.75225700  0.25922000  1
  C  C94  1  0.40740500  0.72330800  0.22685000  1
  C  C95  1  0.42764200  0.74667600  0.17291100  1
  C  C96  1  0.50000000  0.00000000  0.61241200  1
  C  C97  1  0.45937500  0.78834600  0.03818000  1
  C  C98  1  0.49122600  0.81989400  0.99854600  1
  C  C99  1  0.52250100  0.78220800  0.95096400  1
  C  C100  1  0.52215100  0.71544300  0.94924700  1
  C  C101  1  0.49905600  0.68248800  0.99245100  1
  C  C102  1  0.46676700  0.71792500  0.03769400  1
  C  C103  1  0.41472900  0.91228800  0.81875200  1
  C  C104  1  0.40141600  0.85390900  0.79566300  1
  C  C105  1  0.35654800  0.82143100  0.82051100  1
  C  C106  1  0.32861500  0.83937400  0.87224400  1
  C  C107  1  0.34200600  0.89107200  0.90104500  1
  C  C108  1  0.38113700  0.93104600  0.86971300  1
  C  C109  1  0.28523400  0.79239100  0.89078800  1
  C  C110  1  0.28834600  0.74354700  0.84208600  1
  C  C111  1  0.33524600  0.76741000  0.80139300  1
  C  C112  1  0.36002000  0.74078000  0.75225700  1
  C  C113  1  0.40740500  0.77315000  0.72330800  1
  C  C114  1  0.42764200  0.82708900  0.74667600  1
  C  C115  1  0.45937500  0.96182000  0.78834600  1
  C  C116  1  0.49122600  0.00145400  0.81989400  1
  C  C117  1  0.52250100  0.04903600  0.78220800  1
  C  C118  1  0.52215100  0.05075300  0.71544300  1
  C  C119  1  0.49905600  0.00754900  0.68248800  1
  C  C120  1  0.46676700  0.96230600  0.71792500  1
  C  C121  1  0.41472900  0.08771200  0.18124800  1
  C  C122  1  0.40141600  0.14609100  0.20433700  1
  C  C123  1  0.35654800  0.17856900  0.17948900  1
  C  C124  1  0.32861500  0.16062600  0.12775600  1
  C  C125  1  0.34200600  0.10892800  0.09895500  1
  C  C126  1  0.38113700  0.06895400  0.13028700  1
  C  C127  1  0.50000000  0.38758800  0.00000000  1
  C  C128  1  0.28523400  0.20760900  0.10921200  1
  C  C129  1  0.28834600  0.25645300  0.15791400  1
  C  C130  1  0.33524600  0.23259000  0.19860700  1
  C  C131  1  0.36002000  0.25922000  0.24774300  1
  C  C132  1  0.40740500  0.22685000  0.27669200  1
  C  C133  1  0.42764200  0.17291100  0.25332400  1
  C  C134  1  0.45937500  0.03818000  0.21165400  1
  C  C135  1  0.49122600  0.99854600  0.18010600  1
  C  C136  1  0.52250100  0.95096400  0.21779200  1
  C  C137  1  0.52215100  0.94924700  0.28455700  1
  C  C138  1  0.49905600  0.99245100  0.31751200  1
  C  C139  1  0.46676700  0.03769400  0.28207500  1
  C  C140  1  0.91228800  0.18124800  0.58527100  1
  C  C141  1  0.85390900  0.20433700  0.59858400  1
  C  C142  1  0.82143100  0.17948900  0.64345200  1
  C  C143  1  0.83937400  0.12775600  0.67138500  1
  C  C144  1  0.89107200  0.09895500  0.65799400  1
  C  C145  1  0.93104600  0.13028700  0.61886300  1
  C  C146  1  0.38758800  0.50000000  0.00000000  1
  C  C147  1  0.79239100  0.10921200  0.71476600  1
  C  C148  1  0.74354700  0.15791400  0.71165400  1
  C  C149  1  0.76741000  0.19860700  0.66475400  1
  C  C150  1  0.74078000  0.24774300  0.63998000  1
  C  C151  1  0.77315000  0.27669200  0.59259500  1
  C  C152  1  0.82708900  0.25332400  0.57235800  1
  C  C153  1  0.96182000  0.21165400  0.54062500  1
  C  C154  1  0.00145400  0.18010600  0.50877400  1
  C  C155  1  0.04903600  0.21779200  0.47749900  1
  C  C156  1  0.05075300  0.28455700  0.47784900  1
  C  C157  1  0.00754900  0.31751200  0.50094400  1
  C  C158  1  0.96230600  0.28207500  0.53323300  1
  C  C159  1  0.08771200  0.81875200  0.58527100  1
  C  C160  1  0.14609100  0.79566300  0.59858400  1
  C  C161  1  0.17856900  0.82051100  0.64345200  1
  C  C162  1  0.16062600  0.87224400  0.67138500  1
  C  C163  1  0.10892800  0.90104500  0.65799400  1
  C  C164  1  0.06895400  0.86971300  0.61886300  1
  C  C165  1  0.50000000  0.61241200  0.00000000  1
  C  C166  1  0.20760900  0.89078800  0.71476600  1
  C  C167  1  0.25645300  0.84208600  0.71165400  1
  C  C168  1  0.23259000  0.80139300  0.66475400  1
  C  C169  1  0.25922000  0.75225700  0.63998000  1
  C  C170  1  0.22685000  0.72330800  0.59259500  1
  C  C171  1  0.17291100  0.74667600  0.57235800  1
  C  C172  1  0.03818000  0.78834600  0.54062500  1
  C  C173  1  0.99854600  0.81989400  0.50877400  1
  C  C174  1  0.95096400  0.78220800  0.47749900  1
  C  C175  1  0.94924700  0.71544300  0.47784900  1
  C  C176  1  0.99245100  0.68248800  0.50094400  1
  C  C177  1  0.03769400  0.71792500  0.53323300  1
  C  C178  1  0.18124800  0.41472900  0.08771200  1
  C  C179  1  0.20433700  0.40141600  0.14609100  1
  C  C180  1  0.17948900  0.35654800  0.17856900  1
  C  C181  1  0.12775600  0.32861500  0.16062600  1
  C  C182  1  0.09895500  0.34200600  0.10892800  1
  C  C183  1  0.13028700  0.38113700  0.06895400  1
  C  C184  1  0.61241200  0.50000000  0.00000000  1
  C  C185  1  0.10921200  0.28523400  0.20760900  1
  C  C186  1  0.15791400  0.28834600  0.25645300  1
  C  C187  1  0.19860700  0.33524600  0.23259000  1
  C  C188  1  0.24774300  0.36002000  0.25922000  1
  C  C189  1  0.27669200  0.40740500  0.22685000  1
  C  C190  1  0.25332400  0.42764200  0.17291100  1
  C  C191  1  0.21165400  0.45937500  0.03818000  1
  C  C192  1  0.18010600  0.49122600  0.99854600  1
  C  C193  1  0.21779200  0.52250100  0.95096400  1
  C  C194  1  0.28455700  0.52215100  0.94924700  1
  C  C195  1  0.31751200  0.49905600  0.99245100  1
  C  C196  1  0.28207500  0.46676700  0.03769400  1
  C  C197  1  0.81875200  0.41472900  0.91228800  1
  C  C198  1  0.79566300  0.40141600  0.85390900  1
  C  C199  1  0.82051100  0.35654800  0.82143100  1
  C  C200  1  0.87224400  0.32861500  0.83937400  1
  C  C201  1  0.90104500  0.34200600  0.89107200  1
  C  C202  1  0.86971300  0.38113700  0.93104600  1
  C  C203  1  0.89078800  0.28523400  0.79239100  1
  C  C204  1  0.84208600  0.28834600  0.74354700  1
  C  C205  1  0.80139300  0.33524600  0.76741000  1
  C  C206  1  0.75225700  0.36002000  0.74078000  1
  C  C207  1  0.72330800  0.40740500  0.77315000  1
  C  C208  1  0.74667600  0.42764200  0.82708900  1
  C  C209  1  0.78834600  0.45937500  0.96182000  1
  C  C210  1  0.81989400  0.49122600  0.00145400  1
  C  C211  1  0.78220800  0.52250100  0.04903600  1
  C  C212  1  0.71544300  0.52215100  0.05075300  1
  C  C213  1  0.50000000  0.00000000  0.88758800  1
  C  C214  1  0.68248800  0.49905600  0.00754900  1
  C  C215  1  0.71792500  0.46676700  0.96230600  1
  C  C216  1  0.50000000  0.88758800  0.00000000  1
  C  C217  1  0.00000000  0.38758800  0.50000000  1
  C  C218  1  0.50000000  0.00000000  0.11241200  1
  C  C219  1  0.50000000  0.11241200  0.00000000  1
  C  C220  1  0.88758800  0.50000000  0.00000000  1
  C  C221  1  0.00000000  0.50000000  0.88758800  1
  C  C222  1  0.11241200  0.50000000  0.00000000  1
  C  C223  1  0.00000000  0.50000000  0.11241200  1
  C  C224  1  0.00000000  0.88758800  0.50000000  1
  C  C225  1  0.88758800  0.00000000  0.50000000  1
  C  C226  1  0.00000000  0.11241200  0.50000000  1
  C  C227  1  0.00000000  0.50000000  0.61241200  1
  C  C228  1  0.11241200  0.00000000  0.50000000  1
  C  C229  1  0.91228800  0.41472900  0.18124800  1
  C  C230  1  0.85390900  0.40141600  0.20433700  1
  C  C231  1  0.82143100  0.35654800  0.17948900  1
  C  C232  1  0.83937400  0.32861500  0.12775600  1
  C  C233  1  0.89107200  0.34200600  0.09895500  1
  C  C234  1  0.93104600  0.38113700  0.13028700  1
  C  C235  1  0.79239100  0.28523400  0.10921200  1
  C  C236  1  0.74354700  0.28834600  0.15791400  1
  C  C237  1  0.76741000  0.33524600  0.19860700  1
  C  C238  1  0.74078000  0.36002000  0.24774300  1
  C  C239  1  0.77315000  0.40740500  0.27669200  1
  C  C240  1  0.82708900  0.42764200  0.25332400  1
  Br  Br1  1  0.11228900  0.57417900  0.31844200  1
  Br  Br2  1  0.88771100  0.57417900  0.68155800  1
  Br  Br3  1  0.31844200  0.11228900  0.57417900  1
  Br  Br4  1  0.68155800  0.88771100  0.57417900  1
  Br  Br5  1  0.57417900  0.31844200  0.11228900  1
  Br  Br6  1  0.57417900  0.68155800  0.88771100  1
  Br  Br7  1  0.57417900  0.11228900  0.68155800  1
  Br  Br8  1  0.57417900  0.88771100  0.31844200  1
  Br  Br9  1  0.11228900  0.31844200  0.42582100  1
  Br  Br10  1  0.88771100  0.68155800  0.42582100  1
  Br  Br11  1  0.31844200  0.57417900  0.88771100  1
  Br  Br12  1  0.68155800  0.57417900  0.11228900  1
  O  O1  1  0.95290600  0.50000000  0.58522200  1
  O  O2  1  0.08914500  0.55259400  0.19748300  1
  O  O3  1  0.92867700  0.43390000  0.30889700  1
  O  O4  1  0.04709400  0.58522200  0.50000000  1
  O  O5  1  0.95290600  0.58522200  0.50000000  1
  O  O6  1  0.91085500  0.55259400  0.80251700  1
  O  O7  1  0.07132300  0.43390000  0.69110300  1
  O  O8  1  0.19748300  0.08914500  0.55259400  1
  O  O9  1  0.41477800  0.04709400  0.50000000  1
  O  O10  1  0.30889700  0.92867700  0.43390000  1
  O  O11  1  0.41477800  0.95290600  0.50000000  1
  O  O12  1  0.80251700  0.91085500  0.55259400  1
  O  O13  1  0.50000000  0.04709400  0.41477800  1
  O  O14  1  0.69110300  0.07132300  0.43390000  1
  O  O15  1  0.50000000  0.95290600  0.41477800  1
  O  O16  1  0.55259400  0.19748300  0.08914500  1
  O  O17  1  0.58522200  0.04709400  0.50000000  1
  O  O18  1  0.43390000  0.30889700  0.92867700  1
  O  O19  1  0.58522200  0.95290600  0.50000000  1
  O  O20  1  0.55259400  0.80251700  0.91085500  1
  O  O21  1  0.50000000  0.04709400  0.58522200  1
  O  O22  1  0.43390000  0.69110300  0.07132300  1
  O  O23  1  0.50000000  0.95290600  0.58522200  1
  O  O24  1  0.55259400  0.08914500  0.80251700  1
  O  O25  1  0.43390000  0.92867700  0.69110300  1
  O  O26  1  0.04709400  0.50000000  0.41477800  1
  O  O27  1  0.50000000  0.41477800  0.04709400  1
  O  O28  1  0.55259400  0.91085500  0.19748300  1
  O  O29  1  0.50000000  0.41477800  0.95290600  1
  O  O30  1  0.43390000  0.07132300  0.30889700  1
  O  O31  1  0.41477800  0.50000000  0.04709400  1
  O  O32  1  0.08914500  0.19748300  0.44740600  1
  O  O33  1  0.41477800  0.50000000  0.95290600  1
  O  O34  1  0.92867700  0.30889700  0.56610000  1
  O  O35  1  0.50000000  0.58522200  0.04709400  1
  O  O36  1  0.91085500  0.80251700  0.44740600  1
  O  O37  1  0.50000000  0.58522200  0.95290600  1
  O  O38  1  0.07132300  0.69110300  0.56610000  1
  O  O39  1  0.95290600  0.50000000  0.41477800  1
  O  O40  1  0.58522200  0.50000000  0.04709400  1
  O  O41  1  0.19748300  0.55259400  0.91085500  1
  O  O42  1  0.58522200  0.50000000  0.95290600  1
  O  O43  1  0.30889700  0.43390000  0.07132300  1
  O  O44  1  0.80251700  0.55259400  0.08914500  1
  O  O45  1  0.69110300  0.43390000  0.92867700  1
  O  O46  1  0.54709400  0.00000000  0.91477800  1
  O  O47  1  0.45290600  0.00000000  0.91477800  1
  O  O48  1  0.54709400  0.91477800  0.00000000  1
  O  O49  1  0.45290600  0.91477800  0.00000000  1
  O  O50  1  0.54709400  0.00000000  0.08522200  1
  O  O51  1  0.45290600  0.00000000  0.08522200  1
  O  O52  1  0.54709400  0.08522200  0.00000000  1
  O  O53  1  0.45290600  0.08522200  0.00000000  1
  O  O54  1  0.91477800  0.54709400  0.00000000  1
  O  O55  1  0.04709400  0.41477800  0.50000000  1
  O  O56  1  0.91477800  0.45290600  0.00000000  1
  O  O57  1  0.00000000  0.54709400  0.91477800  1
  O  O58  1  0.00000000  0.45290600  0.91477800  1
  O  O59  1  0.08522200  0.54709400  0.00000000  1
  O  O60  1  0.08522200  0.45290600  0.00000000  1
  O  O61  1  0.00000000  0.54709400  0.08522200  1
  O  O62  1  0.00000000  0.45290600  0.08522200  1
  O  O63  1  0.95290600  0.41477800  0.50000000  1
  O  O64  1  0.00000000  0.91477800  0.54709400  1
  O  O65  1  0.00000000  0.91477800  0.45290600  1
  O  O66  1  0.91477800  0.00000000  0.54709400  1
  O  O67  1  0.91477800  0.00000000  0.45290600  1
  O  O68  1  0.00000000  0.08522200  0.54709400  1
  O  O69  1  0.00000000  0.08522200  0.45290600  1
  O  O70  1  0.08522200  0.00000000  0.54709400  1
  O  O71  1  0.08522200  0.00000000  0.45290600  1
  O  O72  1  0.04709400  0.50000000  0.58522200  1
