# generated using pymatgen
data_CuH2C8NO4F3
_symmetry_space_group_name_H-M   'P 1'
_cell_length_a   21.85130000
_cell_length_b   21.85130000
_cell_length_c   21.85130000
_cell_angle_alpha   90.00000000
_cell_angle_beta   90.00000000
_cell_angle_gamma   90.00000000
_symmetry_Int_Tables_number   1
_chemical_formula_structural   CuH2C8NO4F3
_chemical_formula_sum   'Cu12 H24 C96 N12 O48 F36'
_cell_volume   10433.54368353
_cell_formula_units_Z   12
loop_
 _symmetry_equiv_pos_site_id
 _symmetry_equiv_pos_as_xyz
  1  'x, y, z'
loop_
 _atom_site_type_symbol
 _atom_site_label
 _atom_site_symmetry_multiplicity
 _atom_site_fract_x
 _atom_site_fract_y
 _atom_site_fract_z
 _atom_site_occupancy
  Cu  Cu1  1  0.93924200  0.50000000  0.50000000  1
  Cu  Cu2  1  0.06075800  0.50000000  0.50000000  1
  Cu  Cu3  1  0.50000000  0.93924200  0.50000000  1
  Cu  Cu4  1  0.50000000  0.06075800  0.50000000  1
  Cu  Cu5  1  0.50000000  0.50000000  0.93924200  1
  Cu  Cu6  1  0.50000000  0.50000000  0.06075800  1
  Cu  Cu7  1  0.43924200  0.00000000  0.00000000  1
  Cu  Cu8  1  0.56075800  0.00000000  0.00000000  1
  Cu  Cu9  1  0.00000000  0.43924200  0.00000000  1
  Cu  Cu10  1  0.00000000  0.56075800  0.00000000  1
  Cu  Cu11  1  0.00000000  0.00000000  0.43924200  1
  Cu  Cu12  1  0.00000000  0.00000000  0.56075800  1
  H  H1  1  0.92921700  0.42800000  0.31348700  1
  H  H2  1  0.05785600  0.57489300  0.19634700  1
  H  H3  1  0.07078300  0.42800000  0.68651300  1
  H  H4  1  0.94214400  0.57489300  0.80365300  1
  H  H5  1  0.31348700  0.92921700  0.42800000  1
  H  H6  1  0.19634700  0.05785600  0.57489300  1
  H  H7  1  0.68651300  0.07078300  0.42800000  1
  H  H8  1  0.80365300  0.94214400  0.57489300  1
  H  H9  1  0.42800000  0.31348700  0.92921700  1
  H  H10  1  0.57489300  0.19634700  0.05785600  1
  H  H11  1  0.42800000  0.68651300  0.07078300  1
  H  H12  1  0.57489300  0.80365300  0.94214400  1
  H  H13  1  0.42800000  0.92921700  0.68651300  1
  H  H14  1  0.57489300  0.05785600  0.80365300  1
  H  H15  1  0.42800000  0.07078300  0.31348700  1
  H  H16  1  0.57489300  0.94214400  0.19634700  1
  H  H17  1  0.92921700  0.31348700  0.57200000  1
  H  H18  1  0.05785600  0.19634700  0.42510700  1
  H  H19  1  0.07078300  0.68651300  0.57200000  1
  H  H20  1  0.94214400  0.80365300  0.42510700  1
  H  H21  1  0.31348700  0.42800000  0.07078300  1
  H  H22  1  0.19634700  0.57489300  0.94214400  1
  H  H23  1  0.68651300  0.42800000  0.92921700  1
  H  H24  1  0.80365300  0.57489300  0.05785600  1
  C  C1  1  0.00000000  0.50000000  0.38458500  1
  C  C2  1  0.00000000  0.38458500  0.50000000  1
  C  C3  1  0.00000000  0.50000000  0.61541500  1
  C  C4  1  0.00000000  0.61541500  0.50000000  1
  C  C5  1  0.38458500  0.00000000  0.50000000  1
  C  C6  1  0.50000000  0.00000000  0.38458500  1
  C  C7  1  0.61541500  0.00000000  0.50000000  1
  C  C8  1  0.50000000  0.00000000  0.61541500  1
  C  C9  1  0.50000000  0.38458500  0.00000000  1
  C  C10  1  0.38458500  0.50000000  0.00000000  1
  C  C11  1  0.50000000  0.61541500  0.00000000  1
  C  C12  1  0.61541500  0.50000000  0.00000000  1
  C  C13  1  0.50000000  0.00000000  0.88458500  1
  C  C14  1  0.50000000  0.88458500  0.00000000  1
  C  C15  1  0.50000000  0.00000000  0.11541500  1
  C  C16  1  0.50000000  0.11541500  0.00000000  1
  C  C17  1  0.88458500  0.50000000  0.00000000  1
  C  C18  1  0.00000000  0.50000000  0.88458500  1
  C  C19  1  0.11541500  0.50000000  0.00000000  1
  C  C20  1  0.00000000  0.50000000  0.11541500  1
  C  C21  1  0.00000000  0.88458500  0.50000000  1
  C  C22  1  0.88458500  0.00000000  0.50000000  1
  C  C23  1  0.00000000  0.11541500  0.50000000  1
  C  C24  1  0.11541500  0.00000000  0.50000000  1
  C  C25  1  0.95431100  0.45989400  0.28583600  1
  C  C26  1  0.99410400  0.50233200  0.31447800  1
  C  C27  1  0.02787600  0.54291900  0.22040100  1
  C  C28  1  0.99345400  0.49923700  0.18708700  1
  C  C29  1  0.95552800  0.45761700  0.22275900  1
  C  C30  1  0.91417200  0.41480800  0.18989300  1
  C  C31  1  0.04568900  0.45989400  0.71416400  1
  C  C32  1  0.00589600  0.50233200  0.68552200  1
  C  C33  1  0.97212400  0.54291900  0.77959900  1
  C  C34  1  0.00654600  0.49923700  0.81291300  1
  C  C35  1  0.04447200  0.45761700  0.77724100  1
  C  C36  1  0.08582800  0.41480800  0.81010700  1
  C  C37  1  0.28583600  0.95431100  0.45989400  1
  C  C38  1  0.31447800  0.99410400  0.50233200  1
  C  C39  1  0.22040100  0.02787600  0.54291900  1
  C  C40  1  0.18708700  0.99345400  0.49923700  1
  C  C41  1  0.22275900  0.95552800  0.45761700  1
  C  C42  1  0.18989300  0.91417200  0.41480800  1
  C  C43  1  0.71416400  0.04568900  0.45989400  1
  C  C44  1  0.68552200  0.00589600  0.50233200  1
  C  C45  1  0.77959900  0.97212400  0.54291900  1
  C  C46  1  0.81291300  0.00654600  0.49923700  1
  C  C47  1  0.77724100  0.04447200  0.45761700  1
  C  C48  1  0.81010700  0.08582800  0.41480800  1
  C  C49  1  0.45989400  0.28583600  0.95431100  1
  C  C50  1  0.50233200  0.31447800  0.99410400  1
  C  C51  1  0.54291900  0.22040100  0.02787600  1
  C  C52  1  0.49923700  0.18708700  0.99345400  1
  C  C53  1  0.45761700  0.22275900  0.95552800  1
  C  C54  1  0.41480800  0.18989300  0.91417200  1
  C  C55  1  0.45989400  0.71416400  0.04568900  1
  C  C56  1  0.50233200  0.68552200  0.00589600  1
  C  C57  1  0.54291900  0.77959900  0.97212400  1
  C  C58  1  0.49923700  0.81291300  0.00654600  1
  C  C59  1  0.45761700  0.77724100  0.04447200  1
  C  C60  1  0.41480800  0.81010700  0.08582800  1
  C  C61  1  0.45989400  0.95431100  0.71416400  1
  C  C62  1  0.50233200  0.99410400  0.68552200  1
  C  C63  1  0.54291900  0.02787600  0.77959900  1
  C  C64  1  0.49923700  0.99345400  0.81291300  1
  C  C65  1  0.45761700  0.95552800  0.77724100  1
  C  C66  1  0.41480800  0.91417200  0.81010700  1
  C  C67  1  0.45989400  0.04568900  0.28583600  1
  C  C68  1  0.50233200  0.00589600  0.31447800  1
  C  C69  1  0.54291900  0.97212400  0.22040100  1
  C  C70  1  0.49923700  0.00654600  0.18708700  1
  C  C71  1  0.45761700  0.04447200  0.22275900  1
  C  C72  1  0.41480800  0.08582800  0.18989300  1
  C  C73  1  0.95431100  0.28583600  0.54010600  1
  C  C74  1  0.99410400  0.31447800  0.49766800  1
  C  C75  1  0.02787600  0.22040100  0.45708100  1
  C  C76  1  0.99345400  0.18708700  0.50076300  1
  C  C77  1  0.95552800  0.22275900  0.54238300  1
  C  C78  1  0.91417200  0.18989300  0.58519200  1
  C  C79  1  0.04568900  0.71416400  0.54010600  1
  C  C80  1  0.00589600  0.68552200  0.49766800  1
  C  C81  1  0.97212400  0.77959900  0.45708100  1
  C  C82  1  0.00654600  0.81291300  0.50076300  1
  C  C83  1  0.04447200  0.77724100  0.54238300  1
  C  C84  1  0.08582800  0.81010700  0.58519200  1
  C  C85  1  0.28583600  0.45989400  0.04568900  1
  C  C86  1  0.31447800  0.50233200  0.00589600  1
  C  C87  1  0.22040100  0.54291900  0.97212400  1
  C  C88  1  0.18708700  0.49923700  0.00654600  1
  C  C89  1  0.22275900  0.45761700  0.04447200  1
  C  C90  1  0.18989300  0.41480800  0.08582800  1
  C  C91  1  0.71416400  0.45989400  0.95431100  1
  C  C92  1  0.68552200  0.50233200  0.99410400  1
  C  C93  1  0.77959900  0.54291900  0.02787600  1
  C  C94  1  0.81291300  0.49923700  0.99345400  1
  C  C95  1  0.77724100  0.45761700  0.95552800  1
  C  C96  1  0.81010700  0.41480800  0.91417200  1
  N  N1  1  0.03288100  0.54197800  0.28169000  1
  N  N2  1  0.96711900  0.54197800  0.71831000  1
  N  N3  1  0.28169000  0.03288100  0.54197800  1
  N  N4  1  0.71831000  0.96711900  0.54197800  1
  N  N5  1  0.54197800  0.28169000  0.03288100  1
  N  N6  1  0.54197800  0.71831000  0.96711900  1
  N  N7  1  0.54197800  0.03288100  0.71831000  1
  N  N8  1  0.54197800  0.96711900  0.28169000  1
  N  N9  1  0.03288100  0.28169000  0.45802200  1
  N  N10  1  0.96711900  0.71831000  0.45802200  1
  N  N11  1  0.28169000  0.54197800  0.96711900  1
  N  N12  1  0.71831000  0.54197800  0.03288100  1
  O  O1  1  0.04835200  0.50000000  0.41250100  1
  O  O2  1  0.95164800  0.50000000  0.41250100  1
  O  O3  1  0.04835200  0.41250100  0.50000000  1
  O  O4  1  0.95164800  0.41250100  0.50000000  1
  O  O5  1  0.04835200  0.50000000  0.58749900  1
  O  O6  1  0.95164800  0.50000000  0.58749900  1
  O  O7  1  0.04835200  0.58749900  0.50000000  1
  O  O8  1  0.95164800  0.58749900  0.50000000  1
  O  O9  1  0.41250100  0.04835200  0.50000000  1
  O  O10  1  0.41250100  0.95164800  0.50000000  1
  O  O11  1  0.50000000  0.04835200  0.41250100  1
  O  O12  1  0.50000000  0.95164800  0.41250100  1
  O  O13  1  0.58749900  0.04835200  0.50000000  1
  O  O14  1  0.58749900  0.95164800  0.50000000  1
  O  O15  1  0.50000000  0.04835200  0.58749900  1
  O  O16  1  0.50000000  0.95164800  0.58749900  1
  O  O17  1  0.50000000  0.41250100  0.04835200  1
  O  O18  1  0.50000000  0.41250100  0.95164800  1
  O  O19  1  0.41250100  0.50000000  0.04835200  1
  O  O20  1  0.41250100  0.50000000  0.95164800  1
  O  O21  1  0.50000000  0.58749900  0.04835200  1
  O  O22  1  0.50000000  0.58749900  0.95164800  1
  O  O23  1  0.58749900  0.50000000  0.04835200  1
  O  O24  1  0.58749900  0.50000000  0.95164800  1
  O  O25  1  0.54835200  0.00000000  0.91250100  1
  O  O26  1  0.45164800  0.00000000  0.91250100  1
  O  O27  1  0.54835200  0.91250100  0.00000000  1
  O  O28  1  0.45164800  0.91250100  0.00000000  1
  O  O29  1  0.54835200  0.00000000  0.08749900  1
  O  O30  1  0.45164800  0.00000000  0.08749900  1
  O  O31  1  0.54835200  0.08749900  0.00000000  1
  O  O32  1  0.45164800  0.08749900  0.00000000  1
  O  O33  1  0.91250100  0.54835200  0.00000000  1
  O  O34  1  0.91250100  0.45164800  0.00000000  1
  O  O35  1  0.00000000  0.54835200  0.91250100  1
  O  O36  1  0.00000000  0.45164800  0.91250100  1
  O  O37  1  0.08749900  0.54835200  0.00000000  1
  O  O38  1  0.08749900  0.45164800  0.00000000  1
  O  O39  1  0.00000000  0.54835200  0.08749900  1
  O  O40  1  0.00000000  0.45164800  0.08749900  1
  O  O41  1  0.00000000  0.91250100  0.54835200  1
  O  O42  1  0.00000000  0.91250100  0.45164800  1
  O  O43  1  0.91250100  0.00000000  0.54835200  1
  O  O44  1  0.91250100  0.00000000  0.45164800  1
  O  O45  1  0.00000000  0.08749900  0.54835200  1
  O  O46  1  0.00000000  0.08749900  0.45164800  1
  O  O47  1  0.08749900  0.00000000  0.54835200  1
  O  O48  1  0.08749900  0.00000000  0.45164800  1
  F  F1  1  0.87952200  0.37952200  0.22609800  1
  F  F2  1  0.87052700  0.44343500  0.15522700  1
  F  F3  1  0.94385600  0.37400800  0.15350900  1
  F  F4  1  0.12047800  0.37952200  0.77390200  1
  F  F5  1  0.12947300  0.44343500  0.84477300  1
  F  F6  1  0.05614400  0.37400800  0.84649100  1
  F  F7  1  0.22609800  0.87952200  0.37952200  1
  F  F8  1  0.15522700  0.87052700  0.44343500  1
  F  F9  1  0.15350900  0.94385600  0.37400800  1
  F  F10  1  0.77390200  0.12047800  0.37952200  1
  F  F11  1  0.84477300  0.12947300  0.44343500  1
  F  F12  1  0.84649100  0.05614400  0.37400800  1
  F  F13  1  0.37952200  0.22609800  0.87952200  1
  F  F14  1  0.44343500  0.15522700  0.87052700  1
  F  F15  1  0.37400800  0.15350900  0.94385600  1
  F  F16  1  0.37952200  0.77390200  0.12047800  1
  F  F17  1  0.44343500  0.84477300  0.12947300  1
  F  F18  1  0.37400800  0.84649100  0.05614400  1
  F  F19  1  0.37952200  0.87952200  0.77390200  1
  F  F20  1  0.44343500  0.87052700  0.84477300  1
  F  F21  1  0.37400800  0.94385600  0.84649100  1
  F  F22  1  0.37952200  0.12047800  0.22609800  1
  F  F23  1  0.44343500  0.12947300  0.15522700  1
  F  F24  1  0.37400800  0.05614400  0.15350900  1
  F  F25  1  0.87952200  0.22609800  0.62047800  1
  F  F26  1  0.87052700  0.15522700  0.55656500  1
  F  F27  1  0.94385600  0.15350900  0.62599200  1
  F  F28  1  0.12047800  0.77390200  0.62047800  1
  F  F29  1  0.12947300  0.84477300  0.55656500  1
  F  F30  1  0.05614400  0.84649100  0.62599200  1
  F  F31  1  0.22609800  0.37952200  0.12047800  1
  F  F32  1  0.15522700  0.44343500  0.12947300  1
  F  F33  1  0.15350900  0.37400800  0.05614400  1
  F  F34  1  0.77390200  0.37952200  0.87952200  1
  F  F35  1  0.84477300  0.44343500  0.87052700  1
  F  F36  1  0.84649100  0.37400800  0.94385600  1
