# generated using pymatgen
data_CuH4C14BrClO6
_symmetry_space_group_name_H-M   'P 1'
_cell_length_a   22.56370000
_cell_length_b   22.56370000
_cell_length_c   22.56370000
_cell_angle_alpha   90.00000000
_cell_angle_beta   90.00000000
_cell_angle_gamma   90.00000000
_symmetry_Int_Tables_number   1
_chemical_formula_structural   CuH4C14BrClO6
_chemical_formula_sum   'Cu12 H48 C168 Br12 Cl12 O72'
_cell_volume   11487.64352755
_cell_formula_units_Z   12
loop_
 _symmetry_equiv_pos_site_id
 _symmetry_equiv_pos_as_xyz
  1  'x, y, z'
loop_
 _atom_site_type_symbol
 _atom_site_label
 _atom_site_symmetry_multiplicity
 _atom_site_fract_x
 _atom_site_fract_y
 _atom_site_fract_z
 _atom_site_occupancy
  Cu  Cu1  1  0.94116000  0.50000000  0.50000000  1
  Cu  Cu2  1  0.05884000  0.50000000  0.50000000  1
  Cu  Cu3  1  0.50000000  0.94116000  0.50000000  1
  Cu  Cu4  1  0.50000000  0.05884000  0.50000000  1
  Cu  Cu5  1  0.50000000  0.50000000  0.94116000  1
  Cu  Cu6  1  0.50000000  0.50000000  0.05884000  1
  Cu  Cu7  1  0.44116000  0.00000000  0.00000000  1
  Cu  Cu8  1  0.55884000  0.00000000  0.00000000  1
  Cu  Cu9  1  0.00000000  0.44116000  0.00000000  1
  Cu  Cu10  1  0.00000000  0.55884000  0.00000000  1
  Cu  Cu11  1  0.00000000  0.00000000  0.44116000  1
  Cu  Cu12  1  0.00000000  0.00000000  0.55884000  1
  H  H1  1  0.10615200  0.45834400  0.61261500  1
  H  H2  1  0.20123800  0.29876200  0.62332600  1
  H  H3  1  0.16130500  0.27433000  0.72098500  1
  H  H4  1  0.08012000  0.33731700  0.76004900  1
  H  H5  1  0.38738500  0.89384800  0.45834400  1
  H  H6  1  0.37667400  0.79876200  0.29876200  1
  H  H7  1  0.27901500  0.83869500  0.27433000  1
  H  H8  1  0.23995100  0.91988000  0.33731700  1
  H  H9  1  0.61261500  0.10615200  0.45834400  1
  H  H10  1  0.62332600  0.20123800  0.29876200  1
  H  H11  1  0.72098500  0.16130500  0.27433000  1
  H  H12  1  0.76004900  0.08012000  0.33731700  1
  H  H13  1  0.45834400  0.38738500  0.89384800  1
  H  H14  1  0.29876200  0.37667400  0.79876200  1
  H  H15  1  0.27433000  0.27901500  0.83869500  1
  H  H16  1  0.33731700  0.23995100  0.91988000  1
  H  H17  1  0.45834400  0.61261500  0.10615200  1
  H  H18  1  0.29876200  0.62332600  0.20123800  1
  H  H19  1  0.27433000  0.72098500  0.16130500  1
  H  H20  1  0.33731700  0.76004900  0.08012000  1
  H  H21  1  0.45834400  0.89384800  0.61261500  1
  H  H22  1  0.29876200  0.79876200  0.62332600  1
  H  H23  1  0.27433000  0.83869500  0.72098500  1
  H  H24  1  0.33731700  0.91988000  0.76004900  1
  H  H25  1  0.45834400  0.10615200  0.38738500  1
  H  H26  1  0.29876200  0.20123800  0.37667400  1
  H  H27  1  0.27433000  0.16130500  0.27901500  1
  H  H28  1  0.33731700  0.08012000  0.23995100  1
  H  H29  1  0.89384800  0.38738500  0.54165600  1
  H  H30  1  0.79876200  0.37667400  0.70123800  1
  H  H31  1  0.83869500  0.27901500  0.72567000  1
  H  H32  1  0.91988000  0.23995100  0.66268300  1
  H  H33  1  0.10615200  0.61261500  0.54165600  1
  H  H34  1  0.20123800  0.62332600  0.70123800  1
  H  H35  1  0.16130500  0.72098500  0.72567000  1
  H  H36  1  0.08012000  0.76004900  0.66268300  1
  H  H37  1  0.38738500  0.45834400  0.10615200  1
  H  H38  1  0.37667400  0.29876200  0.20123800  1
  H  H39  1  0.27901500  0.27433000  0.16130500  1
  H  H40  1  0.23995100  0.33731700  0.08012000  1
  H  H41  1  0.61261500  0.45834400  0.89384800  1
  H  H42  1  0.62332600  0.29876200  0.79876200  1
  H  H43  1  0.72098500  0.27433000  0.83869500  1
  H  H44  1  0.76004900  0.33731700  0.91988000  1
  H  H45  1  0.89384800  0.45834400  0.38738500  1
  H  H46  1  0.79876200  0.29876200  0.37667400  1
  H  H47  1  0.83869500  0.27433000  0.27901500  1
  H  H48  1  0.91988000  0.33731700  0.23995100  1
  C  C1  1  0.96508200  0.45095400  0.28656000  1
  C  C2  1  0.99314400  0.49329700  0.31913500  1
  C  C3  1  0.01750100  0.54529300  0.28257800  1
  C  C4  1  0.08029800  0.40154000  0.68881100  1
  C  C5  1  0.11083500  0.41721400  0.63524600  1
  C  C6  1  0.15549800  0.38114700  0.61284800  1
  C  C7  1  0.17003900  0.33016400  0.64176300  1
  C  C8  1  0.14576700  0.31653300  0.69643000  1
  C  C9  1  0.10095500  0.35055400  0.71790000  1
  C  C10  1  0.00000000  0.61177100  0.50000000  1
  C  C11  1  0.98232600  0.55262900  0.78640800  1
  C  C12  1  0.00252700  0.50766000  0.82082600  1
  C  C13  1  0.03329400  0.45760300  0.78622500  1
  C  C14  1  0.03491800  0.45095400  0.71344000  1
  C  C15  1  0.00685600  0.49329700  0.68086500  1
  C  C16  1  0.98249900  0.54529300  0.71742200  1
  C  C17  1  0.31118900  0.91970200  0.40154000  1
  C  C18  1  0.36475400  0.88916500  0.41721400  1
  C  C19  1  0.38715200  0.84450200  0.38114700  1
  C  C20  1  0.35823700  0.82996100  0.33016400  1
  C  C21  1  0.30357000  0.85423300  0.31653300  1
  C  C22  1  0.28210000  0.89904500  0.35055400  1
  C  C23  1  0.21359200  0.01767400  0.55262900  1
  C  C24  1  0.17917400  0.99747300  0.50766000  1
  C  C25  1  0.21377500  0.96670600  0.45760300  1
  C  C26  1  0.28656000  0.96508200  0.45095400  1
  C  C27  1  0.31913500  0.99314400  0.49329700  1
  C  C28  1  0.28257800  0.01750100  0.54529300  1
  C  C29  1  0.68881100  0.08029800  0.40154000  1
  C  C30  1  0.63524600  0.11083500  0.41721400  1
  C  C31  1  0.61284800  0.15549800  0.38114700  1
  C  C32  1  0.64176300  0.17003900  0.33016400  1
  C  C33  1  0.69643000  0.14576700  0.31653300  1
  C  C34  1  0.71790000  0.10095500  0.35055400  1
  C  C35  1  0.78640800  0.98232600  0.55262900  1
  C  C36  1  0.82082600  0.00252700  0.50766000  1
  C  C37  1  0.78622500  0.03329400  0.45760300  1
  C  C38  1  0.38822900  0.00000000  0.50000000  1
  C  C39  1  0.71344000  0.03491800  0.45095400  1
  C  C40  1  0.68086500  0.00685600  0.49329700  1
  C  C41  1  0.71742200  0.98249900  0.54529300  1
  C  C42  1  0.40154000  0.31118900  0.91970200  1
  C  C43  1  0.41721400  0.36475400  0.88916500  1
  C  C44  1  0.38114700  0.38715200  0.84450200  1
  C  C45  1  0.33016400  0.35823700  0.82996100  1
  C  C46  1  0.31653300  0.30357000  0.85423300  1
  C  C47  1  0.35055400  0.28210000  0.89904500  1
  C  C48  1  0.55262900  0.21359200  0.01767400  1
  C  C49  1  0.50766000  0.17917400  0.99747300  1
  C  C50  1  0.45760300  0.21377500  0.96670600  1
  C  C51  1  0.45095400  0.28656000  0.96508200  1
  C  C52  1  0.49329700  0.31913500  0.99314400  1
  C  C53  1  0.54529300  0.28257800  0.01750100  1
  C  C54  1  0.40154000  0.68881100  0.08029800  1
  C  C55  1  0.41721400  0.63524600  0.11083500  1
  C  C56  1  0.38114700  0.61284800  0.15549800  1
  C  C57  1  0.33016400  0.64176300  0.17003900  1
  C  C58  1  0.31653300  0.69643000  0.14576700  1
  C  C59  1  0.35055400  0.71790000  0.10095500  1
  C  C60  1  0.50000000  0.00000000  0.38822900  1
  C  C61  1  0.55262900  0.78640800  0.98232600  1
  C  C62  1  0.50766000  0.82082600  0.00252700  1
  C  C63  1  0.45760300  0.78622500  0.03329400  1
  C  C64  1  0.00000000  0.50000000  0.38822900  1
  C  C65  1  0.45095400  0.71344000  0.03491800  1
  C  C66  1  0.49329700  0.68086500  0.00685600  1
  C  C67  1  0.54529300  0.71742200  0.98249900  1
  C  C68  1  0.40154000  0.91970200  0.68881100  1
  C  C69  1  0.41721400  0.88916500  0.63524600  1
  C  C70  1  0.38114700  0.84450200  0.61284800  1
  C  C71  1  0.33016400  0.82996100  0.64176300  1
  C  C72  1  0.31653300  0.85423300  0.69643000  1
  C  C73  1  0.35055400  0.89904500  0.71790000  1
  C  C74  1  0.55262900  0.01767400  0.78640800  1
  C  C75  1  0.50766000  0.99747300  0.82082600  1
  C  C76  1  0.45760300  0.96670600  0.78622500  1
  C  C77  1  0.61177100  0.00000000  0.50000000  1
  C  C78  1  0.45095400  0.96508200  0.71344000  1
  C  C79  1  0.49329700  0.99314400  0.68086500  1
  C  C80  1  0.54529300  0.01750100  0.71742200  1
  C  C81  1  0.40154000  0.08029800  0.31118900  1
  C  C82  1  0.41721400  0.11083500  0.36475400  1
  C  C83  1  0.38114700  0.15549800  0.38715200  1
  C  C84  1  0.33016400  0.17003900  0.35823700  1
  C  C85  1  0.31653300  0.14576700  0.30357000  1
  C  C86  1  0.35055400  0.10095500  0.28210000  1
  C  C87  1  0.55262900  0.98232600  0.21359200  1
  C  C88  1  0.50766000  0.00252700  0.17917400  1
  C  C89  1  0.45760300  0.03329400  0.21377500  1
  C  C90  1  0.45095400  0.03491800  0.28656000  1
  C  C91  1  0.49329700  0.00685600  0.31913500  1
  C  C92  1  0.54529300  0.98249900  0.28257800  1
  C  C93  1  0.91970200  0.31118900  0.59846000  1
  C  C94  1  0.88916500  0.36475400  0.58278600  1
  C  C95  1  0.84450200  0.38715200  0.61885300  1
  C  C96  1  0.82996100  0.35823700  0.66983600  1
  C  C97  1  0.85423300  0.30357000  0.68346700  1
  C  C98  1  0.89904500  0.28210000  0.64944600  1
  C  C99  1  0.50000000  0.00000000  0.61177100  1
  C  C100  1  0.01767400  0.21359200  0.44737100  1
  C  C101  1  0.99747300  0.17917400  0.49234000  1
  C  C102  1  0.96670600  0.21377500  0.54239700  1
  C  C103  1  0.96508200  0.28656000  0.54904600  1
  C  C104  1  0.99314400  0.31913500  0.50670300  1
  C  C105  1  0.01750100  0.28257800  0.45470700  1
  C  C106  1  0.08029800  0.68881100  0.59846000  1
  C  C107  1  0.11083500  0.63524600  0.58278600  1
  C  C108  1  0.15549800  0.61284800  0.61885300  1
  C  C109  1  0.17003900  0.64176300  0.66983600  1
  C  C110  1  0.14576700  0.69643000  0.68346700  1
  C  C111  1  0.10095500  0.71790000  0.64944600  1
  C  C112  1  0.98232600  0.78640800  0.44737100  1
  C  C113  1  0.00252700  0.82082600  0.49234000  1
  C  C114  1  0.03329400  0.78622500  0.54239700  1
  C  C115  1  0.03491800  0.71344000  0.54904600  1
  C  C116  1  0.00685600  0.68086500  0.50670300  1
  C  C117  1  0.98249900  0.71742200  0.45470700  1
  C  C118  1  0.31118900  0.40154000  0.08029800  1
  C  C119  1  0.36475400  0.41721400  0.11083500  1
  C  C120  1  0.38715200  0.38114700  0.15549800  1
  C  C121  1  0.35823700  0.33016400  0.17003900  1
  C  C122  1  0.30357000  0.31653300  0.14576700  1
  C  C123  1  0.28210000  0.35055400  0.10095500  1
  C  C124  1  0.21359200  0.55262900  0.98232600  1
  C  C125  1  0.17917400  0.50766000  0.00252700  1
  C  C126  1  0.21377500  0.45760300  0.03329400  1
  C  C127  1  0.50000000  0.38822900  0.00000000  1
  C  C128  1  0.28656000  0.45095400  0.03491800  1
  C  C129  1  0.31913500  0.49329700  0.00685600  1
  C  C130  1  0.28257800  0.54529300  0.98249900  1
  C  C131  1  0.68881100  0.40154000  0.91970200  1
  C  C132  1  0.63524600  0.41721400  0.88916500  1
  C  C133  1  0.61284800  0.38114700  0.84450200  1
  C  C134  1  0.64176300  0.33016400  0.82996100  1
  C  C135  1  0.69643000  0.31653300  0.85423300  1
  C  C136  1  0.71790000  0.35055400  0.89904500  1
  C  C137  1  0.78640800  0.55262900  0.01767400  1
  C  C138  1  0.82082600  0.50766000  0.99747300  1
  C  C139  1  0.78622500  0.45760300  0.96670600  1
  C  C140  1  0.71344000  0.45095400  0.96508200  1
  C  C141  1  0.68086500  0.49329700  0.99314400  1
  C  C142  1  0.71742200  0.54529300  0.01750100  1
  C  C143  1  0.38822900  0.50000000  0.00000000  1
  C  C144  1  0.50000000  0.61177100  0.00000000  1
  C  C145  1  0.61177100  0.50000000  0.00000000  1
  C  C146  1  0.50000000  0.00000000  0.88822900  1
  C  C147  1  0.50000000  0.88822900  0.00000000  1
  C  C148  1  0.00000000  0.38822900  0.50000000  1
  C  C149  1  0.50000000  0.00000000  0.11177100  1
  C  C150  1  0.50000000  0.11177100  0.00000000  1
  C  C151  1  0.88822900  0.50000000  0.00000000  1
  C  C152  1  0.00000000  0.50000000  0.88822900  1
  C  C153  1  0.11177100  0.50000000  0.00000000  1
  C  C154  1  0.00000000  0.50000000  0.11177100  1
  C  C155  1  0.00000000  0.88822900  0.50000000  1
  C  C156  1  0.88822900  0.00000000  0.50000000  1
  C  C157  1  0.00000000  0.11177100  0.50000000  1
  C  C158  1  0.00000000  0.50000000  0.61177100  1
  C  C159  1  0.11177100  0.00000000  0.50000000  1
  C  C160  1  0.91970200  0.40154000  0.31118900  1
  C  C161  1  0.88916500  0.41721400  0.36475400  1
  C  C162  1  0.84450200  0.38114700  0.38715200  1
  C  C163  1  0.82996100  0.33016400  0.35823700  1
  C  C164  1  0.85423300  0.31653300  0.30357000  1
  C  C165  1  0.89904500  0.35055400  0.28210000  1
  C  C166  1  0.01767400  0.55262900  0.21359200  1
  C  C167  1  0.99747300  0.50766000  0.17917400  1
  C  C168  1  0.96670600  0.45760300  0.21377500  1
  Br  Br1  1  0.94470800  0.61699300  0.81709900  1
  Br  Br2  1  0.18290100  0.05529200  0.61699300  1
  Br  Br3  1  0.81709900  0.94470800  0.61699300  1
  Br  Br4  1  0.61699300  0.18290100  0.05529200  1
  Br  Br5  1  0.61699300  0.81709900  0.94470800  1
  Br  Br6  1  0.61699300  0.05529200  0.81709900  1
  Br  Br7  1  0.61699300  0.94470800  0.18290100  1
  Br  Br8  1  0.05529200  0.18290100  0.38300700  1
  Br  Br9  1  0.94470800  0.81709900  0.38300700  1
  Br  Br10  1  0.18290100  0.61699300  0.94470800  1
  Br  Br11  1  0.81709900  0.61699300  0.05529200  1
  Br  Br12  1  0.05529200  0.61699300  0.18290100  1
  Cl  Cl1  1  0.19001300  0.39663000  0.54474900  1
  Cl  Cl2  1  0.45525100  0.80998700  0.39663000  1
  Cl  Cl3  1  0.54474900  0.19001300  0.39663000  1
  Cl  Cl4  1  0.39663000  0.45525100  0.80998700  1
  Cl  Cl5  1  0.39663000  0.54474900  0.19001300  1
  Cl  Cl6  1  0.39663000  0.80998700  0.54474900  1
  Cl  Cl7  1  0.39663000  0.19001300  0.45525100  1
  Cl  Cl8  1  0.80998700  0.45525100  0.60337000  1
  Cl  Cl9  1  0.19001300  0.54474900  0.60337000  1
  Cl  Cl10  1  0.45525100  0.39663000  0.19001300  1
  Cl  Cl11  1  0.54474900  0.39663000  0.80998700  1
  Cl  Cl12  1  0.80998700  0.39663000  0.45525100  1
  O  O1  1  0.95317500  0.50000000  0.58473600  1
  O  O2  1  0.03847600  0.58744600  0.30924800  1
  O  O3  1  0.05638700  0.41602400  0.81240500  1
  O  O4  1  0.04682500  0.58473600  0.50000000  1
  O  O5  1  0.96152400  0.58744600  0.69075200  1
  O  O6  1  0.95317500  0.58473600  0.50000000  1
  O  O7  1  0.18759500  0.94361300  0.41602400  1
  O  O8  1  0.30924800  0.03847600  0.58744600  1
  O  O9  1  0.81240500  0.05638700  0.41602400  1
  O  O10  1  0.69075200  0.96152400  0.58744600  1
  O  O11  1  0.41526400  0.04682500  0.50000000  1
  O  O12  1  0.41602400  0.18759500  0.94361300  1
  O  O13  1  0.41526400  0.95317500  0.50000000  1
  O  O14  1  0.58744600  0.30924800  0.03847600  1
  O  O15  1  0.41602400  0.81240500  0.05638700  1
  O  O16  1  0.50000000  0.04682500  0.41526400  1
  O  O17  1  0.58744600  0.69075200  0.96152400  1
  O  O18  1  0.50000000  0.95317500  0.41526400  1
  O  O19  1  0.41602400  0.94361300  0.81240500  1
  O  O20  1  0.58744600  0.03847600  0.69075200  1
  O  O21  1  0.58473600  0.04682500  0.50000000  1
  O  O22  1  0.41602400  0.05638700  0.18759500  1
  O  O23  1  0.58473600  0.95317500  0.50000000  1
  O  O24  1  0.58744600  0.96152400  0.30924800  1
  O  O25  1  0.94361300  0.18759500  0.58397600  1
  O  O26  1  0.50000000  0.04682500  0.58473600  1
  O  O27  1  0.03847600  0.30924800  0.41255400  1
  O  O28  1  0.50000000  0.95317500  0.58473600  1
  O  O29  1  0.05638700  0.81240500  0.58397600  1
  O  O30  1  0.96152400  0.69075200  0.41255400  1
  O  O31  1  0.18759500  0.41602400  0.05638700  1
  O  O32  1  0.04682500  0.50000000  0.41526400  1
  O  O33  1  0.30924800  0.58744600  0.96152400  1
  O  O34  1  0.50000000  0.41526400  0.04682500  1
  O  O35  1  0.81240500  0.41602400  0.94361300  1
  O  O36  1  0.50000000  0.41526400  0.95317500  1
  O  O37  1  0.69075200  0.58744600  0.03847600  1
  O  O38  1  0.41526400  0.50000000  0.04682500  1
  O  O39  1  0.41526400  0.50000000  0.95317500  1
  O  O40  1  0.50000000  0.58473600  0.04682500  1
  O  O41  1  0.50000000  0.58473600  0.95317500  1
  O  O42  1  0.95317500  0.50000000  0.41526400  1
  O  O43  1  0.58473600  0.50000000  0.04682500  1
  O  O44  1  0.58473600  0.50000000  0.95317500  1
  O  O45  1  0.54682500  0.00000000  0.91526400  1
  O  O46  1  0.45317500  0.00000000  0.91526400  1
  O  O47  1  0.54682500  0.91526400  0.00000000  1
  O  O48  1  0.45317500  0.91526400  0.00000000  1
  O  O49  1  0.54682500  0.00000000  0.08473600  1
  O  O50  1  0.45317500  0.00000000  0.08473600  1
  O  O51  1  0.54682500  0.08473600  0.00000000  1
  O  O52  1  0.45317500  0.08473600  0.00000000  1
  O  O53  1  0.91526400  0.54682500  0.00000000  1
  O  O54  1  0.04682500  0.41526400  0.50000000  1
  O  O55  1  0.91526400  0.45317500  0.00000000  1
  O  O56  1  0.00000000  0.54682500  0.91526400  1
  O  O57  1  0.00000000  0.45317500  0.91526400  1
  O  O58  1  0.08473600  0.54682500  0.00000000  1
  O  O59  1  0.08473600  0.45317500  0.00000000  1
  O  O60  1  0.00000000  0.54682500  0.08473600  1
  O  O61  1  0.00000000  0.45317500  0.08473600  1
  O  O62  1  0.95317500  0.41526400  0.50000000  1
  O  O63  1  0.00000000  0.91526400  0.54682500  1
  O  O64  1  0.00000000  0.91526400  0.45317500  1
  O  O65  1  0.91526400  0.00000000  0.54682500  1
  O  O66  1  0.91526400  0.00000000  0.45317500  1
  O  O67  1  0.00000000  0.08473600  0.54682500  1
  O  O68  1  0.00000000  0.08473600  0.45317500  1
  O  O69  1  0.08473600  0.00000000  0.54682500  1
  O  O70  1  0.08473600  0.00000000  0.45317500  1
  O  O71  1  0.04682500  0.50000000  0.58473600  1
  O  O72  1  0.94361300  0.41602400  0.18759500  1
