# generated using pymatgen
data_CuH9C15NClO5F
_symmetry_space_group_name_H-M   'P 1'
_cell_length_a   11.03700000
_cell_length_b   11.03700000
_cell_length_c   22.07400000
_cell_angle_alpha   90.00000000
_cell_angle_beta   90.00000000
_cell_angle_gamma   90.00000000
_symmetry_Int_Tables_number   1
_chemical_formula_structural   CuH9C15NClO5F
_chemical_formula_sum   'Cu4 H36 C60 N4 Cl4 O20 F4'
_cell_volume   2688.95245531
_cell_formula_units_Z   4
loop_
 _symmetry_equiv_pos_site_id
 _symmetry_equiv_pos_as_xyz
  1  'x, y, z'
loop_
 _atom_site_type_symbol
 _atom_site_label
 _atom_site_symmetry_multiplicity
 _atom_site_fract_x
 _atom_site_fract_y
 _atom_site_fract_z
 _atom_site_occupancy
  Cu  Cu1  1  0.87971000  0.00000000  0.00000000  1
  Cu  Cu2  1  0.12029000  0.00000000  0.00000000  1
  Cu  Cu3  1  0.00000000  0.87971000  0.50000000  1
  Cu  Cu4  1  0.00000000  0.12029000  0.50000000  1
  H  H1  1  0.25063900  0.93963700  0.64569300  1
  H  H2  1  0.27283900  0.50498000  0.71328000  1
  H  H3  1  0.13140500  0.64526500  0.75712600  1
  H  H4  1  0.51357200  0.82991400  0.59413000  1
  H  H5  1  0.37537400  0.89129300  0.56322700  1
  H  H6  1  0.41905900  0.75079000  0.54203600  1
  H  H7  1  0.12371100  0.85014500  0.85627300  1
  H  H8  1  0.92397200  0.23298400  0.83332900  1
  H  H9  1  0.84267300  0.24071000  0.76283900  1
  H  H10  1  0.06036300  0.25063900  0.14569300  1
  H  H11  1  0.49502000  0.27283900  0.21328000  1
  H  H12  1  0.35473500  0.13140500  0.25712600  1
  H  H13  1  0.17008600  0.51357200  0.09413000  1
  H  H14  1  0.10870700  0.37537400  0.06322700  1
  H  H15  1  0.24921000  0.41905900  0.04203600  1
  H  H16  1  0.14985500  0.12371100  0.35627300  1
  H  H17  1  0.76701600  0.92397200  0.33333333  1
  H  H18  1  0.75929000  0.84267300  0.26283900  1
  H  H19  1  0.78008900  0.29138500  0.06727300  1
  H  H20  1  0.45704100  0.42656000  0.92144700  1
  H  H21  1  0.65624700  0.51425300  0.92104100  1
  H  H22  1  0.51658100  0.18826100  0.12144100  1
  H  H23  1  0.65770400  0.12645400  0.09428100  1
  H  H24  1  0.52746200  0.08407300  0.06005100  1
  H  H25  1  0.80656000  0.71254700  0.99075700  1
  H  H26  1  0.21850500  0.66666667  0.05549200  1
  H  H27  1  0.28145500  0.52567700  0.02948100  1
  H  H28  1  0.70861500  0.78008900  0.56727300  1
  H  H29  1  0.57344000  0.45704100  0.42144700  1
  H  H30  1  0.48574700  0.65624700  0.42104100  1
  H  H31  1  0.81173900  0.51658100  0.62144100  1
  H  H32  1  0.87354600  0.65770400  0.59428100  1
  H  H33  1  0.91592700  0.52746200  0.56005100  1
  H  H34  1  0.28745300  0.80656000  0.49075700  1
  H  H35  1  0.33333333  0.21850500  0.55549200  1
  H  H36  1  0.47432300  0.28145500  0.52948100  1
  C  C1  1  0.00000000  0.00000000  0.88575000  1
  C  C2  1  0.00000000  0.77149900  0.00000000  1
  C  C3  1  0.00000000  0.00000000  0.11425000  1
  C  C4  1  0.00000000  0.22850100  0.00000000  1
  C  C5  1  0.00000000  0.00000000  0.38575000  1
  C  C6  1  0.22850100  0.00000000  0.50000000  1
  C  C7  1  0.00000000  0.00000000  0.61425000  1
  C  C8  1  0.77149900  0.00000000  0.50000000  1
  C  C9  1  0.16065900  0.80224900  0.69601000  1
  C  C10  1  0.25499700  0.84104300  0.65626800  1
  C  C11  1  0.33873500  0.76019200  0.62986200  1
  C  C12  1  0.34597800  0.64251400  0.65287500  1
  C  C13  1  0.26526200  0.60048400  0.69777400  1
  C  C14  1  0.17934100  0.68254800  0.71922000  1
  C  C15  1  0.41786000  0.80855900  0.58144300  1
  C  C16  1  0.07208400  0.89597600  0.71832900  1
  C  C17  1  0.01164200  0.99185300  0.68570600  1
  C  C18  1  0.93591900  0.07725800  0.77494700  1
  C  C19  1  0.99153500  0.99041300  0.81465100  1
  C  C20  1  0.05256000  0.90245200  0.78210500  1
  C  C21  1  0.86539900  0.18596600  0.80210900  1
  C  C22  1  0.19775100  0.16065900  0.19601000  1
  C  C23  1  0.15895700  0.25499700  0.15626800  1
  C  C24  1  0.23980800  0.33873500  0.12986200  1
  C  C25  1  0.35748600  0.34597800  0.15287500  1
  C  C26  1  0.39951600  0.26526200  0.19777400  1
  C  C27  1  0.31745200  0.17934100  0.21922000  1
  C  C28  1  0.19144100  0.41786000  0.08144300  1
  C  C29  1  0.10402400  0.07208400  0.21832900  1
  C  C30  1  0.00814700  0.01164200  0.18570600  1
  C  C31  1  0.92274200  0.93591900  0.27494700  1
  C  C32  1  0.00958700  0.99153500  0.31465100  1
  C  C33  1  0.09754800  0.05256000  0.28210500  1
  C  C34  1  0.81403400  0.86539900  0.30210900  1
  C  C35  1  0.74656600  0.39201900  0.98688600  1
  C  C36  1  0.70729100  0.31253700  0.03395500  1
  C  C37  1  0.59090900  0.25972400  0.03497600  1
  C  C38  1  0.50257600  0.30575100  0.99593200  1
  C  C39  1  0.52993100  0.39554900  0.95253400  1
  C  C40  1  0.64871400  0.43844000  0.95117100  1
  C  C41  1  0.56915900  0.16288700  0.08005100  1
  C  C42  1  0.87547200  0.43665900  0.98870700  1
  C  C43  1  0.98600700  0.37141100  0.00123600  1
  C  C44  1  0.09994200  0.54989400  0.00465900  1
  C  C45  1  0.99920700  0.62930100  0.99361800  1
  C  C46  1  0.89385700  0.56420900  0.98409400  1
  C  C47  1  0.22667500  0.60421900  0.01816000  1
  C  C48  1  0.60798100  0.74656600  0.48688600  1
  C  C49  1  0.68746300  0.70729100  0.53395500  1
  C  C50  1  0.74027600  0.59090900  0.53497600  1
  C  C51  1  0.69424900  0.50257600  0.49593200  1
  C  C52  1  0.60445100  0.52993100  0.45253400  1
  C  C53  1  0.56156000  0.64871400  0.45117100  1
  C  C54  1  0.83711300  0.56915900  0.58005100  1
  C  C55  1  0.56334100  0.87547200  0.48870700  1
  C  C56  1  0.62858900  0.98600700  0.50123600  1
  C  C57  1  0.45010600  0.09994200  0.50465900  1
  C  C58  1  0.37069900  0.99920700  0.49361800  1
  C  C59  1  0.43579100  0.89385700  0.48409400  1
  C  C60  1  0.39578100  0.22667500  0.51816000  1
  N  N1  1  0.94959700  0.07512800  0.71746100  1
  N  N2  1  0.92487200  0.94959700  0.21746100  1
  N  N3  1  0.08876400  0.43492100  0.00874100  1
  N  N4  1  0.56507900  0.08876400  0.50874100  1
  Cl  Cl1  1  0.73005300  0.13073700  0.83334800  1
  Cl  Cl2  1  0.86926300  0.73005300  0.33333333  1
  Cl  Cl3  1  0.28332600  0.66666667  0.95078200  1
  Cl  Cl4  1  0.33333333  0.28332600  0.45078200  1
  O  O1  1  0.09572800  0.00000000  0.91338400  1
  O  O2  1  0.90427200  0.00000000  0.91338400  1
  O  O3  1  0.09572800  0.82676800  0.00000000  1
  O  O4  1  0.90427200  0.82676800  0.00000000  1
  O  O5  1  0.09572800  0.00000000  0.08661600  1
  O  O6  1  0.90427200  0.00000000  0.08661600  1
  O  O7  1  0.09572800  0.17323200  0.00000000  1
  O  O8  1  0.90427200  0.17323200  0.00000000  1
  O  O9  1  0.00000000  0.09572800  0.41338400  1
  O  O10  1  0.00000000  0.90427200  0.41338400  1
  O  O11  1  0.17323200  0.09572800  0.50000000  1
  O  O12  1  0.17323200  0.90427200  0.50000000  1
  O  O13  1  0.00000000  0.09572800  0.58661600  1
  O  O14  1  0.00000000  0.90427200  0.58661600  1
  O  O15  1  0.82676800  0.09572800  0.50000000  1
  O  O16  1  0.82676800  0.90427200  0.50000000  1
  O  O17  1  0.11793100  0.81940300  0.81685100  1
  O  O18  1  0.18059700  0.11793100  0.31685100  1
  O  O19  1  0.78890900  0.63370100  0.97784400  1
  O  O20  1  0.36629900  0.78890900  0.47784400  1
  F  F1  1  0.43447600  0.56552400  0.63444900  1
  F  F2  1  0.43447600  0.43447600  0.13444900  1
  F  F3  1  0.38555800  0.26889900  0.00000000  1
  F  F4  1  0.73110100  0.38555800  0.50000000  1
