# Generated by REPEAT Assigner based on pymatgen
data_DB13-nbo-Syn027452
_audit_creation_date              2022-05-24
_audit_creation_method            REPEAT_Assigner
_cell_length_a                    22.428500
_cell_length_b                    22.428500
_cell_length_c                    22.428500
_cell_angle_alpha                 90.000000
_cell_angle_beta                  90.000000
_cell_angle_gamma                 90.000000
_cell_volume                      11282.379086
_symmetry_space_group_name_H-M    P1
_symmetry_Int_Tables_number       1
loop_
    _symmetry_equiv_pos_site_id
    _symmetry_equiv_pos_as_xyz
    1  x,y,z
loop_
    _atom_site_type_symbol
    _atom_site_label
    _atom_site_fract_x
    _atom_site_fract_y
    _atom_site_fract_z
    _atom_type_partial_charge
    C   C1    0.999960  0.498740  0.179540  -0.288488
    C   C2    0.952421  0.464722  0.216233  0.562572
    C   C3    0.095841  0.410857  0.686879  0.331618
    C   C4    0.148511  0.395793  0.718612  -0.399874
    C   C5    0.187257  0.353170  0.693704  0.378009
    C   C6    0.176016  0.326111  0.640169  -0.386020
    C   C7    0.122202  0.337099  0.610110  0.393841
    C   C8    0.082505  0.376220  0.636028  -0.479879
    C   C9    0.000000  0.612444  0.500000  0.882741
    C   C10   0.046252  0.456471  0.713980  -0.240872
    C   C11   0.005073  0.490581  0.682354  -0.136117
    C   C12   0.956696  0.525760  0.720106  0.495135
    C   C13   0.955883  0.526730  0.789291  -0.167405
    C   C14   0.000040  0.498740  0.820460  -0.353073
    C   C15   0.047579  0.464722  0.783767  0.638759
    C   C16   0.313121  0.904159  0.410857  0.339659
    C   C17   0.281388  0.851489  0.395793  -0.459088
    C   C18   0.306296  0.812743  0.353170  0.486787
    C   C19   0.359831  0.823984  0.326111  -0.423667
    C   C20   0.389890  0.877798  0.337099  0.396415
    C   C21   0.363972  0.917495  0.376220  -0.491596
    C   C22   0.286020  0.953748  0.456471  -0.230204
    C   C23   0.317646  0.994927  0.490581  -0.146905
    C   C24   0.279894  0.043304  0.525760  0.514568
    C   C25   0.210709  0.044117  0.526730  -0.192572
    C   C26   0.179540  0.999960  0.498740  -0.326399
    C   C27   0.216233  0.952421  0.464722  0.611098
    C   C28   0.686879  0.095841  0.410857  0.258332
    C   C29   0.718612  0.148511  0.395793  -0.418916
    C   C30   0.693704  0.187257  0.353170  0.395856
    C   C31   0.640169  0.176016  0.326111  -0.396763
    C   C32   0.610110  0.122202  0.337099  0.366490
    C   C33   0.636028  0.082505  0.376220  -0.356902
    C   C34   0.713980  0.046252  0.456471  -0.108863
    C   C35   0.682354  0.005073  0.490581  -0.289155
    C   C36   0.720106  0.956696  0.525760  0.562380
    C   C37   0.789291  0.955883  0.526730  -0.217772
    C   C38   0.387556  0.000000  0.500000  0.788568
    C   C39   0.820460  0.000040  0.498740  -0.278045
    C   C40   0.783767  0.047579  0.464722  0.568557
    C   C41   0.410857  0.313121  0.904159  0.329026
    C   C42   0.395793  0.281388  0.851489  -0.440262
    C   C43   0.353170  0.306296  0.812743  0.478584
    C   C44   0.326111  0.359831  0.823984  -0.423019
    C   C45   0.337099  0.389890  0.877798  0.397059
    C   C46   0.376220  0.363972  0.917495  -0.491569
    C   C47   0.456471  0.286020  0.953748  -0.221578
    C   C48   0.490581  0.317646  0.994927  -0.143543
    C   C49   0.525760  0.279894  0.043304  0.489380
    C   C50   0.526730  0.210709  0.044117  -0.167877
    C   C51   0.498740  0.179540  0.999960  -0.347062
    C   C52   0.464722  0.216233  0.952421  0.625957
    C   C53   0.410857  0.686879  0.095841  0.242911
    C   C54   0.395793  0.718612  0.148511  -0.397915
    C   C55   0.353170  0.693704  0.187257  0.386117
    C   C56   0.326111  0.640169  0.176016  -0.383863
    C   C57   0.337099  0.610110  0.122202  0.351814
    C   C58   0.376220  0.636028  0.082505  -0.345190
    C   C59   0.500000  0.000000  0.387556  0.802138
    C   C60   0.456471  0.713980  0.046252  -0.093848
    C   C61   0.490581  0.682354  0.005073  -0.304627
    C   C62   0.525760  0.720106  0.956696  0.565165
    C   C63   0.526730  0.789291  0.955883  -0.199387
    C   C64   0.000000  0.500000  0.387556  0.893548
    C   C65   0.498740  0.820460  0.000040  -0.295432
    C   C66   0.464722  0.783767  0.047579  0.572182
    C   C67   0.410857  0.904159  0.686879  0.242334
    C   C68   0.395793  0.851489  0.718612  -0.439467
    C   C69   0.353170  0.812743  0.693704  0.486834
    C   C70   0.326111  0.823984  0.640169  -0.421497
    C   C71   0.337099  0.877798  0.610110  0.352464
    C   C72   0.376220  0.917495  0.636028  -0.354318
    C   C73   0.456471  0.953748  0.713980  -0.079032
    C   C74   0.490581  0.994927  0.682354  -0.314110
    C   C75   0.525760  0.043304  0.720106  0.560901
    C   C76   0.526730  0.044117  0.789291  -0.201978
    C   C77   0.612444  0.000000  0.500000  0.882748
    C   C78   0.498740  0.999960  0.820460  -0.288503
    C   C79   0.464722  0.952421  0.783767  0.562606
    C   C80   0.410857  0.095841  0.313121  0.331614
    C   C81   0.395793  0.148511  0.281388  -0.399871
    C   C82   0.353170  0.187257  0.306296  0.378008
    C   C83   0.326111  0.176016  0.359831  -0.386021
    C   C84   0.337099  0.122202  0.389890  0.393842
    C   C85   0.376220  0.082505  0.363972  -0.479878
    C   C86   0.456471  0.046252  0.286020  -0.240863
    C   C87   0.490581  0.005073  0.317646  -0.136131
    C   C88   0.525760  0.956696  0.279894  0.495146
    C   C89   0.526730  0.955883  0.210709  -0.167410
    C   C90   0.498740  0.000040  0.179540  -0.353072
    C   C91   0.464722  0.047579  0.216233  0.638751
    C   C92   0.904159  0.313121  0.589143  0.339660
    C   C93   0.851489  0.281388  0.604207  -0.459090
    C   C94   0.812743  0.306296  0.646830  0.486789
    C   C95   0.823984  0.359831  0.673889  -0.423670
    C   C96   0.877798  0.389890  0.662901  0.396418
    C   C97   0.917495  0.363972  0.623780  -0.491599
    C   C98   0.500000  0.000000  0.612444  0.893537
    C   C99   0.953748  0.286020  0.543529  -0.230202
    C   C100  0.994927  0.317646  0.509419  -0.146904
    C   C101  0.043304  0.279894  0.474240  0.514560
    C   C102  0.044117  0.210709  0.473270  -0.192563
    C   C103  0.999960  0.179540  0.501260  -0.326405
    C   C104  0.952421  0.216233  0.535278  0.611101
    C   C105  0.095841  0.686879  0.589143  0.258337
    C   C106  0.148511  0.718612  0.604207  -0.418917
    C   C107  0.187257  0.693704  0.646830  0.395855
    C   C108  0.176016  0.640169  0.673889  -0.396769
    C   C109  0.122202  0.610110  0.662901  0.366500
    C   C110  0.082505  0.636028  0.623780  -0.356912
    C   C111  0.046252  0.713980  0.543529  -0.108865
    C   C112  0.005073  0.682354  0.509419  -0.289149
    C   C113  0.956696  0.720106  0.474240  0.562372
    C   C114  0.955883  0.789291  0.473270  -0.217764
    C   C115  0.000040  0.820460  0.501260  -0.278051
    C   C116  0.047579  0.783767  0.535278  0.568560
    C   C117  0.313121  0.410857  0.095841  0.329085
    C   C118  0.281388  0.395793  0.148511  -0.440337
    C   C119  0.306296  0.353170  0.187257  0.478621
    C   C120  0.359831  0.326111  0.176016  -0.423036
    C   C121  0.389890  0.337099  0.122202  0.397073
    C   C122  0.363972  0.376220  0.082505  -0.491598
    C   C123  0.286020  0.456471  0.046252  -0.221629
    C   C124  0.317646  0.490581  0.005073  -0.143507
    C   C125  0.279894  0.525760  0.956696  0.489366
    C   C126  0.210709  0.526730  0.955883  -0.167869
    C   C127  0.500000  0.387556  0.000000  0.795679
    C   C128  0.179540  0.498740  0.000040  -0.347081
    C   C129  0.216233  0.464722  0.047579  0.625996
    C   C130  0.686879  0.410857  0.904159  0.242913
    C   C131  0.718612  0.395793  0.851489  -0.397918
    C   C132  0.693704  0.353170  0.812743  0.386120
    C   C133  0.640169  0.326111  0.823984  -0.383862
    C   C134  0.610110  0.337099  0.877798  0.351810
    C   C135  0.636028  0.376220  0.917495  -0.345192
    C   C136  0.713980  0.456471  0.953748  -0.093845
    C   C137  0.682354  0.490581  0.994927  -0.304634
    C   C138  0.720106  0.525760  0.043304  0.565174
    C   C139  0.789291  0.526730  0.044117  -0.199389
    C   C140  0.820460  0.498740  0.999960  -0.295431
    C   C141  0.783767  0.464722  0.952421  0.572176
    C   C142  0.387556  0.500000  0.000000  0.795661
    C   C143  0.500000  0.612444  0.000000  0.887044
    C   C144  0.612444  0.500000  0.000000  0.887045
    C   C145  0.500000  0.000000  0.887556  0.957949
    C   C146  0.500000  0.887556  0.000000  0.961892
    C   C147  0.000000  0.387556  0.500000  0.788568
    C   C148  0.500000  0.000000  0.112444  0.984965
    C   C149  0.500000  0.112444  0.000000  0.982265
    C   C150  0.887556  0.500000  0.000000  0.961892
    C   C151  0.000000  0.500000  0.887556  0.984966
    C   C152  0.112444  0.500000  0.000000  0.982274
    C   C153  0.000000  0.500000  0.112444  0.957941
    C   C154  0.000000  0.887556  0.500000  0.958233
    C   C155  0.887556  0.000000  0.500000  0.958230
    C   C156  0.000000  0.112444  0.500000  0.976882
    C   C157  0.000000  0.500000  0.612444  0.802121
    C   C158  0.112444  0.000000  0.500000  0.976879
    C   C159  0.904159  0.410857  0.313121  0.242286
    C   C160  0.851489  0.395793  0.281388  -0.439391
    C   C161  0.812743  0.353170  0.306296  0.486799
    C   C162  0.823984  0.326111  0.359831  -0.421490
    C   C163  0.877798  0.337099  0.389890  0.352463
    C   C164  0.917495  0.376220  0.363972  -0.354311
    C   C165  0.953748  0.456471  0.286020  -0.078994
    C   C166  0.994927  0.490581  0.317646  -0.314125
    C   C167  0.043304  0.525760  0.279894  0.560906
    C   C168  0.044117  0.526730  0.210709  -0.201987
    Cu  Cu1   0.940806  0.500000  0.500000  0.953730
    Cu  Cu2   0.059194  0.500000  0.500000  0.944298
    Cu  Cu3   0.500000  0.940806  0.500000  0.953734
    Cu  Cu4   0.500000  0.059194  0.500000  0.944298
    Cu  Cu5   0.500000  0.500000  0.940806  0.947808
    Cu  Cu6   0.500000  0.500000  0.059194  0.947819
    Cu  Cu7   0.440806  0.000000  0.000000  1.040514
    Cu  Cu8   0.559194  0.000000  0.000000  1.007063
    Cu  Cu9   0.000000  0.440806  0.000000  1.040514
    Cu  Cu10  0.000000  0.559194  0.000000  1.007063
    Cu  Cu11  0.000000  0.000000  0.440806  1.027202
    Cu  Cu12  0.000000  0.000000  0.559194  1.027206
    F   F1    0.111633  0.311265  0.557885  -0.145641
    F   F2    0.235333  0.337907  0.723248  -0.140454
    F   F3    0.442115  0.888367  0.311265  -0.134175
    F   F4    0.276752  0.764667  0.337907  -0.204156
    F   F5    0.557885  0.111633  0.311265  -0.159535
    F   F6    0.723248  0.235333  0.337907  -0.142134
    F   F7    0.311265  0.442115  0.888367  -0.135502
    F   F8    0.337907  0.276752  0.764667  -0.202356
    F   F9    0.311265  0.557885  0.111633  -0.154240
    F   F10   0.337907  0.723248  0.235333  -0.142308
    F   F11   0.311265  0.888367  0.557885  -0.142746
    F   F12   0.337907  0.764667  0.723248  -0.204315
    F   F13   0.311265  0.111633  0.442115  -0.145640
    F   F14   0.337907  0.235333  0.276752  -0.140453
    F   F15   0.888367  0.442115  0.688735  -0.134176
    F   F16   0.764667  0.276752  0.662093  -0.204156
    F   F17   0.111633  0.557885  0.688735  -0.159541
    F   F18   0.235333  0.723248  0.662093  -0.142131
    F   F19   0.442115  0.311265  0.111633  -0.135505
    F   F20   0.276752  0.337907  0.235333  -0.202366
    F   F21   0.557885  0.311265  0.888367  -0.154236
    F   F22   0.723248  0.337907  0.764667  -0.142310
    F   F23   0.888367  0.311265  0.442115  -0.142748
    F   F24   0.764667  0.337907  0.276752  -0.204304
    H   H1    0.076214  0.558285  0.192968  0.169064
    H   H2    0.158666  0.414055  0.762059  0.208328
    H   H3    0.205740  0.294260  0.620687  0.195915
    H   H4    0.037974  0.380089  0.617653  0.204006
    H   H5    0.923786  0.558285  0.807032  0.171383
    H   H6    0.237941  0.841334  0.414055  0.226429
    H   H7    0.379313  0.794260  0.294260  0.194675
    H   H8    0.382347  0.962026  0.380089  0.200496
    H   H9    0.192968  0.076214  0.558285  0.167270
    H   H10   0.762059  0.158666  0.414055  0.217884
    H   H11   0.620687  0.205740  0.294260  0.196962
    H   H12   0.617653  0.037974  0.380089  0.163243
    H   H13   0.807032  0.923786  0.558285  0.170667
    H   H14   0.414055  0.237941  0.841334  0.221580
    H   H15   0.294260  0.379313  0.794260  0.193695
    H   H16   0.380089  0.382347  0.962026  0.203756
    H   H17   0.558285  0.192968  0.076214  0.169404
    H   H18   0.414055  0.762059  0.158666  0.206731
    H   H19   0.294260  0.620687  0.205740  0.194250
    H   H20   0.380089  0.617653  0.037974  0.164126
    H   H21   0.558285  0.807032  0.923786  0.170409
    H   H22   0.414055  0.841334  0.762059  0.221050
    H   H23   0.294260  0.794260  0.620687  0.191579
    H   H24   0.380089  0.962026  0.617653  0.162321
    H   H25   0.558285  0.076214  0.807032  0.169062
    H   H26   0.414055  0.158666  0.237941  0.208325
    H   H27   0.294260  0.205740  0.379313  0.195915
    H   H28   0.380089  0.037974  0.382347  0.204004
    H   H29   0.558285  0.923786  0.192968  0.171384
    H   H30   0.841334  0.237941  0.585945  0.226429
    H   H31   0.794260  0.379313  0.705740  0.194676
    H   H32   0.962026  0.382347  0.619911  0.200496
    H   H33   0.076214  0.192968  0.441715  0.167266
    H   H34   0.158666  0.762059  0.585945  0.217883
    H   H35   0.205740  0.620687  0.705740  0.196964
    H   H36   0.037974  0.617653  0.619911  0.163248
    H   H37   0.923786  0.807032  0.441715  0.170664
    H   H38   0.237941  0.414055  0.158666  0.221620
    H   H39   0.379313  0.294260  0.205740  0.193698
    H   H40   0.382347  0.380089  0.037974  0.203768
    H   H41   0.192968  0.558285  0.923786  0.169403
    H   H42   0.762059  0.414055  0.841334  0.206731
    H   H43   0.620687  0.294260  0.794260  0.194249
    H   H44   0.617653  0.380089  0.962026  0.164128
    H   H45   0.807032  0.558285  0.076214  0.170410
    H   H46   0.841334  0.414055  0.237941  0.221008
    H   H47   0.794260  0.294260  0.379313  0.191580
    H   H48   0.962026  0.380089  0.382347  0.162320
    O   O1    0.952893  0.500000  0.585247  -0.575953
    O   O2    0.912011  0.444503  0.187259  -0.400167
    O   O3    0.919819  0.559532  0.696482  -0.434497
    O   O4    0.047107  0.585247  0.500000  -0.606068
    O   O5    0.087989  0.444503  0.812741  -0.423964
    O   O6    0.952893  0.585247  0.500000  -0.620401
    O   O7    0.303518  0.080181  0.559532  -0.432830
    O   O8    0.187259  0.912011  0.444503  -0.399299
    O   O9    0.696482  0.919819  0.559532  -0.420140
    O   O10   0.812741  0.087989  0.444503  -0.397613
    O   O11   0.414753  0.047107  0.500000  -0.572055
    O   O12   0.559532  0.303518  0.080181  -0.430350
    O   O13   0.414753  0.952893  0.500000  -0.557694
    O   O14   0.444503  0.187259  0.912011  -0.415568
    O   O15   0.559532  0.696482  0.919819  -0.424744
    O   O16   0.500000  0.047107  0.414753  -0.561494
    O   O17   0.444503  0.812741  0.087989  -0.407771
    O   O18   0.500000  0.952893  0.414753  -0.575962
    O   O19   0.559532  0.080181  0.696482  -0.421132
    O   O20   0.444503  0.912011  0.812741  -0.400190
    O   O21   0.585247  0.047107  0.500000  -0.606070
    O   O22   0.559532  0.919819  0.303518  -0.434499
    O   O23   0.585247  0.952893  0.500000  -0.620402
    O   O24   0.444503  0.087989  0.187259  -0.423960
    O   O25   0.080181  0.303518  0.440468  -0.432826
    O   O26   0.500000  0.047107  0.585247  -0.618715
    O   O27   0.912011  0.187259  0.555497  -0.399300
    O   O28   0.500000  0.952893  0.585247  -0.609024
    O   O29   0.919819  0.696482  0.440468  -0.420136
    O   O30   0.087989  0.812741  0.555497  -0.397614
    O   O31   0.303518  0.559532  0.919819  -0.430346
    O   O32   0.047107  0.500000  0.414753  -0.618720
    O   O33   0.187259  0.444503  0.087989  -0.415591
    O   O34   0.500000  0.414753  0.047107  -0.576869
    O   O35   0.696482  0.559532  0.080181  -0.424747
    O   O36   0.500000  0.414753  0.952893  -0.556698
    O   O37   0.812741  0.444503  0.912011  -0.407768
    O   O38   0.414753  0.500000  0.047107  -0.556704
    O   O39   0.414753  0.500000  0.952893  -0.576858
    O   O40   0.500000  0.585247  0.047107  -0.610802
    O   O41   0.500000  0.585247  0.952893  -0.613529
    O   O42   0.952893  0.500000  0.414753  -0.609024
    O   O43   0.585247  0.500000  0.047107  -0.613537
    O   O44   0.585247  0.500000  0.952893  -0.610795
    O   O45   0.547107  0.000000  0.914753  -0.658869
    O   O46   0.452893  0.000000  0.914753  -0.651793
    O   O47   0.547107  0.914753  0.000000  -0.660739
    O   O48   0.452893  0.914753  0.000000  -0.652395
    O   O49   0.547107  0.000000  0.085247  -0.666076
    O   O50   0.452893  0.000000  0.085247  -0.657813
    O   O51   0.547107  0.085247  0.000000  -0.665222
    O   O52   0.452893  0.085247  0.000000  -0.656343
    O   O53   0.914753  0.547107  0.000000  -0.660739
    O   O54   0.047107  0.414753  0.500000  -0.572055
    O   O55   0.914753  0.452893  0.000000  -0.652396
    O   O56   0.000000  0.547107  0.914753  -0.666075
    O   O57   0.000000  0.452893  0.914753  -0.657814
    O   O58   0.085247  0.547107  0.000000  -0.665223
    O   O59   0.085247  0.452893  0.000000  -0.656340
    O   O60   0.000000  0.547107  0.085247  -0.658869
    O   O61   0.000000  0.452893  0.085247  -0.651796
    O   O62   0.952893  0.414753  0.500000  -0.557692
    O   O63   0.000000  0.914753  0.547107  -0.669933
    O   O64   0.000000  0.914753  0.452893  -0.646254
    O   O65   0.914753  0.000000  0.547107  -0.646255
    O   O66   0.914753  0.000000  0.452893  -0.669931
    O   O67   0.000000  0.085247  0.547107  -0.673429
    O   O68   0.000000  0.085247  0.452893  -0.650573
    O   O69   0.085247  0.000000  0.547107  -0.650574
    O   O70   0.085247  0.000000  0.452893  -0.673426
    O   O71   0.047107  0.500000  0.585247  -0.561489
    O   O72   0.080181  0.559532  0.303518  -0.421132
