# generated using pymatgen
data_H4PdC8NClO4
_symmetry_space_group_name_H-M   'P 1'
_cell_length_a   17.52300000
_cell_length_b   17.52300000
_cell_length_c   14.30760000
_cell_angle_alpha   90.00000000
_cell_angle_beta   90.00000000
_cell_angle_gamma   120.00000000
_symmetry_Int_Tables_number   1
_chemical_formula_structural   H4PdC8NClO4
_chemical_formula_sum   'H24 Pd6 C48 N6 Cl6 O24'
_cell_volume   3804.64678131
_cell_formula_units_Z   6
loop_
 _symmetry_equiv_pos_site_id
 _symmetry_equiv_pos_as_xyz
  1  'x, y, z'
loop_
 _atom_site_type_symbol
 _atom_site_label
 _atom_site_symmetry_multiplicity
 _atom_site_fract_x
 _atom_site_fract_y
 _atom_site_fract_z
 _atom_site_occupancy
  H  H1  1  0.12380800  0.47744100  0.96618500  1
  H  H2  1  0.90340600  0.60658200  0.09504200  1
  H  H3  1  0.81580300  0.49384700  0.07653700  1
  H  H4  1  0.85309300  0.57258000  0.98560500  1
  H  H5  1  0.52255900  0.64636800  0.96618500  1
  H  H6  1  0.39341800  0.29682400  0.09504200  1
  H  H7  1  0.50615300  0.32195600  0.07653700  1
  H  H8  1  0.42742000  0.28051300  0.98560500  1
  H  H9  1  0.35363200  0.87619200  0.96618500  1
  H  H10  1  0.70317600  0.09659400  0.09504200  1
  H  H11  1  0.67804400  0.18419700  0.07653700  1
  H  H12  1  0.71948700  0.14690700  0.98560500  1
  H  H13  1  0.87619200  0.52255900  0.46618500  1
  H  H14  1  0.09659400  0.39341800  0.59504200  1
  H  H15  1  0.18419700  0.50615300  0.57653700  1
  H  H16  1  0.14690700  0.42742000  0.48560500  1
  H  H17  1  0.47744100  0.35363200  0.46618500  1
  H  H18  1  0.60658200  0.70317600  0.59504200  1
  H  H19  1  0.49384700  0.67804400  0.57653700  1
  H  H20  1  0.57258000  0.71948700  0.48560500  1
  H  H21  1  0.64636800  0.12380800  0.46618500  1
  H  H22  1  0.29682400  0.90340600  0.59504200  1
  H  H23  1  0.32195600  0.81580300  0.57653700  1
  H  H24  1  0.28051300  0.85309300  0.48560500  1
  Pd  Pd1  1  0.45407000  0.72555800  0.24919500  1
  Pd  Pd2  1  0.27147800  0.72555800  0.24919500  1
  Pd  Pd3  1  0.27330800  0.54662700  0.24531000  1
  Pd  Pd4  1  0.54593000  0.27444200  0.74919500  1
  Pd  Pd5  1  0.72852200  0.27444200  0.74919500  1
  Pd  Pd6  1  0.72669200  0.45337300  0.74531000  1
  C  C1  1  0.15819400  0.57909400  0.12099200  1
  C  C2  1  0.42089000  0.57909400  0.12099200  1
  C  C3  1  0.41671700  0.58009700  0.37889700  1
  C  C4  1  0.16337000  0.58009700  0.37889700  1
  C  C5  1  0.42001500  0.84004000  0.37431400  1
  C  C6  1  0.42079400  0.84159700  0.12591000  1
  C  C7  1  0.84180600  0.42090600  0.62099200  1
  C  C8  1  0.57911000  0.42090600  0.62099200  1
  C  C9  1  0.58328300  0.41990300  0.87889700  1
  C  C10  1  0.83663000  0.41990300  0.87889700  1
  C  C11  1  0.57998500  0.15996000  0.87431400  1
  C  C12  1  0.57920600  0.15840300  0.62591000  1
  C  C13  1  0.07690400  0.54118000  0.05803600  1
  C  C14  1  0.07039200  0.48816100  0.98354000  1
  C  C15  1  0.99687200  0.45016900  0.92669100  1
  C  C16  1  0.92642300  0.46848100  0.94174800  1
  C  C17  1  0.94203200  0.52609400  0.01925000  1
  C  C18  1  0.87406300  0.55029200  0.04490900  1
  C  C19  1  0.45882000  0.53572500  0.05803600  1
  C  C20  1  0.51183900  0.58223100  0.98354000  1
  C  C21  1  0.54983100  0.54670300  0.92669100  1
  C  C22  1  0.53151900  0.45794200  0.94174800  1
  C  C23  1  0.47390600  0.41593800  0.01925000  1
  C  C24  1  0.44970800  0.32377100  0.04490900  1
  C  C25  1  0.46427500  0.92309600  0.05803600  1
  C  C26  1  0.41776900  0.92960800  0.98354000  1
  C  C27  1  0.45329700  0.00312800  0.92669100  1
  C  C28  1  0.54205800  0.07357700  0.94174800  1
  C  C29  1  0.58406200  0.05796800  0.01925000  1
  C  C30  1  0.67622900  0.12593700  0.04490900  1
  C  C31  1  0.92309600  0.45882000  0.55803600  1
  C  C32  1  0.92960800  0.51183900  0.48354000  1
  C  C33  1  0.00312800  0.54983100  0.42669100  1
  C  C34  1  0.07357700  0.53151900  0.44174800  1
  C  C35  1  0.05796800  0.47390600  0.51925000  1
  C  C36  1  0.12593700  0.44970800  0.54490900  1
  C  C37  1  0.54118000  0.46427500  0.55803600  1
  C  C38  1  0.48816100  0.41776900  0.48354000  1
  C  C39  1  0.45016900  0.45329700  0.42669100  1
  C  C40  1  0.46848100  0.54205800  0.44174800  1
  C  C41  1  0.52609400  0.58406200  0.51925000  1
  C  C42  1  0.55029200  0.67622900  0.54490900  1
  C  C43  1  0.53572500  0.07690400  0.55803600  1
  C  C44  1  0.58223100  0.07039200  0.48354000  1
  C  C45  1  0.54670300  0.99687200  0.42669100  1
  C  C46  1  0.45794200  0.92642300  0.44174800  1
  C  C47  1  0.41593800  0.94203200  0.51925000  1
  C  C48  1  0.32377100  0.87406300  0.54490900  1
  N  N1  1  0.01177200  0.55476500  0.07762700  1
  N  N2  1  0.44523500  0.45700600  0.07762700  1
  N  N3  1  0.54299400  0.98822800  0.07762700  1
  N  N4  1  0.98822800  0.44523500  0.57762700  1
  N  N5  1  0.55476500  0.54299400  0.57762700  1
  N  N6  1  0.45700600  0.01177200  0.57762700  1
  Cl  Cl1  1  0.00489100  0.38969100  0.83450900  1
  Cl  Cl2  1  0.61030900  0.61520000  0.83450900  1
  Cl  Cl3  1  0.38480000  0.99510900  0.83450900  1
  Cl  Cl4  1  0.99510900  0.61030900  0.33450900  1
  Cl  Cl5  1  0.38969100  0.38480000  0.33450900  1
  Cl  Cl6  1  0.61520000  0.00489100  0.33450900  1
  O  O1  1  0.18679100  0.52998700  0.14500900  1
  O  O2  1  0.18387200  0.65557700  0.14994300  1
  O  O3  1  0.34318600  0.52998700  0.14500900  1
  O  O4  1  0.47169500  0.65557700  0.14994300  1
  O  O5  1  0.46978400  0.65573100  0.35001000  1
  O  O6  1  0.34171100  0.53133100  0.34710200  1
  O  O7  1  0.18593700  0.65573100  0.35001000  1
  O  O8  1  0.18961000  0.53133100  0.34710200  1
  O  O9  1  0.46942200  0.81210000  0.34802900  1
  O  O10  1  0.34266800  0.81210000  0.34802900  1
  O  O11  1  0.46985300  0.81308200  0.15105200  1
  O  O12  1  0.34321900  0.81308200  0.15105200  1
  O  O13  1  0.81320900  0.47001300  0.64500900  1
  O  O14  1  0.81612800  0.34442300  0.64994300  1
  O  O15  1  0.65681400  0.47001300  0.64500900  1
  O  O16  1  0.52830500  0.34442300  0.64994300  1
  O  O17  1  0.53021600  0.34426900  0.85001000  1
  O  O18  1  0.65828900  0.46866900  0.84710200  1
  O  O19  1  0.81406300  0.34426900  0.85001000  1
  O  O20  1  0.81039000  0.46866900  0.84710200  1
  O  O21  1  0.53057800  0.18790000  0.84802900  1
  O  O22  1  0.65733200  0.18790000  0.84802900  1
  O  O23  1  0.53014700  0.18691800  0.65105200  1
  O  O24  1  0.65678100  0.18691800  0.65105200  1
