# generated using pymatgen
data_CuH6C10N3O4
_symmetry_space_group_name_H-M   'P 1'
_cell_length_a   10.35774600
_cell_length_b   9.93737200
_cell_length_c   20.03713400
_cell_angle_alpha   100.22497200
_cell_angle_beta   99.83219900
_cell_angle_gamma   88.87741600
_symmetry_Int_Tables_number   1
_chemical_formula_structural   CuH6C10N3O4
_chemical_formula_sum   'Cu4 H24 C40 N12 O16'
_cell_volume   1999.70988114
_cell_formula_units_Z   4
loop_
 _symmetry_equiv_pos_site_id
 _symmetry_equiv_pos_as_xyz
  1  'x, y, z'
loop_
 _atom_site_type_symbol
 _atom_site_label
 _atom_site_symmetry_multiplicity
 _atom_site_fract_x
 _atom_site_fract_y
 _atom_site_fract_z
 _atom_site_occupancy
  Cu  Cu1  1  0.01257800  0.14260700  0.01607800  1
  Cu  Cu2  1  0.01490000  0.86731300  0.99355400  1
  Cu  Cu3  1  0.15550500  0.02090900  0.53607000  1
  Cu  Cu4  1  0.90178700  0.99341100  0.47647300  1
  H  H1  1  0.89623400  0.72250800  0.11898700  1
  H  H2  1  0.75025300  0.59029500  0.02036700  1
  H  H3  1  0.80689200  0.35530900  0.97409900  1
  H  H4  1  0.21259500  0.65085900  0.03231000  1
  H  H5  1  0.27018800  0.41866900  0.98260400  1
  H  H6  1  0.12643200  0.29214200  0.88142500  1
  H  H7  1  0.91887100  0.39535200  0.83548900  1
  H  H8  1  0.86615200  0.62911300  0.88648100  1
  H  H9  1  0.15546500  0.38480500  0.11869800  1
  H  H10  1  0.10324800  0.62054200  0.16658700  1
  H  H11  1  0.71781300  0.14642800  0.64775000  1
  H  H12  1  0.65140800  0.91842600  0.57470900  1
  H  H13  1  0.42091900  0.86994800  0.52893800  1
  H  H14  1  0.64054100  0.14758300  0.47437700  1
  H  H15  1  0.40885000  0.10257700  0.42657500  1
  H  H16  1  0.33952200  0.87496500  0.35691700  1
  H  H17  1  0.50566100  0.70175900  0.33424400  1
  H  H18  1  0.73678400  0.75275400  0.38242700  1
  H  H19  1  0.31871300  0.24924000  0.63679600  1
  H  H20  1  0.54893500  0.30661700  0.68019800  1
  H  H21  1  0.96064000  0.91129200  0.24221100  1
  H  H22  1  0.08637600  0.10804800  0.76816500  1
  H  H23  1  0.50466900  0.82639400  0.98329700  1
  H  H24  1  0.90424100  0.48838500  0.45443800  1
  C  C1  1  0.26651500  0.01009000  0.00442400  1
  C  C2  1  0.76337600  0.99566700  0.01355800  1
  C  C3  1  0.06802200  0.43185500  0.09574500  1
  C  C4  1  0.03825600  0.56380800  0.12317500  1
  C  C5  1  0.87417600  0.41568200  0.01517500  1
  C  C6  1  0.84135800  0.54702200  0.04160800  1
  C  C7  1  0.92325200  0.62120400  0.09648100  1
  C  C8  1  0.07258400  0.01646000  0.13665700  1
  C  C9  1  0.96721900  0.00815000  0.87326400  1
  C  C10  1  0.14588300  0.59283000  0.99012300  1
  C  C11  1  0.17917800  0.46285700  0.96189600  1
  C  C12  1  0.09832900  0.39166700  0.90568300  1
  C  C13  1  0.98308000  0.44983000  0.87991000  1
  C  C14  1  0.95281800  0.58039000  0.90914700  1
  C  C15  1  0.96001600  0.01523500  0.62521000  1
  C  C16  1  0.08607900  0.00812900  0.38482200  1
  C  C17  1  0.39234800  0.17716500  0.62193900  1
  C  C18  1  0.52185000  0.20967900  0.64700900  1
  C  C19  1  0.44963100  0.96590300  0.56265300  1
  C  C20  1  0.57987800  0.99405100  0.58815200  1
  C  C21  1  0.61654900  0.11857500  0.62921100  1
  C  C22  1  0.01738500  0.26768900  0.52624500  1
  C  C23  1  0.05108700  0.74951000  0.50618800  1
  C  C24  1  0.61034200  0.04950900  0.44315000  1
  C  C25  1  0.47987900  0.02403900  0.41634600  1
  C  C26  1  0.44132200  0.89816900  0.37746300  1
  C  C27  1  0.53426200  0.80072700  0.36498000  1
  C  C28  1  0.66391800  0.82963700  0.39224300  1
  C  C29  1  0.11415900  0.02498000  0.21036300  1
  C  C30  1  0.04978900  0.97198900  0.25466200  1
  C  C31  1  0.12004400  0.02189000  0.31879900  1
  C  C32  1  0.92771600  0.00075900  0.79949000  1
  C  C33  1  0.99521900  0.05074300  0.75547300  1
  C  C34  1  0.92443400  0.00315500  0.69115100  1
  C  C35  1  0.62392600  0.01835600  0.01819200  1
  C  C36  1  0.51160000  0.93544700  0.00179400  1
  C  C37  1  0.40950600  0.02697100  0.01218400  1
  C  C38  1  0.05522200  0.61917500  0.52720500  1
  C  C39  1  0.97681600  0.50554700  0.50083600  1
  C  C40  1  0.02538500  0.41357600  0.54227300  1
  N  N1  1  0.98578000  0.35967500  0.04263500  1
  N  N2  1  0.03456400  0.65018100  0.96322000  1
  N  N3  1  0.35830200  0.05804300  0.57891200  1
  N  N4  1  0.69991400  0.95224400  0.43129400  1
  N  N5  1  0.21995700  0.10056600  0.31256700  1
  N  N6  1  0.21572400  0.10336000  0.24651000  1
  N  N7  1  0.82163200  0.92813500  0.69702100  1
  N  N8  1  0.82416900  0.92587900  0.76298600  1
  N  N9  1  0.46011700  0.15354500  0.03349900  1
  N  N10  1  0.58812100  0.14841800  0.03696000  1
  N  N11  1  0.12516600  0.47071500  0.59021800  1
  N  N12  1  0.14232100  0.59663900  0.58155300  1
  O  O1  1  0.19975000  0.12328400  0.01345300  1
  O  O2  1  0.20602800  0.89089600  0.99413300  1
  O  O3  1  0.82144700  0.87690300  0.99909300  1
  O  O4  1  0.83148900  0.10860500  0.02357100  1
  O  O5  1  0.05554800  0.89756500  0.09536300  1
  O  O6  1  0.05998700  0.13032700  0.11208400  1
  O  O7  1  0.97680200  0.12598300  0.91549300  1
  O  O8  1  0.98079300  0.89378500  0.89719700  1
  O  O9  1  0.08341600  0.02830600  0.62089000  1
  O  O10  1  0.86975200  0.99998400  0.56975000  1
  O  O11  1  0.96381800  0.98694900  0.38933900  1
  O  O12  1  0.17631400  0.02753100  0.44018300  1
  O  O13  1  0.91232500  0.19686500  0.49401800  1
  O  O14  1  0.12586400  0.20843000  0.54670200  1
  O  O15  1  0.15534400  0.82680100  0.52874400  1
  O  O16  1  0.93888500  0.80001500  0.48197400  1
