data_DB15-pcu_N65_E5_opt_repeat
_audit_creation_date              2024-02-23
_audit_creation_method            'Materials Studio'
_symmetry_space_group_name_H-M    'P1'
_symmetry_Int_Tables_number       1
_symmetry_cell_setting            triclinic
loop_
_symmetry_equiv_pos_as_xyz
  x,y,z
_cell_length_a                    17.7245
_cell_length_b                    14.5326
_cell_length_c                    18.8507
_cell_angle_alpha                 112.1255
_cell_angle_beta                  74.3416
_cell_angle_gamma                 124.2810
loop_
_atom_site_label
_atom_site_type_symbol
_atom_site_fract_x
_atom_site_fract_y
_atom_site_fract_z
_atom_site_U_iso_or_equiv
_atom_site_adp_type
_atom_site_occupancy
O1     O     0.28500   0.05820   0.87005   0.00000  Uiso   1.00
La1    La    0.13546   0.04887   0.87918   0.00000  Uiso   1.00
O2     O     0.04384   0.86911   0.92170   0.00000  Uiso   1.00
O3     O     0.20668   0.05502   0.98666   0.00000  Uiso   1.00
C1     C     0.27707   0.05531   0.94009   0.00000  Uiso   1.00
O4     O     0.93664   0.84928   0.02674   0.00000  Uiso   1.00
La2    La    0.86484   0.95133   0.12113   0.00000  Uiso   1.00
C2     C     0.96962   0.98634   0.24361   0.00000  Uiso   1.00
C3     C     0.98297   0.81025   0.96996   0.00000  Uiso   1.00
C4     C     0.72317   0.94487   0.06025   0.00000  Uiso   1.00
O5     O     0.91593   0.88372   0.19962   0.00000  Uiso   1.00
O6     O     0.99316   0.07937   0.22630   0.00000  Uiso   1.00
C5     C     0.01731   0.18994   0.03033   0.00000  Uiso   1.00
O7     O     0.71523   0.94198   0.13029   0.00000  Uiso   1.00
O8     O     0.95644   0.13109   0.07859   0.00000  Uiso   1.00
O9     O     0.06364   0.15092   0.97356   0.00000  Uiso   1.00
O10    O     0.79356   0.94517   0.01368   0.00000  Uiso   1.00
C6     C     0.03072   0.01388   0.75668   0.00000  Uiso   1.00
O11    O     0.08441   0.11651   0.80068   0.00000  Uiso   1.00
O12    O     0.00716   0.92085   0.77400   0.00000  Uiso   1.00
C7     C     1.00000   0.99928   0.46320   0.00000  Uiso   1.00
C8     C     0.96704   0.89582   0.40587   0.00000  Uiso   1.00
C9     C     0.96358   0.89336   0.33269   0.00000  Uiso   1.00
C10    C     0.99268   0.99436   0.31614   0.00000  Uiso   1.00
C11    C     0.02854   0.09863   0.37336   0.00000  Uiso   1.00
C12    C     0.03185   0.10086   0.44670   0.00000  Uiso   1.00
C13    C     0.00035   0.00095   0.53709   0.00000  Uiso   1.00
C14    C     0.03331   0.10441   0.59442   0.00000  Uiso   1.00
C15    C     0.03677   0.10687   0.66760   0.00000  Uiso   1.00
C16    C     0.00767   0.00587   0.68415   0.00000  Uiso   1.00
C17    C     0.97181   0.90160   0.62693   0.00000  Uiso   1.00
C18    C     0.96850   0.89937   0.55359   0.00000  Uiso   1.00
C19    C     0.06446   0.20433   0.50440   0.00000  Uiso   1.00
C20    C     0.06541   0.20612   0.57792   0.00000  Uiso   1.00
C21    C     0.93494   0.79411   0.42237   0.00000  Uiso   1.00
C22    C     0.93589   0.79590   0.49589   0.00000  Uiso   1.00
H1     H     0.08930   0.28447   0.49240   0.00000  Uiso   1.00
H2     H     0.09168   0.28784   0.62243   0.00000  Uiso   1.00
H3     H     0.90867   0.71239   0.37785   0.00000  Uiso   1.00
H4     H     0.91105   0.71576   0.50789   0.00000  Uiso   1.00
H5     H     0.93429   0.81071   0.28932   0.00000  Uiso   1.00
H6     H     0.04975   0.17799   0.36217   0.00000  Uiso   1.00
H7     H     0.06606   0.18951   0.71097   0.00000  Uiso   1.00
H8     H     0.95059   0.82224   0.63812   0.00000  Uiso   1.00
C23    C     0.46969   0.01038   0.99299   0.00000  Uiso   1.00
C24    C     0.48200   0.03645   0.92627   0.00000  Uiso   1.00
C25    C     0.42052   0.05495   0.91111   0.00000  Uiso   1.00
C26    C     0.34592   0.04723   0.96238   0.00000  Uiso   1.00
C27    C     0.33453   0.02317   0.03005   0.00000  Uiso   1.00
C28    C     0.39637   0.00449   0.04514   0.00000  Uiso   1.00
C29    C     0.53055   0.98980   0.00734   0.00000  Uiso   1.00
C30    C     0.51823   0.96372   0.07407   0.00000  Uiso   1.00
C31    C     0.57971   0.94522   0.08923   0.00000  Uiso   1.00
C32    C     0.65432   0.95295   0.03795   0.00000  Uiso   1.00
C33    C     0.66570   0.97701   0.97028   0.00000  Uiso   1.00
C34    C     0.60387   0.99569   0.95519   0.00000  Uiso   1.00
C35    C     0.38422   0.97802   0.11189   0.00000  Uiso   1.00
C36    C     0.44509   0.95780   0.12633   0.00000  Uiso   1.00
C37    C     0.55514   0.04238   0.87400   0.00000  Uiso   1.00
C38    C     0.61601   0.02215   0.88845   0.00000  Uiso   1.00
H9     H     0.32707   0.97289   0.15308   0.00000  Uiso   1.00
H10    H     0.43515   0.93749   0.17893   0.00000  Uiso   1.00
H11    H     0.56509   0.06268   0.82141   0.00000  Uiso   1.00
H12    H     0.67317   0.02729   0.84726   0.00000  Uiso   1.00
H13    H     0.43093   0.07369   0.85782   0.00000  Uiso   1.00
H14    H     0.27615   0.01568   0.07022   0.00000  Uiso   1.00
H15    H     0.56931   0.92648   0.14252   0.00000  Uiso   1.00
H16    H     0.72409   0.98450   0.93012   0.00000  Uiso   1.00
C39    C     0.99536   0.54033   0.99368   0.00000  Uiso   1.00
C40    C     0.05144   0.59528   0.93794   0.00000  Uiso   1.00
C41    C     0.04378   0.67833   0.92653   0.00000  Uiso   1.00
C42    C     0.98022   0.70759   0.97135   0.00000  Uiso   1.00
C43    C     0.92230   0.64939   0.02561   0.00000  Uiso   1.00
C44    C     0.93010   0.56646   0.03683   0.00000  Uiso   1.00
C45    C     0.00490   0.45984   0.00660   0.00000  Uiso   1.00
C46    C     0.94882   0.40490   0.06234   0.00000  Uiso   1.00
C47    C     0.95648   0.32184   0.07375   0.00000  Uiso   1.00
C48    C     0.02005   0.29259   0.02893   0.00000  Uiso   1.00
C49    C     0.07796   0.35079   0.97468   0.00000  Uiso   1.00
C50    C     0.07016   0.43371   0.96345   0.00000  Uiso   1.00
C51    C     0.87407   0.51162   0.09272   0.00000  Uiso   1.00
C52    C     0.88328   0.43097   0.10535   0.00000  Uiso   1.00
C53    C     0.11698   0.56920   0.89493   0.00000  Uiso   1.00
C54    C     0.12619   0.48855   0.90756   0.00000  Uiso   1.00
H17    H     0.82282   0.53172   0.12705   0.00000  Uiso   1.00
H18    H     0.83872   0.38826   0.14902   0.00000  Uiso   1.00
H19    H     0.16154   0.61191   0.85125   0.00000  Uiso   1.00
H20    H     0.17745   0.46845   0.87323   0.00000  Uiso   1.00
H21    H     0.09056   0.72343   0.88455   0.00000  Uiso   1.00
H22    H     0.87237   0.67077   0.06161   0.00000  Uiso   1.00
H23    H     0.90971   0.27675   0.11573   0.00000  Uiso   1.00
H24    H     0.12789   0.32941   0.93867   0.00000  Uiso   1.00
