# generated using pymatgen
data_MnH8C12ClO4
_symmetry_space_group_name_H-M   'P 1'
_cell_length_a   13.13436800
_cell_length_b   12.93011300
_cell_length_c   50.80793600
_cell_angle_alpha   91.25828800
_cell_angle_beta   91.22314200
_cell_angle_gamma   89.92698400
_symmetry_Int_Tables_number   1
_chemical_formula_structural   MnH8C12ClO4
_chemical_formula_sum   'Mn8 H64 C96 Cl8 O32'
_cell_volume   8624.60484346
_cell_formula_units_Z   8
loop_
 _symmetry_equiv_pos_site_id
 _symmetry_equiv_pos_as_xyz
  1  'x, y, z'
loop_
 _atom_site_type_symbol
 _atom_site_label
 _atom_site_symmetry_multiplicity
 _atom_site_fract_x
 _atom_site_fract_y
 _atom_site_fract_z
 _atom_site_occupancy
  Mn  Mn1  1  0.87003500  0.19988700  0.09661300  1
  Mn  Mn2  1  0.11732700  0.21951800  0.09284600  1
  Mn  Mn3  1  0.08851500  0.77481700  0.59575300  1
  Mn  Mn4  1  0.06820900  0.02323400  0.60841800  1
  Mn  Mn5  1  0.06577400  0.83688400  0.85798200  1
  Mn  Mn6  1  0.81852800  0.81952800  0.85031600  1
  Mn  Mn7  1  0.04422000  0.01219700  0.34761700  1
  Mn  Mn8  1  0.06543200  0.26326200  0.35461000  1
  H  H1  1  0.17355500  0.90313000  0.11014300  1
  H  H2  1  0.85484600  0.87075300  0.09461200  1
  H  H3  1  0.20047100  0.72245900  0.09331000  1
  H  H4  1  0.13323600  0.80171900  0.06962300  1
  H  H5  1  0.80892200  0.51152600  0.08535300  1
  H  H6  1  0.13172300  0.55765400  0.08273800  1
  H  H7  1  0.78475100  0.69613300  0.09228400  1
  H  H8  1  0.10983100  0.80834800  0.12943800  1
  H  H9  1  0.69192400  0.78341500  0.57089100  1
  H  H10  1  0.73709800  0.03773500  0.61035300  1
  H  H11  1  0.65509100  0.75254400  0.62947000  1
  H  H12  1  0.59005100  0.68716700  0.60203200  1
  H  H13  1  0.38101400  0.08462200  0.60453000  1
  H  H14  1  0.42447700  0.75632700  0.60591000  1
  H  H15  1  0.56453600  0.10941800  0.60568100  1
  H  H16  1  0.77368800  0.71560700  0.59378000  1
  H  H17  1  0.09476300  0.47043500  0.85174800  1
  H  H18  1  0.79849700  0.48571900  0.85493200  1
  H  H19  1  0.01913900  0.37013800  0.90174200  1
  H  H20  1  0.12713300  0.33085600  0.88231900  1
  H  H21  1  0.78437200  0.13664000  0.82591000  1
  H  H22  1  0.07139700  0.16815900  0.86672600  1
  H  H23  1  0.75030500  0.32014400  0.83427000  1
  H  H24  1  0.09930600  0.52237600  0.88514700  1
  H  H25  1  0.75113900  0.31272100  0.37046700  1
  H  H26  1  0.71230600  0.99574900  0.34906700  1
  H  H27  1  0.56288600  0.33456300  0.37331300  1
  H  H28  1  0.61356600  0.23346900  0.39396200  1
  H  H29  1  0.35953700  0.96657800  0.32989800  1
  H  H30  1  0.39776800  0.26861100  0.36484500  1
  H  H31  1  0.54309700  0.93868400  0.33333333  1
  H  H32  1  0.68521000  0.29081300  0.33920700  1
  H  H33  1  0.04748400  0.19181900  0.98332800  1
  H  H34  1  0.81494700  0.07524200  0.01553700  1
  H  H35  1  0.09589500  0.97524000  0.00336500  1
  H  H36  1  0.15041600  0.03518600  0.97499000  1
  H  H37  1  0.75557000  0.91222900  0.93086600  1
  H  H38  1  0.07945000  0.93028800  0.94099900  1
  H  H39  1  0.73564200  0.00382900  0.97308000  1
  H  H40  1  0.12726800  0.16247400  0.01146100  1
  H  H41  1  0.10046600  0.80644800  0.51203000  1
  H  H42  1  0.09654700  0.13038000  0.52760400  1
  H  H43  1  0.11868200  0.83746700  0.46393600  1
  H  H44  1  0.21715300  0.89857000  0.48427200  1
  H  H45  1  0.05698200  0.27501400  0.44291600  1
  H  H46  1  0.11196500  0.95295400  0.42826700  1
  H  H47  1  0.06535400  0.24596100  0.49023800  1
  H  H48  1  0.99250100  0.87275400  0.49763200  1
  H  H49  1  0.17777700  0.24206900  0.19174200  1
  H  H50  1  0.90147700  0.15108900  0.17907700  1
  H  H51  1  0.02822100  0.40232000  0.21413400  1
  H  H52  1  0.15303800  0.37054300  0.22746800  1
  H  H53  1  0.92016000  0.02474800  0.26593600  1
  H  H54  1  0.10686100  0.29550900  0.26832400  1
  H  H55  1  0.88426400  0.04962600  0.21923000  1
  H  H56  1  0.14384800  0.36569800  0.17798400  1
  H  H57  1  0.84738000  0.67133400  0.76613500  1
  H  H58  1  0.10329700  0.86777500  0.77628600  1
  H  H59  1  0.88558600  0.64718600  0.71807500  1
  H  H60  1  0.99140400  0.61365200  0.73966400  1
  H  H61  1  0.17155700  0.96560100  0.68900500  1
  H  H62  1  0.97344700  0.70527800  0.68006000  1
  H  H63  1  0.16429900  0.95383000  0.73688500  1
  H  H64  1  0.83840200  0.79039800  0.74814300  1
  C  C1  1  0.98775200  0.41214400  0.08507300  1
  C  C2  1  0.99858700  0.00690500  0.10416700  1
  C  C3  1  0.96673800  0.16700200  0.04275800  1
  C  C4  1  0.02131600  0.24485400  0.14689500  1
  C  C5  1  0.08375300  0.95056100  0.55093500  1
  C  C6  1  0.07425700  0.84855300  0.65324500  1
  C  C7  1  0.28199100  0.90358400  0.60352400  1
  C  C8  1  0.87448000  0.89469300  0.60063100  1
  C  C9  1  0.95175500  0.79004600  0.80188200  1
  C  C10  1  0.93332300  0.87385600  0.90621900  1
  C  C11  1  0.94523000  0.03077100  0.84451700  1
  C  C12  1  0.93879100  0.62615200  0.86443300  1
  C  C13  1  0.07321600  0.13117300  0.40407700  1
  C  C14  1  0.03465100  0.14381200  0.29823500  1
  C  C15  1  0.85177200  0.14029800  0.35585400  1
  C  C16  1  0.25780200  0.13509000  0.34657100  1
  C  C17  1  0.04073800  0.69173200  0.08847400  1
  C  C18  1  0.97232700  0.52253000  0.08407400  1
  C  C19  1  0.87478200  0.56156400  0.08588200  1
  C  C20  1  0.05532900  0.58764600  0.08457100  1
  C  C21  1  0.86069800  0.66549400  0.08991600  1
  C  C22  1  0.94399300  0.72922100  0.09222800  1
  C  C23  1  0.00988000  0.89557100  0.10487400  1
  C  C24  1  0.11085800  0.84589100  0.11002400  1
  C  C25  1  0.92973700  0.83785200  0.09797800  1
  C  C26  1  0.12845900  0.76419900  0.08898000  1
  C  C27  1  0.55797200  0.84891300  0.60664100  1
  C  C28  1  0.39101600  0.91847800  0.60468800  1
  C  C29  1  0.43015400  0.01760800  0.60514300  1
  C  C30  1  0.45472500  0.83394700  0.60560400  1
  C  C31  1  0.53348200  0.03206300  0.60584700  1
  C  C32  1  0.59678900  0.94752800  0.60614600  1
  C  C33  1  0.76484100  0.88156100  0.59985400  1
  C  C34  1  0.71848600  0.77991400  0.59172400  1
  C  C35  1  0.70581700  0.96185000  0.60574500  1
  C  C36  1  0.62845300  0.75969200  0.60872600  1
  C  C37  1  0.98046400  0.30290200  0.86440600  1
  C  C38  1  0.93163500  0.14155200  0.84503300  1
  C  C39  1  0.84082800  0.18367700  0.83629000  1
  C  C40  1  0.00229500  0.20153500  0.85871200  1
  C  C41  1  0.82083400  0.28635500  0.84130500  1
  C  C42  1  0.89058000  0.34513700  0.85558200  1
  C  C43  1  0.95051100  0.51554000  0.86695400  1
  C  C44  1  0.05544600  0.47297300  0.87085700  1
  C  C45  1  0.87257100  0.45433900  0.86010500  1
  C  C46  1  0.04994500  0.36562600  0.88159200  1
  C  C47  1  0.53190800  0.17951200  0.35984800  1
  C  C48  1  0.36712500  0.12051300  0.34658100  1
  C  C49  1  0.40769400  0.02731500  0.33814300  1
  C  C50  1  0.42927300  0.19694100  0.35730200  1
  C  C51  1  0.51085400  0.01109300  0.34022900  1
  C  C52  1  0.57247800  0.08747900  0.35104900  1
  C  C53  1  0.74216000  0.15374900  0.35706000  1
  C  C54  1  0.69854800  0.26037900  0.35922900  1
  C  C55  1  0.68168400  0.07242700  0.35271500  1
  C  C56  1  0.59894400  0.25698400  0.37336000  1
  C  C57  1  0.99166700  0.99831200  0.97135100  1
  C  C58  1  0.91901200  0.91529600  0.93290900  1
  C  C59  1  0.82258800  0.93483900  0.94227600  1
  C  C60  1  0.00345100  0.94555500  0.94781900  1
  C  C61  1  0.81109500  0.98714500  0.96602200  1
  C  C62  1  0.89575100  0.02151100  0.98016600  1
  C  C63  1  0.96643900  0.12966900  0.01528700  1
  C  C64  1  0.06059100  0.13631200  0.99939500  1
  C  C65  1  0.88555500  0.07976600  0.00497900  1
  C  C66  1  0.08220900  0.03109400  0.98741000  1
  C  C67  1  0.10715800  0.00210900  0.46847400  1
  C  C68  1  0.08178200  0.11542900  0.43240400  1
  C  C69  1  0.07135700  0.19789800  0.44989300  1
  C  C70  1  0.10038400  0.01746500  0.44175300  1
  C  C71  1  0.07607900  0.18174200  0.47659500  1
  C  C72  1  0.09246600  0.08353500  0.48580400  1
  C  C73  1  0.08736400  0.96828300  0.52258700  1
  C  C74  1  0.07424500  0.87987800  0.50330300  1
  C  C75  1  0.09312400  0.06480000  0.51397500  1
  C  C76  1  0.13483600  0.89920500  0.47893000  1
  C  C77  1  0.03925300  0.25346500  0.23097700  1
  C  C78  1  0.01647800  0.15825800  0.27014200  1
  C  C79  1  0.95433300  0.08930000  0.25626800  1
  C  C80  1  0.05819500  0.24131900  0.25755600  1
  C  C81  1  0.93291600  0.10380100  0.23001100  1
  C  C82  1  0.97621400  0.18530700  0.21739200  1
  C  C83  1  0.02646600  0.25079700  0.17563600  1
  C  C84  1  0.11604000  0.30004300  0.18952800  1
  C  C85  1  0.96053500  0.19610700  0.18916000  1
  C  C86  1  0.08531300  0.33975200  0.21651600  1
  C  C87  1  0.00931400  0.75511600  0.71964400  1
  C  C88  1  0.07361000  0.83562900  0.68161300  1
  C  C89  1  0.12666300  0.90543800  0.69755300  1
  C  C90  1  0.01618800  0.75893400  0.69259600  1
  C  C91  1  0.12322200  0.89850800  0.72445200  1
  C  C92  1  0.06297300  0.82462300  0.73538700  1
  C  C93  1  0.96920200  0.77894400  0.77363500  1
  C  C94  1  0.89114900  0.73000200  0.75551100  1
  C  C95  1  0.05052500  0.82402800  0.76372800  1
  C  C96  1  0.94347400  0.67809000  0.73236600  1
  Cl  Cl1  1  0.69355100  0.20209400  0.10229100  1
  Cl  Cl2  1  0.29388000  0.21757900  0.08730600  1
  Cl  Cl3  1  0.09148500  0.59960300  0.58307200  1
  Cl  Cl4  1  0.06585500  0.19846100  0.62098400  1
  Cl  Cl5  1  0.24396900  0.83403600  0.86067700  1
  Cl  Cl6  1  0.64036000  0.82251300  0.84733100  1
  Cl  Cl7  1  0.04344000  0.83109000  0.34549000  1
  Cl  Cl8  1  0.06694700  0.44431700  0.35658700  1
  O  O1  1  0.90858300  0.35329300  0.08840800  1
  O  O2  1  0.05413400  0.18730200  0.05476300  1
  O  O3  1  0.10543100  0.25189700  0.13359400  1
  O  O4  1  0.93404200  0.22391100  0.13492100  1
  O  O5  1  0.08045700  0.37519000  0.08659000  1
  O  O6  1  0.90644300  0.04465200  0.10197100  1
  O  O7  1  0.07896800  0.06539300  0.10159500  1
  O  O8  1  0.88178300  0.16690900  0.05589500  1
  O  O9  1  0.09238800  0.85633200  0.55986700  1
  O  O10  1  0.22304500  0.98444500  0.60599600  1
  O  O11  1  0.91262800  0.98719300  0.60505300  1
  O  O12  1  0.93311900  0.81399400  0.59721800  1
  O  O13  1  0.06986700  0.02964700  0.56706300  1
  O  O14  1  0.08248900  0.76787800  0.63728500  1
  O  O15  1  0.06876700  0.94252500  0.64418700  1
  O  O16  1  0.24435600  0.81019000  0.60030600  1
  O  O17  1  0.02942300  0.81124000  0.81766900  1
  O  O18  1  0.86396000  0.97237600  0.84318900  1
  O  O19  1  0.84879400  0.66449200  0.85889600  1
  O  O20  1  0.02058300  0.68358300  0.86450100  1
  O  O21  1  0.85907800  0.78450900  0.81095000  1
  O  O22  1  0.02607000  0.86971600  0.89718800  1
  O  O23  1  0.85417400  0.85533900  0.89057700  1
  O  O24  1  0.03454800  0.99305600  0.85110300  1
  O  O25  1  0.06041500  0.05073500  0.38820900  1
  O  O26  1  0.91063000  0.22190400  0.35719900  1
  O  O27  1  0.22084000  0.22715300  0.35187700  1
  O  O28  1  0.19851200  0.05407200  0.34412500  1
  O  O29  1  0.07803400  0.22504000  0.39483400  1
  O  O30  1  0.02457300  0.05103300  0.30776400  1
  O  O31  1  0.05248000  0.22425400  0.31384400  1
  O  O32  1  0.88926000  0.04749000  0.35182700  1
