# Generated by REPEAT Assigner based on pymatgen
data_DB15-pcu_N108_E166_opt
_audit_creation_date              2022-05-24
_audit_creation_method            REPEAT_Assigner
_cell_length_a                    14.225514
_cell_length_b                    13.790817
_cell_length_c                    13.696696
_cell_angle_alpha                 109.713598
_cell_angle_beta                  93.263102
_cell_angle_gamma                 115.032602
_cell_volume                      2228.273799
_symmetry_space_group_name_H-M    P1
_symmetry_Int_Tables_number       1
loop_
    _symmetry_equiv_pos_site_id
    _symmetry_equiv_pos_as_xyz
    1  x,y,z
loop_
    _atom_site_type_symbol
    _atom_site_label
    _atom_site_fract_x
    _atom_site_fract_y
    _atom_site_fract_z
    _atom_type_partial_charge
    Zn  Zn1  0.755285  0.711372  0.791083  1.074932
    Zn  Zn2  0.231784  0.275889  0.205683  1.068572
    Zn  Zn3  0.993852  0.993161  0.998665  0.006728
    C   C1   0.975760  0.925581  0.669536  0.737596
    C   C2   0.940982  0.662263  0.986812  0.921049
    C   C3   0.670890  0.951919  0.971037  0.788188
    C   C4   0.012216  0.064920  0.329528  0.910803
    C   C5   0.048530  0.324023  0.007618  0.696570
    C   C6   0.318780  0.037102  0.029579  1.006592
    N   N1   0.653935  0.852728  0.893674  -0.660368
    N   N2   0.890881  0.826884  0.657360  -0.583740
    N   N3   0.862981  0.723531  0.907509  -0.349035
    N   N4   0.999866  0.779715  0.028681  -0.507975
    N   N5   0.747521  0.855774  0.896512  -0.083978
    N   N6   0.947812  0.816054  0.978570  0.321383
    N   N7   0.886485  0.831884  0.754298  -0.167934
    N   N8   0.966913  0.930317  0.824698  0.378515
    N   N9   0.821458  0.953570  0.974002  0.242323
    N   N10  0.023382  0.992141  0.773556  -0.649812
    N   N11  0.856950  0.627753  0.911796  -0.513875
    N   N12  0.775439  0.016725  0.022359  -0.595205
    N   N13  0.333689  0.135893  0.105975  -0.637042
    N   N14  0.096554  0.163187  0.339922  -0.581050
    N   N15  0.124818  0.262674  0.088535  -0.329680
    N   N16  0.988437  0.206702  0.966877  -0.484147
    N   N17  0.239652  0.131446  0.101477  -0.155351
    N   N18  0.039621  0.170250  0.017982  0.380123
    N   N19  0.100730  0.155977  0.242502  -0.205124
    N   N20  0.020691  0.056522  0.173070  0.358300
    N   N21  0.166853  0.033072  0.023796  0.223356
    N   N22  0.964586  0.996270  0.225652  -0.630069
    N   N23  0.132135  0.358313  0.082918  -0.504984
    N   N24  0.214425  0.970905  0.976995  -0.579971
    H   H1   0.114805  0.200513  0.532782  0.001198
    N   N25  0.927759  0.885801  0.485395  -0.673991
    H   H2   0.880687  0.853704  0.324857  -0.021023
    H   H3   0.107366  0.138906  0.679678  0.144603
    C   C7   0.996941  0.030796  0.418487  -0.617651
    C   C8   0.930095  0.917598  0.402897  0.583391
    C   C9   0.991100  0.962472  0.582695  0.390206
    C   C10  0.058417  0.076371  0.601069  -0.427989
    C   C11  0.061202  0.110930  0.518271  0.355821
    H   H4   0.521066  0.177385  0.141404  -0.021406
    N   N26  0.484875  0.897036  0.925561  -0.654903
    H   H5   0.321438  0.847022  0.883824  -0.026961
    H   H6   0.673892  0.143579  0.118619  0.185684
    C   C12  0.409040  0.013729  0.013488  -0.717680
    C   C13  0.398420  0.913071  0.936095  0.588631
    C   C14  0.582532  0.977235  0.989133  0.419640
    C   C15  0.596124  0.078694  0.067290  -0.551354
    C   C16  0.509006  0.096978  0.079485  0.472888
    H   H7   0.131977  0.701521  0.080501  0.028591
    N   N27  0.921549  0.378392  0.950528  -0.641133
    H   H8   0.813770  0.434084  0.914699  -0.063135
    H   H9   0.179331  0.551350  0.078187  0.088307
    C   C17  0.969551  0.577950  0.999633  -0.687938
    C   C18  0.894792  0.460908  0.951566  0.648298
    C   C19  0.021847  0.409230  0.994251  0.298480
    C   C20  0.098320  0.525510  0.042203  -0.314533
    C   C21  0.072043  0.610813  0.045286  0.318268
