# Generated by REPEAT Assigner based on pymatgen
data_DB15-sxc_N65_E173_opt
_audit_creation_date              2022-05-24
_audit_creation_method            REPEAT_Assigner
_cell_length_a                    11.734599
_cell_length_b                    9.737603
_cell_length_c                    39.121595
_cell_angle_alpha                 89.986251
_cell_angle_beta                  89.990955
_cell_angle_gamma                 120.828171
_cell_volume                      3838.683984
_symmetry_space_group_name_H-M    P1
_symmetry_Int_Tables_number       1
loop_
    _symmetry_equiv_pos_site_id
    _symmetry_equiv_pos_as_xyz
    1  x,y,z
loop_
    _atom_site_type_symbol
    _atom_site_label
    _atom_site_fract_x
    _atom_site_fract_y
    _atom_site_fract_z
    _atom_type_partial_charge
    O   O1   0.809307  0.851804  0.055565  -0.786439
    La  La1  0.980966  0.145369  0.065089  1.958780
    O   O2   0.130267  0.097143  0.026358  -0.640823
    O   O3   0.874506  0.007095  0.007815  -0.684159
    C   C1   0.807642  0.865742  0.022369  0.845526
    O   O4   0.229819  0.220180  0.973604  -0.677590
    La  La2  0.251849  0.436637  0.936109  1.915277
    C   C2   0.036406  0.190982  0.889734  0.804048
    C   C3   0.201689  0.114334  0.998484  0.852652
    C   C4   0.451922  0.736026  0.969180  0.741984
    O   O5   0.159227  0.223612  0.887895  -0.780045
    O   O6   0.998100  0.246014  0.915175  -0.672431
    C   C5   0.087536  0.476544  0.009266  0.769924
    O   O7   0.395881  0.738773  0.940566  -0.775443
    O   O8   0.125168  0.410654  0.986508  -0.532056
    O   O9   0.038242  0.391407  0.036779  -0.700485
    O   O10  0.411537  0.599893  0.985009  -0.672813
    C   C6   0.174371  0.365691  0.119569  0.845532
    O   O11  0.061269  0.357497  0.113585  -0.725962
    O   O12  0.214652  0.290602  0.099601  -0.705737
    O   O13  0.663557  0.455947  0.335862  -0.699311
    La  La3  0.545154  0.589138  0.309303  1.897592
    O   O14  0.355821  0.417036  0.346358  -0.489531
    O   O15  0.602716  0.588812  0.372377  -0.610975
    C   C7   0.658682  0.504224  0.366844  0.602369
    O   O16  0.217192  0.292353  0.389429  -0.453074
    La  La4  0.136472  0.440728  0.421429  1.847320
    C   C8   0.257650  0.343470  0.478961  0.424490
    C   C9   0.291299  0.286845  0.364897  0.627203
    C   C10  0.034824  0.603005  0.377924  1.036701
    O   O17  0.138363  0.247556  0.466960  -0.577008
    O   O18  0.334463  0.483312  0.464416  -0.642528
    C   C11  0.385999  0.743210  0.363183  0.718863
    O   O19  0.034150  0.611927  0.411190  -0.781474
    O   O20  0.319630  0.610422  0.381224  -0.506348
    O   O21  0.463498  0.742411  0.338881  -0.640625
    O   O22  0.078023  0.517317  0.363052  -0.795504
    C   C12  0.394694  0.611347  0.247772  0.565541
    O   O23  0.515570  0.725293  0.255324  -0.729003
    O   O24  0.333853  0.483229  0.267079  -0.647815
    O   O25  0.400814  0.817137  0.728746  -0.697716
    La  La5  0.210015  0.868540  0.726390  2.010503
    O   O26  0.353564  0.137974  0.701629  -0.613074
    O   O27  0.366494  0.890880  0.676633  -0.731803
    C   C13  0.441038  0.863948  0.697465  0.679117
    O   O28  0.289520  0.231019  0.655189  -0.770023
    La  La6  0.095539  0.141172  0.619010  1.993837
    C   C14  0.236001  0.041726  0.567299  0.779909
    C   C15  0.376574  0.247206  0.678495  0.777778
    C   C16  0.898492  0.196127  0.654835  0.603038
    O   O29  0.286184  0.190912  0.576750  -0.732794
    O   O30  0.132268  0.928067  0.583378  -0.732341
    C   C17  0.928411  0.765498  0.667507  0.790340
    O   O31  0.905222  0.197195  0.621440  -0.765399
    O   O32  0.948483  0.875588  0.644945  -0.653422
    O   O33  0.017396  0.783951  0.690323  -0.750338
    O   O34  0.982753  0.175384  0.673036  -0.660791
    C   C18  0.029237  0.937748  0.769996  0.706224
    O   O35  0.994910  0.792692  0.760478  -0.718061
    O   O36  0.145555  0.059097  0.761361  -0.741053
    H   H1   0.232317  0.053931  0.929192  0.111392
    H   H2   0.106662  0.862090  0.884466  0.068494
    H   H3   0.982649  0.574743  0.897078  0.158370
    H   H4   0.987139  0.478335  0.953487  0.148818
    H   H5   0.079786  0.676668  0.028921  0.106816
    H   H6   0.241050  0.716114  0.015434  0.171605
    H   H7   0.246774  0.949612  0.020614  0.092379
    H   H8   0.361229  0.074526  0.988130  0.108046
    C   C19  0.118074  0.712809  0.974961  0.126932
    C   C20  0.180457  0.877493  0.968352  0.256923
    C   C21  0.178037  0.928391  0.935471  -0.200490
    C   C22  0.108399  0.820300  0.909953  0.042055
    C   C23  0.039661  0.659442  0.916967  -0.223410
    C   C24  0.044344  0.605630  0.949178  -0.308799
    C   C25  0.133947  0.651831  0.008952  -0.366751
    C   C26  0.254785  0.003614  0.995226  -0.441103
    H   H9   0.069486  0.998299  0.370064  0.145496
    H   H10  0.994770  0.113136  0.414420  -0.006683
    H   H11  0.814825  0.938041  0.453284  0.042740
    H   H12  0.698813  0.648391  0.445592  0.218696
    H   H13  0.665654  0.421755  0.416492  0.046508
    H   H14  0.786184  0.426814  0.386919  -0.025703
    H   H15  0.900348  0.601704  0.341092  0.094798
    H   H16  0.058345  0.782074  0.342397  0.146066
    C   C27  0.826075  0.657625  0.405355  0.154451
    C   C28  0.929918  0.756484  0.383849  0.170183
    C   C29  0.990928  0.920301  0.387288  -0.295325
    C   C30  0.949710  0.985225  0.412255  -0.081691
    C   C31  0.848584  0.886954  0.434120  0.010470
    C   C32  0.785393  0.723655  0.430279  -0.278169
    C   C33  0.734180  0.489054  0.395201  -0.056703
    C   C34  0.980225  0.686456  0.358222  -0.416128
    H   H17  0.444854  0.167193  0.626326  0.222545
    H   H18  0.585276  0.165347  0.581895  0.127100
    H   H19  0.816607  0.383403  0.576412  0.068824
    H   H20  0.911093  0.599801  0.617594  0.193834
    H   H21  0.786586  0.576215  0.698381  0.087285
    H   H22  0.727506  0.690889  0.676742  -0.018546
    H   H23  0.560906  0.400518  0.702273  0.024342
    H   H24  0.501900  0.499616  0.674728  0.060135
    C   C35  0.729957  0.510116  0.646566  0.012038
    C   C36  0.596955  0.389401  0.648966  0.067574
    C   C37  0.545830  0.265933  0.625274  -0.140865
    C   C38  0.625121  0.264183  0.599561  -0.165185
    C   C39  0.755049  0.385817  0.596684  0.138692
    C   C40  0.807735  0.508543  0.620088  -0.417435
    C   C41  0.788556  0.634825  0.673913  0.033647
    C   C42  0.512139  0.393208  0.677538  -0.160455
    H   H25  0.589913  0.831566  0.752968  0.128477
    H   H26  0.693312  0.020365  0.799768  0.107952
    H   H27  0.842519  0.305442  0.787889  0.129144
    H   H28  0.899285  0.398947  0.729045  0.101518
    H   H29  0.855897  0.368659  0.672891  -0.039014
    H   H30  0.715913  0.198355  0.655379  0.047297
    H   H31  0.599346  0.944016  0.661074  0.039989
    H   H32  0.576372  0.783311  0.688272  0.105305
    C   C43  0.767725  0.169439  0.706732  -0.140789
    C   C44  0.672309  0.010061  0.713574  0.162560
    C   C45  0.654121  0.956875  0.747083  -0.182572
    C   C46  0.713284  0.062726  0.773664  -0.117757
    C   C47  0.797686  0.222033  0.767000  -0.174442
    C   C48  0.828510  0.273998  0.733735  -0.107319
    C   C49  0.804631  0.236559  0.671420  0.176031
    C   C50  0.575854  0.896640  0.687396  -0.160209
    H   H33  0.613626  0.926280  0.910088  0.134225
    H   H34  0.704698  0.818476  0.868969  0.089763
    H   H35  0.823874  0.687531  0.888986  0.120944
    H   H36  0.837079  0.646502  0.950158  0.157926
    H   H37  0.769954  0.641370  0.004740  0.109838
    H   H38  0.624347  0.654074  0.010743  0.170570
    H   H39  0.588294  0.986394  0.969675  0.097471
    H   H40  0.606945  0.877060  0.004279  0.030580
    C   C51  0.733373  0.764672  0.965034  0.024143
    C   C52  0.674019  0.848493  0.953955  0.279522
    C   C53  0.666938  0.870263  0.919289  -0.218143
    C   C54  0.718293  0.809963  0.896045  -0.136469
    C   C55  0.783151  0.734280  0.907235  -0.207653
    C   C56  0.791025  0.712173  0.941688  -0.173251
    C   C57  0.728195  0.720097  0.001550  -0.345514
    C   C58  0.584531  0.873872  0.976779  -0.248922
    H   H41  0.222347  0.182340  0.306540  0.209450
    H   H42  0.152289  0.002451  0.258476  0.119574
    H   H43  0.175790  0.767340  0.259344  0.034499
    H   H44  0.270702  0.710325  0.308065  0.305313
    H   H45  0.296251  0.855552  0.389599  0.102766
    H   H46  0.461845  0.989693  0.374269  0.172660
    H   H47  0.289742  0.092130  0.390089  0.207865
    H   H48  0.442772  0.226594  0.369163  0.210988
    C   C59  0.308828  0.919981  0.336698  0.403677
    C   C60  0.292071  0.052970  0.336413  0.085860
    C   C61  0.236242  0.081265  0.307997  -0.337925
    C   C62  0.196200  0.979659  0.280413  -0.126622
    C   C63  0.210199  0.848160  0.280848  -0.004352
    C   C64  0.265885  0.817890  0.308677  -0.383740
    C   C65  0.364946  0.882654  0.367791  -0.620001
    C   C66  0.333532  0.164140  0.366638  -0.567156
    H   H49  0.021592  0.159425  0.159162  -0.008783
    H   H50  0.870750  0.072209  0.206827  0.104652
    H   H51  0.920990  0.241217  0.257692  0.135138
    H   H52  0.129772  0.496738  0.261240  0.126012
    H   H53  0.313515  0.729244  0.219871  0.033774
    H   H54  0.396805  0.651614  0.194974  0.053871
    H   H55  0.281552  0.579678  0.146980  0.119407
    H   H56  0.340080  0.440763  0.152992  0.124430
    C   C67  0.197672  0.476548  0.211767  -0.068194
    C   C68  0.165120  0.387346  0.181752  0.161632
    C   C69  0.048129  0.239287  0.180723  -0.065730
    C   C70  0.961702  0.187056  0.208006  -0.090362
    C   C71  0.989859  0.281380  0.236509  -0.258208
    C   C72  0.107524  0.425102  0.238399  -0.032192
    C   C73  0.328756  0.626698  0.216702  0.055304
    C   C74  0.251255  0.452390  0.150435  -0.403001
    H   H57  0.522156  0.025637  0.525849  0.150536
    H   H58  0.726541  0.251028  0.503722  0.056972
    H   H59  0.734912  0.498921  0.487405  0.065515
    H   H60  0.535442  0.518169  0.491352  0.114968
    H   H61  0.313789  0.393774  0.531018  0.034120
    H   H62  0.203568  0.187083  0.519762  -0.035124
    H   H63  0.209680  0.947408  0.516872  0.097606
    H   H64  0.312159  0.908298  0.544209  0.094987
    C   C75  0.411721  0.279533  0.509863  0.223567
    C   C76  0.409525  0.142373  0.521548  0.062024
    C   C77  0.522587  0.132560  0.518188  -0.317894
    C   C78  0.638405  0.259413  0.505650  0.000786
    C   C79  0.642754  0.397940  0.496288  -0.172026
    C   C80  0.529963  0.407746  0.498326  -0.155881
    C   C81  0.293463  0.299267  0.512046  0.025068
    C   C82  0.288565  0.000595  0.536604  -0.232437
    H   H65  0.049807  0.417580  0.856727  0.038111
    H   H66  0.139084  0.591756  0.807416  0.009198
    H   H67  0.128492  0.479579  0.750532  0.052763
    H   H68  0.026472  0.191365  0.743318  0.166472
    H   H69  0.844243  0.920462  0.773257  0.086414
    H   H70  0.902182  0.886364  0.812298  0.074354
    H   H71  0.846949  0.089599  0.867182  0.077957
    H   H72  0.937646  0.986155  0.859868  0.137089
    C   C83  0.991103  0.137852  0.796725  0.172025
    C   C84  0.997066  0.201507  0.829236  -0.131508
    C   C85  0.048424  0.364896  0.832320  -0.175649
    C   C86  0.098136  0.464576  0.804408  0.046687
    C   C87  0.092133  0.401890  0.772601  -0.265849
    C   C88  0.036242  0.239464  0.768762  0.102336
    C   C89  0.933075  0.963204  0.789529  -0.251973
    C   C90  0.944403  0.102875  0.861264  -0.067391
