# Generated by REPEAT Assigner based on pymatgen
data_DB15-cds_N128_E65_opt
_audit_creation_date              2022-05-24
_audit_creation_method            REPEAT_Assigner
_cell_length_a                    15.115327
_cell_length_b                    14.983352
_cell_length_c                    30.060889
_cell_angle_alpha                 90.990191
_cell_angle_beta                  90.986329
_cell_angle_gamma                 89.988064
_cell_volume                      6806.112684
_symmetry_space_group_name_H-M    P1
_symmetry_Int_Tables_number       1
loop_
    _symmetry_equiv_pos_site_id
    _symmetry_equiv_pos_as_xyz
    1  x,y,z
loop_
    _atom_site_type_symbol
    _atom_site_label
    _atom_site_fract_x
    _atom_site_fract_y
    _atom_site_fract_z
    _atom_type_partial_charge
    C   C1   0.783656  0.930781  0.999606  -0.491594
    C   C2   0.826055  0.936439  0.958585  0.534706
    C   C3   0.781380  0.937542  0.918084  -0.321504
    C   C4   0.843888  0.937866  0.885931  -0.308678
    C   C5   0.925325  0.937442  0.907503  0.481882
    C   C6   0.014725  0.934359  0.113229  -0.376723
    H   H1   0.180732  0.950738  0.850395  0.183163
    H   H2   0.301006  0.971682  0.910733  0.165864
    H   H3   0.306769  0.976507  0.087780  0.163764
    H   H4   0.191222  0.956590  0.147915  0.183237
    N   N1   0.101331  0.953152  0.951728  -0.649449
    N   N2   0.104396  0.953361  0.046571  -0.606700
    N   N3   0.917626  0.938195  0.047084  -0.656801
    N   N4   0.914670  0.939066  0.952204  -0.621498
    H   H5   0.839681  0.933237  0.148596  0.185126
    H   H6   0.717385  0.933452  0.088388  0.168887
    H   H7   0.711104  0.939675  0.911149  0.165597
    H   H8   0.828606  0.940441  0.850762  0.182307
    Pd  Pd1  0.009532  0.945033  0.998801  0.718653
    C   C7   0.088008  0.945632  0.907209  0.490588
    C   C8   0.167618  0.952631  0.885591  -0.302651
    C   C9   0.231460  0.965461  0.917691  -0.331320
    C   C10  0.189322  0.966035  0.958165  0.572374
    C   C11  0.233384  0.977561  0.999265  -0.480460
    C   C12  0.191979  0.967219  0.040273  0.523451
    C   C13  0.236915  0.968765  0.080721  -0.312414
    C   C14  0.175566  0.956291  0.112746  -0.313141
    C   C15  0.094592  0.946803  0.091151  0.473531
    C   C16  0.006112  0.934820  0.885355  -0.367139
    C   C17  0.931989  0.935348  0.091573  0.514271
    C   C18  0.852227  0.933017  0.113340  -0.312851
    C   C19  0.787182  0.933051  0.081305  -0.334335
    C   C20  0.828779  0.934660  0.040719  0.576567
    C   C21  0.961746  0.057182  0.613821  -0.413305
    C   C22  0.969007  0.138850  0.592014  0.491462
    C   C23  0.971085  0.220763  0.613941  -0.270240
    C   C24  0.974416  0.284252  0.582128  -0.366088
    C   C25  0.975323  0.239787  0.541514  0.541183
    C   C26  0.946618  0.828014  0.498579  -0.398469
    H   H9   0.013478  0.350091  0.413840  0.182609
    H   H10  0.027880  0.227131  0.354272  0.160631
    H   H11  0.987169  0.874202  0.351512  0.144375
    H   H12  0.954681  0.756683  0.409558  0.178530
    N   N5   0.990840  0.148404  0.453851  -0.633117
    N   N6   0.975906  0.959018  0.453155  -0.592938
    N   N7   0.960709  0.960709  0.546903  -0.614490
    N   N8   0.973349  0.150379  0.547457  -0.614545
    H   H13  0.951030  0.757929  0.586866  0.172527
    H   H14  0.960860  0.879029  0.647870  0.153708
    H   H15  0.971576  0.236103  0.649163  0.160205
    H   H16  0.977618  0.354937  0.589483  0.191487
    Pd  Pd2  0.974823  0.054633  0.500347  0.700650
    C   C27  0.990704  0.237932  0.460113  0.554157
    C   C28  0.006630  0.279855  0.420443  -0.354279
    C   C29  0.016215  0.214215  0.388901  -0.281472
    C   C30  0.006280  0.133747  0.410116  0.510656
    C   C31  0.010123  0.050390  0.388415  -0.431087
    C   C32  0.990375  0.969937  0.409182  0.491794
    C   C33  0.982263  0.889101  0.386644  -0.271487
    C   C34  0.963412  0.826669  0.417518  -0.319220
    C   C35  0.960458  0.870773  0.458231  0.463222
    C   C36  0.978588  0.282977  0.500667  -0.479191
    C   C37  0.952993  0.871638  0.540034  0.506485
    C   C38  0.952260  0.828538  0.580303  -0.307770
    C   C39  0.957625  0.893129  0.612786  -0.299538
    C   C40  0.960829  0.974202  0.591559  0.495221
    C   C41  0.017447  0.918581  0.162677  0.100790
    H   H17  0.964586  0.871660  0.171879  -0.012150
    H   H18  0.078559  0.883710  0.173229  -0.001341
    C   C42  0.976847  0.075577  0.262273  -0.068208
    C   C43  0.993764  0.988024  0.237528  0.043408
    C   C44  0.008568  0.006180  0.188618  -0.007410
    C   C45  0.034798  0.047661  0.339955  0.087793
    C   C46  0.952719  0.059996  0.310507  0.056171
    H   H19  0.084867  0.099277  0.333221  0.013448
    H   H20  0.069077  0.984941  0.330949  0.015033
    H   H21  0.915405  0.118982  0.322605  -0.009911
    H   H22  0.908985  0.000934  0.312629  -0.005582
    H   H23  0.035799  0.119313  0.260611  0.010050
    H   H24  0.920316  0.109786  0.245895  0.015530
    H   H25  0.053030  0.954672  0.251723  -0.009315
    H   H26  0.935388  0.943899  0.240599  0.000229
    H   H27  0.069565  0.046350  0.185186  0.005657
    H   H28  0.951783  0.044501  0.175102  -0.000650
    C   C47  0.005285  0.918666  0.835660  0.091178
    H   H29  0.062633  0.877320  0.825873  -0.005436
    H   H30  0.947975  0.877718  0.824499  -0.002239
    C   C48  0.027517  0.076633  0.737692  -0.044060
    C   C49  0.014357  0.988830  0.761296  0.039415
    C   C50  0.005336  0.006508  0.810955  0.001225
    C   C51  0.949003  0.059370  0.663579  0.078747
    C   C52  0.038281  0.061624  0.687846  0.048338
    H   H31  0.907975  0.117130  0.673612  0.013583
    H   H32  0.909382  0.002386  0.674777  0.022028
    H   H33  0.078179  0.117236  0.674950  -0.011784
    H   H34  0.074347  0.998409  0.681433  -0.007488
    H   H35  0.970983  0.121854  0.744212  0.000849
    H   H36  0.088735  0.108676  0.751087  0.013531
    H   H37  0.953864  0.954888  0.748302  -0.009832
    H   H38  0.072581  0.945379  0.755534  -0.001920
    H   H39  0.942709  0.042816  0.817115  0.002753
    H   H40  0.061309  0.048505  0.823107  -0.005802
    C   C53  0.685356  0.911703  0.999582  0.179416
    H   H41  0.664781  0.871905  0.969914  -0.003206
    H   H42  0.668568  0.867276  0.027181  -0.004525
    C   C54  0.480913  0.936401  0.981590  -0.038159
    C   C55  0.537616  0.981576  0.017883  -0.019618
    C   C56  0.631881  0.997958  0.002372  -0.005156
    C   C57  0.330530  0.001695  0.999114  0.151261
    C   C58  0.387546  0.917638  0.997591  0.018768
    H   H43  0.345042  0.045111  0.970778  0.001597
    H   H44  0.349242  0.043941  0.028271  -0.001287
    H   H45  0.356390  0.868638  0.974151  -0.004328
    H   H46  0.390780  0.887253  0.030931  0.003040
    H   H47  0.478139  0.978471  0.951618  0.015720
    H   H48  0.510854  0.871401  0.972312  0.003322
    H   H49  0.508145  0.047168  0.026575  0.002883
    H   H50  0.539131  0.940226  0.048120  0.010722
    H   H51  0.664800  0.044101  0.026654  -0.002555
    H   H52  0.630091  0.030364  0.969501  0.004917
    C   C59  0.925655  0.729823  0.497414  0.146955
    H   H53  0.884880  0.710743  0.525912  -0.029710
    H   H54  0.883308  0.711899  0.468220  -0.000433
    C   C60  0.061719  0.519577  0.487235  0.005260
    C   C61  0.989617  0.578731  0.506336  0.095040
    C   C62  0.010458  0.675392  0.497056  0.011556
    C   C63  0.969692  0.382968  0.500313  0.209367
    C   C64  0.059950  0.426808  0.506871  0.010995
    H   H55  0.937906  0.404924  0.468973  -0.010854
    H   H56  0.923590  0.406622  0.526181  -0.035597
    H   H57  0.110639  0.385391  0.490087  -0.008587
    H   H58  0.077301  0.431409  0.542792  -0.006599
    H   H59  0.053147  0.514488  0.450558  -0.011632
    H   H60  0.127133  0.549989  0.495130  -0.013186
    H   H61  0.925118  0.561276  0.490374  -0.037962
    H   H62  0.985806  0.570014  0.542817  -0.022881
    H   H63  0.041693  0.680008  0.464116  -0.018452
    H   H64  0.057313  0.701326  0.522950  -0.001098
