data_DB15-pcu_N37_E72_opt_repeat
_audit_creation_date              2024-02-20
_audit_creation_method            'Materials Studio'
_symmetry_space_group_name_H-M    'P1'
_symmetry_Int_Tables_number       1
_symmetry_cell_setting            triclinic
loop_
_symmetry_equiv_pos_as_xyz
  x,y,z
_cell_length_a                    15.2487
_cell_length_b                    10.9480
_cell_length_c                    11.2661
_cell_angle_alpha                 94.4629
_cell_angle_beta                  95.1681
_cell_angle_gamma                 111.8154
loop_
_atom_site_label
_atom_site_type_symbol
_atom_site_fract_x
_atom_site_fract_y
_atom_site_fract_z
_atom_site_U_iso_or_equiv
_atom_site_adp_type
_atom_site_occupancy
C1     C     0.97721   0.22598   0.01880   0.00000  Uiso   1.00
C2     C     0.03426   0.76620   0.01269   0.00000  Uiso   1.00
C3     C     0.32593   0.03107   0.99859   0.00000  Uiso   1.00
C4     C     0.66588   0.92935   0.98840   0.00000  Uiso   1.00
Nd1    Nd    0.15613   0.08341   0.03125   0.00000  Uiso   1.00
Nd2    Nd    0.84339   0.89005   0.98950   0.00000  Uiso   1.00
O1     O     0.91751   0.94835   0.19332   0.00000  Uiso   1.00
O2     O     0.08089   0.03856   0.21040   0.00000  Uiso   1.00
O3     O     0.90381   0.93299   0.79685   0.00000  Uiso   1.00
O4     O     0.06550   0.02763   0.84076   0.00000  Uiso   1.00
O5     O     0.89457   0.12589   0.00142   0.00000  Uiso   1.00
O6     O     0.05771   0.20869   0.02815   0.00000  Uiso   1.00
O7     O     0.96837   0.81576   0.00454   0.00000  Uiso   1.00
O8     O     0.12374   0.84629   0.02888   0.00000  Uiso   1.00
O9     O     0.30903   0.06716   0.10482   0.00000  Uiso   1.00
O10    O     0.26559   0.01995   0.90378   0.00000  Uiso   1.00
O11    O     0.71630   0.94016   0.09167   0.00000  Uiso   1.00
O12    O     0.69599   0.89937   0.88909   0.00000  Uiso   1.00
C5     C     0.00121   0.99612   0.25894   0.00000  Uiso   1.00
C6     C     0.98855   0.98230   0.76208   0.00000  Uiso   1.00
C7     C     0.91625   0.94809   0.43401   0.00000  Uiso   1.00
N1     N     0.17723   0.09626   0.42839   0.00000  Uiso   1.00
H1     H     0.84952   0.91109   0.37544   0.00000  Uiso   1.00
H2     H     0.84344   0.90378   0.58542   0.00000  Uiso   1.00
H3     H     0.21237   0.19316   0.47039   0.00000  Uiso   1.00
H4     H     0.21566   0.04001   0.45679   0.00000  Uiso   1.00
H5     H     0.14753   0.07538   0.65252   0.00000  Uiso   1.00
C8     C     0.00274   0.99758   0.38967   0.00000  Uiso   1.00
C9     C     0.08639   0.04394   0.46949   0.00000  Uiso   1.00
C10    C     0.08212   0.03935   0.59124   0.00000  Uiso   1.00
C11    C     0.99518   0.98873   0.63400   0.00000  Uiso   1.00
C12    C     0.91251   0.94360   0.55471   0.00000  Uiso   1.00
C13    C     0.46872   0.01070   0.09554   0.00000  Uiso   1.00
N2     N     0.38350   0.96071   0.77025   0.00000  Uiso   1.00
H6     H     0.45018   0.03617   0.18172   0.00000  Uiso   1.00
H7     H     0.59236   0.99293   0.17855   0.00000  Uiso   1.00
H8     H     0.42696   0.02715   0.71820   0.00000  Uiso   1.00
H9     H     0.36382   0.86495   0.72661   0.00000  Uiso   1.00
H10    H     0.54236   0.91890   0.79543   0.00000  Uiso   1.00
C14    C     0.41236   0.00316   0.98990   0.00000  Uiso   1.00
C15    C     0.43923   0.96938   0.88135   0.00000  Uiso   1.00
C16    C     0.52172   0.94441   0.88026   0.00000  Uiso   1.00
C17    C     0.57742   0.95264   0.98661   0.00000  Uiso   1.00
C18    C     0.55025   0.98563   0.09395   0.00000  Uiso   1.00
C19    C     0.08560   0.59042   0.06251   0.00000  Uiso   1.00
N3     N     0.84498   0.56108   0.93642   0.00000  Uiso   1.00
H11    H     0.15578   0.66379   0.09435   0.00000  Uiso   1.00
H12    H     0.13183   0.43783   0.09977   0.00000  Uiso   1.00
H13    H     0.82100   0.51291   0.84912   0.00000  Uiso   1.00
H14    H     0.79017   0.52325   0.98894   0.00000  Uiso   1.00
H15    H     0.83950   0.31948   0.95321   0.00000  Uiso   1.00
C20    C     0.01199   0.62542   0.01903   0.00000  Uiso   1.00
C21    C     0.92226   0.52779   0.98230   0.00000  Uiso   1.00
C22    C     0.90846   0.39588   0.98568   0.00000  Uiso   1.00
C23    C     0.98403   0.36247   0.02532   0.00000  Uiso   1.00
C24    C     0.07177   0.46046   0.06581   0.00000  Uiso   1.00
