# generated using pymatgen
data_CeH18C15S3(N2O)6
_symmetry_space_group_name_H-M   'P 1'
_cell_length_a   23.85104000
_cell_length_b   21.37576000
_cell_length_c   20.98152000
_cell_angle_alpha   106.63152000
_cell_angle_beta   90.84352900
_cell_angle_gamma   113.88226600
_symmetry_Int_Tables_number   1
_chemical_formula_structural   CeH18C15S3(N2O)6
_chemical_formula_sum   'Ce2 H36 C30 S6 N24 O12'
_cell_volume   9267.30005709
_cell_formula_units_Z   2
loop_
 _symmetry_equiv_pos_site_id
 _symmetry_equiv_pos_as_xyz
  1  'x, y, z'
loop_
 _atom_site_type_symbol
 _atom_site_label
 _atom_site_symmetry_multiplicity
 _atom_site_fract_x
 _atom_site_fract_y
 _atom_site_fract_z
 _atom_site_occupancy
  Ce  Ce1  1  0.09676000  0.05704200  0.02420800  1
  Ce  Ce2  1  0.90351300  0.94314300  0.97578300  1
  H  H1  1  0.06227300  0.14223900  0.43968000  1
  H  H2  1  0.07288600  0.12944000  0.35857100  1
  H  H3  1  0.03972500  0.02461700  0.19974200  1
  H  H4  1  0.97652300  0.93933900  0.19571400  1
  H  H5  1  0.00464800  0.07681900  0.51439700  1
  H  H6  1  0.06502400  0.04822300  0.48865000  1
  H  H7  1  0.93799700  0.85807100  0.56033500  1
  H  H8  1  0.92739400  0.87085400  0.64144500  1
  H  H9  1  0.96053700  0.97560100  0.80026600  1
  H  H10  1  0.02370400  0.06091300  0.80431700  1
  H  H11  1  0.99559900  0.92350200  0.48562600  1
  H  H12  1  0.93522300  0.95209700  0.51137600  1
  H  H13  1  0.39615500  0.92589300  0.09627200  1
  H  H14  1  0.34053700  0.95557900  0.11099900  1
  H  H15  1  0.26414800  0.00716000  0.09815800  1
  H  H16  1  0.29591000  0.04336000  0.03185700  1
  H  H17  1  0.47689900  0.93152100  0.02081800  1
  H  H18  1  0.48792000  0.02083200  0.07298000  1
  H  H19  1  0.60416500  0.07431800  0.90348800  1
  H  H20  1  0.65977600  0.04461500  0.88878000  1
  H  H21  1  0.73615500  0.99298400  0.90166500  1
  H  H22  1  0.70437700  0.95686300  0.96800200  1
  H  H23  1  0.52342700  0.06875200  0.97897300  1
  H  H24  1  0.51240400  0.97943900  0.92681500  1
  H  H25  1  0.98370900  0.65108100  0.13127700  1
  H  H26  1  0.96814600  0.71016000  0.10400700  1
  H  H27  1  0.04191000  0.78652200  0.93020300  1
  H  H28  1  0.96892200  0.74881600  0.96121200  1
  H  H29  1  0.93694800  0.50371700  0.00582300  1
  H  H30  1  0.99748800  0.53318000  0.07525500  1
  H  H31  1  0.01610600  0.34901300  0.86966300  1
  H  H32  1  0.03167200  0.28990400  0.89687600  1
  H  H33  1  0.95824100  0.21342800  0.07061300  1
  H  H34  1  0.03109500  0.25121800  0.03938900  1
  H  H35  1  0.06301400  0.49640700  0.99521300  1
  H  H36  1  0.00247700  0.46695900  0.92578200  1
  C  C1  1  0.96566300  0.98154100  0.11822900  1
  C  C2  1  0.20122600  0.02082500  0.03647500  1
  C  C3  1  0.99185800  0.13725000  0.01893300  1
  C  C4  1  0.03460300  0.01869800  0.88177900  1
  C  C5  1  0.79905600  0.97935400  0.96341100  1
  C  C6  1  0.00823700  0.86276800  0.98153900  1
  C  C7  1  0.96284600  0.00866100  0.31498700  1
  C  C8  1  0.98866500  0.99280300  0.18930700  1
  C  C9  1  0.98696500  0.00782500  0.41288600  1
  C  C10  1  0.01420300  0.03091100  0.48526200  1
  C  C11  1  0.03741800  0.99165300  0.68503100  1
  C  C12  1  0.01159300  0.00744800  0.81070700  1
  C  C13  1  0.01328500  0.99249400  0.58713800  1
  C  C14  1  0.98604400  0.96941000  0.51476300  1
  C  C15  1  0.31663000  0.94025700  0.97740100  1
  C  C16  1  0.25469600  0.00372200  0.04507400  1
  C  C17  1  0.41320800  0.96870100  0.99196300  1
  C  C18  1  0.47642700  0.98318800  0.02076900  1
  C  C19  1  0.68369200  0.06000000  0.02239100  1
  C  C20  1  0.74560000  0.99646700  0.95476400  1
  C  C21  1  0.58711700  0.03157300  0.00783300  1
  C  C22  1  0.52389900  0.01708500  0.97902600  1
  C  C23  1  0.04529700  0.70850900  0.01959200  1
  C  C24  1  0.01548300  0.79474900  0.97241800  1
  C  C25  1  0.01814000  0.59808500  0.01074000  1
  C  C26  1  0.98771800  0.52606100  0.02116300  1
  C  C27  1  0.95460200  0.29159600  0.98138000  1
  C  C28  1  0.98455300  0.20526500  0.02827300  1
  C  C29  1  0.98181200  0.40204200  0.99028600  1
  C  C30  1  0.01224400  0.47407000  0.97987200  1
  S  S1  1  0.95234800  0.04071100  0.24727600  1
  S  S2  1  0.04794300  0.95959700  0.75272600  1
  S  S3  1  0.23751100  0.91347900  0.99015300  1
  S  S4  1  0.76280500  0.08674200  0.00962200  1
  S  S5  1  0.05706100  0.80120600  0.04902700  1
  S  S6  1  0.94273900  0.19886800  0.95184900  1
  N  N1  1  0.99986800  0.05065000  0.37381100  1
  N  N2  1  0.03948200  0.12433700  0.39074500  1
  N  N3  1  0.94327300  0.94130400  0.37856700  1
  N  N4  1  0.92795800  0.94197100  0.31771800  1
  N  N5  1  0.00039500  0.94966400  0.62620700  1
  N  N6  1  0.96079500  0.87597300  0.60926700  1
  N  N7  1  0.05696900  0.05901900  0.62146000  1
  N  N8  1  0.07229300  0.05834900  0.68230500  1
  N  N9  1  0.36109300  0.94161500  0.01824000  1
  N  N10  1  0.35354500  0.92015200  0.07593600  1
  N  N11  1  0.40078200  0.98331900  0.93640600  1
  N  N12  1  0.34044000  0.96559600  0.92734700  1
  N  N13  1  0.63922900  0.05863300  0.98154400  1
  N  N14  1  0.64677400  0.08006100  0.92382800  1
  N  N15  1  0.59954500  0.01697800  0.06340400  1
  N  N16  1  0.65988500  0.03469100  0.07246000  1
  N  N17  1  0.00741800  0.65551600  0.04198800  1
  N  N18  1  0.96688200  0.65866700  0.08923000  1
  N  N19  1  0.06127400  0.61515700  0.97016200  1
  N  N20  1  0.07838200  0.68410600  0.97589300  1
  N  N21  1  0.99248300  0.34458700  0.95898300  1
  N  N22  1  0.03296300  0.34141000  0.91168100  1
  N  N23  1  0.93870900  0.38498700  0.03089900  1
  N  N24  1  0.92156800  0.31602400  0.02513500  1
  O  O1  1  0.91031700  0.94847300  0.09683200  1
  O  O2  1  0.00588700  0.00551800  0.07700000  1
  O  O3  1  0.17518800  0.03929200  0.08874700  1
  O  O4  1  0.18080000  0.01838600  0.97707100  1
  O  O5  1  0.04776800  0.13997000  0.02443000  1
  O  O6  1  0.94236000  0.07561300  0.00525300  1
  O  O7  1  0.08994200  0.05184000  0.90319500  1
  O  O8  1  0.99439000  0.99467200  0.92299900  1
  O  O9  1  0.82507900  0.96080200  0.91115600  1
  O  O10  1  0.81948700  0.98187100  0.02284400  1
  O  O11  1  0.95236200  0.86009500  0.97575900  1
  O  O12  1  0.05773600  0.92438900  0.99526000  1
