# Generated by REPEAT Assigner based on pymatgen
data_DB15-pcu_N123_E42_opt
_audit_creation_date              2022-05-24
_audit_creation_method            REPEAT_Assigner
_cell_length_a                    19.130487
_cell_length_b                    16.246078
_cell_length_c                    15.885142
_cell_angle_alpha                 106.424803
_cell_angle_beta                  90.862017
_cell_angle_gamma                 114.480585
_cell_volume                      4260.120818
_symmetry_space_group_name_H-M    P1
_symmetry_Int_Tables_number       1
loop_
    _symmetry_equiv_pos_site_id
    _symmetry_equiv_pos_as_xyz
    1  x,y,z
loop_
    _atom_site_type_symbol
    _atom_site_label
    _atom_site_fract_x
    _atom_site_fract_y
    _atom_site_fract_z
    _atom_type_partial_charge
    Ce  Ce1  0.119709  0.084507  0.015337  1.940207
    Ce  Ce2  0.881072  0.916667  0.983928  1.939334
    C   C1   0.979082  0.977896  0.162546  0.880534
    C   C2   0.257256  0.051894  0.995019  0.571354
    C   C3   0.977243  0.174725  0.027811  0.725640
    C   C4   0.021699  0.023283  0.836720  0.881625
    C   C5   0.743520  0.949271  0.004244  0.573498
    C   C6   0.023538  0.826450  0.971454  0.724678
    O   O1   0.909972  0.926134  0.140263  -0.572762
    O   O2   0.021428  0.010969  0.101914  -0.817334
    O   O3   0.238373  0.076567  0.074343  -0.683099
    O   O4   0.213663  0.039187  0.924361  -0.636706
    O   O5   0.048703  0.184226  0.027236  -0.767045
    O   O6   0.919354  0.090394  0.016733  -0.529585
    O   O7   0.090808  0.075041  0.859005  -0.573708
    O   O8   0.979351  0.990208  0.897350  -0.817286
    O   O9   0.762404  0.924600  0.924921  -0.683313
    O   O10  0.787114  0.961980  0.074902  -0.637573
    O   O11  0.952078  0.816947  0.972030  -0.767434
    O   O12  0.081428  0.910780  0.982530  -0.528946
    C   C7   0.012990  0.001741  0.255203  -0.423234
    C   C8   0.963694  0.964748  0.312936  -0.097429
    C   C9   0.984848  0.984412  0.408699  0.219483
    C   C10  0.927067  0.940719  0.454478  -0.238465
    C   C11  0.942096  0.956402  0.544430  -0.140063
    C   C12  0.015936  0.016772  0.590568  0.221954
    C   C13  0.073716  0.060465  0.544789  -0.238491
    C   C14  0.058688  0.044782  0.454837  -0.139358
    C   C15  0.037089  0.036435  0.686331  -0.099872
    C   C16  0.987792  0.999441  0.744063  -0.423714
    H   H1   0.903345  0.917806  0.286587  0.127088
    H   H2   0.868842  0.893321  0.419789  0.135100
    H   H3   0.895204  0.920517  0.576977  0.134385
    H   H4   0.131941  0.107863  0.579478  0.134454
    H   H5   0.105579  0.080666  0.422290  0.134485
    H   H6   0.097438  0.083376  0.712681  0.128201
    H   H7   0.074011  0.048670  0.276799  0.155091
    H   H8   0.926771  0.952514  0.722467  0.155478
    C   C17  0.326918  0.039054  0.981568  -0.107873
    C   C18  0.375490  0.043962  0.049148  -0.211192
    C   C19  0.441810  0.025176  0.026207  0.137083
    C   C20  0.460091  0.969326  0.064495  -0.153191
    C   C21  0.518109  0.943893  0.037396  -0.119340
    C   C22  0.558962  0.975981  0.973054  0.135257
    C   C23  0.540681  0.031830  0.934766  -0.151524
    C   C24  0.482664  0.057264  0.961865  -0.120433
    C   C25  0.625283  0.957196  0.950114  -0.209940
    C   C26  0.673856  0.962106  0.017695  -0.109887
    H   H9   0.359798  0.049899  0.114947  0.183258
    H   H10  0.427337  0.942887  0.113657  0.123261
    H   H11  0.530238  0.897645  0.066404  0.096434
    H   H12  0.573435  0.058270  0.885605  0.122877
    H   H13  0.470534  0.103513  0.932858  0.096493
    H   H14  0.640975  0.951260  0.884315  0.182967
    H   H15  0.337966  0.020803  0.913914  0.129895
    H   H16  0.662806  0.980356  0.085348  0.130538
    C   C27  0.039891  0.744672  0.968853  -0.346146
    C   C28  0.981645  0.660639  0.976311  -0.070315
    C   C29  0.993184  0.579141  0.987299  0.151798
    C   C30  0.930052  0.504042  0.000298  -0.194629
    C   C31  0.936796  0.426408  0.012546  -0.124901
    C   C32  0.007597  0.422033  0.011967  0.152149
    C   C33  0.070730  0.497132  0.998968  -0.194670
    C   C34  0.063986  0.574767  0.986720  -0.124939
    C   C35  0.019137  0.340536  0.022954  -0.069621
    C   C36  0.960890  0.256503  0.030412  -0.347317
    H   H17  0.923630  0.655546  0.978394  0.122714
    H   H18  0.874167  0.505690  0.001353  0.116052
    H   H19  0.885654  0.370312  0.022617  0.125763
    H   H20  0.126615  0.495485  0.997913  0.116240
    H   H21  0.115128  0.630863  0.976649  0.125732
    H   H22  0.077152  0.345629  0.020872  0.122049
    H   H23  0.099290  0.754965  0.968645  0.159029
    H   H24  0.901491  0.246209  0.030619  0.159159
