# Generated by REPEAT Assigner based on pymatgen
data_DB15-sxb_N65_E41_opt
_audit_creation_date              2022-05-24
_audit_creation_method            REPEAT_Assigner
_cell_length_a                    17.292006
_cell_length_b                    22.635881
_cell_length_c                    33.394594
_cell_angle_alpha                 81.113985
_cell_angle_beta                  90.000000
_cell_angle_gamma                 90.000000
_cell_volume                      12914.417925
_symmetry_space_group_name_H-M    P1
_symmetry_Int_Tables_number       1
loop_
    _symmetry_equiv_pos_site_id
    _symmetry_equiv_pos_as_xyz
    1  x,y,z
loop_
    _atom_site_type_symbol
    _atom_site_label
    _atom_site_fract_x
    _atom_site_fract_y
    _atom_site_fract_z
    _atom_type_partial_charge
    O   O1   0.233643  0.079422  0.958693  -0.675351
    La  La1  0.087626  0.070033  0.954362  1.947629
    O   O2   0.096621  0.957640  0.968635  -0.616481
    O   O3   0.179304  0.021538  0.012684  -0.582890
    C   C1   0.241269  0.042972  0.992638  0.656997
    O   O4   0.020936  0.902165  0.018399  -0.672689
    La  La2  0.913108  0.915539  0.063311  1.947444
    C   C2   0.017665  0.869860  0.136092  0.856179
    C   C3   0.076667  0.906382  0.991047  0.741907
    C   C4   0.759602  0.942573  0.024917  0.656199
    O   O5   0.009178  0.841048  0.105307  -0.676806
    O   O6   0.993882  0.925722  0.132599  -0.683573
    C   C5   0.923789  0.079215  0.026756  0.743073
    O   O7   0.767176  0.906067  0.058841  -0.675626
    O   O8   0.903906  0.027929  0.049154  -0.617398
    O   O9   0.979498  0.083474  0.999393  -0.673666
    O   O10  0.821596  0.964067  0.004926  -0.582708
    C   C6   0.982842  0.115703  0.881677  0.856479
    O   O11  0.991480  0.144539  0.912440  -0.676872
    O   O12  0.006564  0.059826  0.885168  -0.683148
    O   O13  0.233639  0.406135  0.559094  -0.675832
    La  La3  0.087621  0.415528  0.563427  1.947414
    O   O14  0.096626  0.527921  0.549159  -0.616570
    O   O15  0.179299  0.464027  0.505107  -0.583529
    C   C7   0.241263  0.442591  0.525152  0.658428
    O   O16  0.020940  0.583386  0.499395  -0.672701
    La  La4  0.913109  0.569994  0.454488  1.948325
    C   C8   0.017663  0.615674  0.381683  0.857462
    C   C9   0.076672  0.579177  0.526746  0.741293
    C   C10  0.759598  0.542982  0.492882  0.655855
    O   O17  0.009155  0.644488  0.412468  -0.677740
    O   O18  0.993906  0.559807  0.385177  -0.683793
    C   C11  0.923777  0.406361  0.491034  0.742068
    O   O19  0.767178  0.579479  0.458954  -0.675559
    O   O20  0.903900  0.457648  0.468634  -0.617343
    O   O21  0.979488  0.402097  0.518397  -0.672495
    O   O22  0.821589  0.521490  0.512876  -0.583249
    C   C12  0.982836  0.369858  0.636111  0.855928
    O   O23  0.991466  0.341026  0.605345  -0.676572
    O   O24  0.006564  0.425733  0.632622  -0.683297
    O   O25  0.733485  0.579503  0.958806  -0.675275
    La  La5  0.587495  0.570057  0.954400  1.947317
    O   O26  0.596687  0.457668  0.968616  -0.617035
    O   O27  0.679084  0.521556  0.012755  -0.582851
    C   C13  0.741067  0.543023  0.992742  0.656931
    O   O28  0.521085  0.402107  0.018371  -0.672803
    La  La6  0.412905  0.415506  0.063378  1.947779
    C   C14  0.517636  0.369870  0.136110  0.856192
    C   C15  0.576816  0.406382  0.991019  0.741694
    C   C16  0.259326  0.442527  0.025038  0.655909
    O   O29  0.509051  0.341040  0.105339  -0.676764
    O   O30  0.493891  0.425740  0.132621  -0.683464
    C   C17  0.423585  0.579180  0.026761  0.742577
    O   O31  0.266912  0.406057  0.058977  -0.675360
    O   O32  0.403715  0.527893  0.049163  -0.617293
    O   O33  0.479315  0.583459  0.999408  -0.673381
    O   O34  0.321308  0.463990  0.005023  -0.582818
    C   C18  0.482793  0.615710  0.881677  0.856256
    O   O35  0.491352  0.644535  0.912452  -0.676740
    O   O36  0.506557  0.559843  0.885169  -0.683006
    O   O37  0.733451  0.906121  0.558961  -0.675587
    La  La7  0.587509  0.915560  0.563365  1.947762
    O   O38  0.596678  0.027907  0.549167  -0.617600
    O   O39  0.679069  0.964051  0.504999  -0.582926
    C   C19  0.741044  0.942589  0.525020  0.657032
    O   O40  0.521061  0.083459  0.499413  -0.672966
    La  La8  0.412877  0.070065  0.454405  1.948385
    C   C20  0.517616  0.115705  0.381676  0.857973
    C   C21  0.576797  0.079190  0.526762  0.742175
    C   C22  0.259328  0.043036  0.492743  0.655869
    O   O41  0.509023  0.144535  0.412447  -0.677587
    O   O42  0.493873  0.059835  0.385164  -0.683565
    C   C23  0.423577  0.906396  0.491023  0.742122
    O   O43  0.266932  0.079497  0.458801  -0.675456
    O   O44  0.403696  0.957678  0.468620  -0.617380
    O   O45  0.479316  0.902130  0.518370  -0.672951
    O   O46  0.321302  0.021575  0.512766  -0.582994
    C   C24  0.482805  0.869894  0.636108  0.855608
    O   O47  0.491395  0.841070  0.605334  -0.676707
    O   O48  0.506539  0.925767  0.632619  -0.683220
    C   C25  0.371043  0.630275  0.024899  -0.102093
    C   C26  0.326134  0.672513  0.020083  0.021209
    C   C27  0.272765  0.721862  0.012410  0.010919
    C   C28  0.227386  0.763634  0.005432  0.013946
    C   C29  0.174030  0.812992  0.997754  0.019865
    C   C30  0.129149  0.855247  0.992928  -0.102021
    C   C31  0.629359  0.355285  0.992889  -0.101094
    C   C32  0.674264  0.313045  0.997714  0.018063
    C   C33  0.727628  0.263693  0.005400  0.016142
    C   C34  0.773005  0.221920  0.012386  0.008292
    C   C35  0.826365  0.172565  0.020070  0.023460
    C   C36  0.871264  0.130321  0.024893  -0.103699
    C   C37  0.129152  0.630315  0.524862  -0.101659
    C   C38  0.174033  0.672571  0.520036  0.021064
    C   C39  0.227389  0.721930  0.512359  0.011053
    C   C40  0.272768  0.763703  0.505383  0.014067
    C   C41  0.326137  0.813054  0.497709  0.019132
    C   C42  0.371043  0.855294  0.492891  -0.101148
    C   C43  0.871246  0.355257  0.492895  -0.102047
    C   C44  0.826345  0.313013  0.497716  0.020135
    C   C45  0.772981  0.263660  0.505397  0.012816
    C   C46  0.727602  0.221887  0.512381  0.012077
    C   C47  0.674237  0.172534  0.520065  0.020428
    C   C48  0.629333  0.130292  0.524891  -0.101865
    C   C49  0.318583  0.024474  0.004445  -0.060563
    C   C50  0.386159  0.011466  0.008483  -0.004863
    C   C51  0.466257  0.998184  0.009042  0.014654
    C   C52  0.534633  0.987378  0.008468  0.014425
    C   C53  0.614731  0.974093  0.009034  -0.006344
    C   C54  0.682303  0.961079  0.013086  -0.058396
    C   C55  0.318576  0.461091  0.513346  -0.061115
    C   C56  0.386152  0.474101  0.509310  -0.004451
    C   C57  0.466250  0.487383  0.508753  0.014051
    C   C58  0.534625  0.498189  0.509329  0.015317
    C   C59  0.614724  0.511473  0.508764  -0.007512
    C   C60  0.682297  0.524483  0.504713  -0.057374
    C   C61  0.818361  0.524511  0.004566  -0.059697
    C   C62  0.885926  0.511485  0.008614  -0.005098
    C   C63  0.966012  0.498183  0.009176  0.013220
    C   C64  0.034379  0.487360  0.008601  0.016695
    C   C65  0.114466  0.474058  0.009164  -0.008150
    C   C66  0.182031  0.461035  0.013212  -0.057374
    C   C67  0.182027  0.024536  0.504563  -0.058080
    C   C68  0.114458  0.011519  0.508608  -0.006566
    C   C69  0.034369  0.998224  0.509168  0.014759
    C   C70  0.966000  0.987406  0.508591  0.014905
    C   C71  0.885911  0.974110  0.509152  -0.006078
    C   C72  0.818343  0.961091  0.513198  -0.059112
    C   C73  0.040536  0.649573  0.342878  -0.241611
    C   C74  0.051726  0.682754  0.311086  0.086174
    C   C75  0.057735  0.724637  0.274390  -0.020337
    C   C76  0.057736  0.760902  0.243387  -0.018166
    C   C77  0.051728  0.802785  0.206692  0.084468
    C   C78  0.040538  0.835964  0.174898  -0.240314
    C   C79  0.959900  0.149591  0.842881  -0.240732
    C   C80  0.948674  0.182767  0.811090  0.085758
    C   C81  0.942645  0.224647  0.774395  -0.020474
    C   C82  0.942644  0.260910  0.743392  -0.017461
    C   C83  0.948671  0.302791  0.706697  0.083776
    C   C84  0.959895  0.335968  0.674907  -0.239651
    C   C85  0.540548  0.149596  0.342879  -0.242238
    C   C86  0.551770  0.182774  0.311089  0.086632
    C   C87  0.557798  0.224656  0.274396  -0.020250
    C   C88  0.557800  0.260921  0.243393  -0.018131
    C   C89  0.551778  0.302803  0.206699  0.084234
    C   C90  0.540562  0.335980  0.174908  -0.239885
    C   C91  0.459890  0.835997  0.674906  -0.239190
    C   C92  0.448678  0.802816  0.706696  0.083404
    C   C93  0.442656  0.760930  0.743389  -0.017505
    C   C94  0.442654  0.724663  0.774392  -0.020365
    C   C95  0.448672  0.682779  0.811085  0.085670
    C   C96  0.459881  0.649600  0.842877  -0.240742
