data_DB15-pcu_N144_E86_opt_repeat
_audit_creation_date              2024-02-23
_audit_creation_method            'Materials Studio'
_symmetry_space_group_name_H-M    'P1'
_symmetry_Int_Tables_number       1
_symmetry_cell_setting            triclinic
loop_
_symmetry_equiv_pos_as_xyz
  x,y,z
_cell_length_a                    15.8188
_cell_length_b                    12.5558
_cell_length_c                    12.7579
_cell_angle_alpha                 94.9401
_cell_angle_beta                  96.7782
_cell_angle_gamma                 98.3727
loop_
_atom_site_label
_atom_site_type_symbol
_atom_site_fract_x
_atom_site_fract_y
_atom_site_fract_z
_atom_site_U_iso_or_equiv
_atom_site_adp_type
_atom_site_occupancy
C1     C     0.25118   0.89470   0.91291   0.00000  Uiso   1.00
Er1    Er    0.87327   0.04296   0.05853   0.00000  Uiso   1.00
Er2    Er    0.14603   0.04580   0.07607   0.00000  Uiso   1.00
C2     C     0.03326   0.24791   0.01056   0.00000  Uiso   1.00
O1     O     0.07173   0.99473   0.90714   0.00000  Uiso   1.00
C3     C     0.02993   0.11497   0.27734   0.00000  Uiso   1.00
C4     C     0.97443   0.84304   0.11586   0.00000  Uiso   1.00
C5     C     0.72328   0.99744   0.90542   0.00000  Uiso   1.00
O2     O     0.22183   0.92763   0.83134   0.00000  Uiso   1.00
O3     O     0.22753   0.92906   0.00642   0.00000  Uiso   1.00
O4     O     0.04486   0.90833   0.10523   0.00000  Uiso   1.00
O5     O     0.89926   0.87589   0.10150   0.00000  Uiso   1.00
O6     O     0.09725   0.10319   0.22852   0.00000  Uiso   1.00
O7     O     0.95184   0.09510   0.22415   0.00000  Uiso   1.00
C6     C     0.99292   0.97797   0.85644   0.00000  Uiso   1.00
O8     O     0.92748   0.99142   0.90804   0.00000  Uiso   1.00
O9     O     0.10328   0.20407   0.02853   0.00000  Uiso   1.00
O10    O     0.95774   0.19319   0.01986   0.00000  Uiso   1.00
O11    O     0.75252   0.91522   0.94497   0.00000  Uiso   1.00
O12    O     0.76253   0.09562   0.93865   0.00000  Uiso   1.00
C7     C     0.04350   0.16069   0.39197   0.00000  Uiso   1.00
C8     C     0.97465   0.14042   0.54645   0.00000  Uiso   1.00
C9     C     0.07831   0.03181   0.51014   0.00000  Uiso   1.00
N1     N     0.01163   0.01254   0.67263   0.00000  Uiso   1.00
N2     N     0.00825   0.08200   0.46070   0.00000  Uiso   1.00
H1     H     0.00571   0.85929   0.73241   0.00000  Uiso   1.00
H2     H     0.90569   0.91089   0.71869   0.00000  Uiso   1.00
H3     H     0.10006   0.91602   0.62018   0.00000  Uiso   1.00
H4     H     0.99416   0.89036   0.54334   0.00000  Uiso   1.00
H5     H     0.89027   0.00057   0.57774   0.00000  Uiso   1.00
H6     H     0.91384   0.10838   0.68552   0.00000  Uiso   1.00
H7     H     0.01193   0.23379   0.39832   0.00000  Uiso   1.00
H8     H     0.11355   0.18645   0.41669   0.00000  Uiso   1.00
H9     H     0.91977   0.17845   0.51312   0.00000  Uiso   1.00
H10    H     0.02569   0.20427   0.58987   0.00000  Uiso   1.00
H11    H     0.12963   0.09400   0.55560   0.00000  Uiso   1.00
H12    H     0.10611   0.98623   0.44783   0.00000  Uiso   1.00
C10    C     0.97624   0.93388   0.74129   0.00000  Uiso   1.00
C11    C     0.04522   0.95413   0.58685   0.00000  Uiso   1.00
C12    C     0.94160   0.06277   0.62319   0.00000  Uiso   1.00
C13    C     0.31722   0.82176   0.90943   0.00000  Uiso   1.00
C14    C     0.43855   0.79652   0.82268   0.00000  Uiso   1.00
C15    C     0.44852   0.94320   0.95380   0.00000  Uiso   1.00
N3     N     0.57340   0.92185   0.86665   0.00000  Uiso   1.00
N4     N     0.39141   0.87684   0.86716   0.00000  Uiso   1.00
H13    H     0.63223   0.05779   0.79895   0.00000  Uiso   1.00
H14    H     0.66098   0.92974   0.75348   0.00000  Uiso   1.00
H15    H     0.56643   0.05594   0.97477   0.00000  Uiso   1.00
H16    H     0.50061   0.04965   0.84736   0.00000  Uiso   1.00
H17    H     0.49684   0.90182   0.71689   0.00000  Uiso   1.00
H18    H     0.55205   0.78967   0.74800   0.00000  Uiso   1.00
H19    H     0.28853   0.74690   0.85727   0.00000  Uiso   1.00
H20    H     0.33631   0.80013   0.99033   0.00000  Uiso   1.00
H21    H     0.39712   0.74524   0.75538   0.00000  Uiso   1.00
H22    H     0.45869   0.74451   0.88403   0.00000  Uiso   1.00
H23    H     0.47217   0.89253   0.01452   0.00000  Uiso   1.00
H24    H     0.41416   0.00421   0.99121   0.00000  Uiso   1.00
C16    C     0.64629   0.97895   0.82346   0.00000  Uiso   1.00
C17    C     0.52486   0.00131   0.90991   0.00000  Uiso   1.00
C18    C     0.51732   0.85286   0.78085   0.00000  Uiso   1.00
C19    C     0.98050   0.74075   0.16592   0.00000  Uiso   1.00
C20    C     0.93820   0.59511   0.03038   0.00000  Uiso   1.00
C21    C     0.05303   0.58976   0.16380   0.00000  Uiso   1.00
N5     N     0.00805   0.43496   0.03064   0.00000  Uiso   1.00
N6     N     0.01203   0.66094   0.09656   0.00000  Uiso   1.00
H25    H     0.10656   0.37970   0.95113   0.00000  Uiso   1.00
H26    H     0.99906   0.33860   0.88416   0.00000  Uiso   1.00
H27    H     0.11558   0.44937   0.14808   0.00000  Uiso   1.00
H28    H     0.12808   0.53936   0.04552   0.00000  Uiso   1.00
H29    H     0.01361   0.54185   0.91124   0.00000  Uiso   1.00
H30    H     0.90992   0.45926   0.91228   0.00000  Uiso   1.00
H31    H     0.91617   0.70806   0.18601   0.00000  Uiso   1.00
H32    H     0.02502   0.76135   0.24114   0.00000  Uiso   1.00
H33    H     0.90530   0.64656   0.97771   0.00000  Uiso   1.00
H34    H     0.89181   0.55645   0.07985   0.00000  Uiso   1.00
H35    H     0.00742   0.55355   0.21549   0.00000  Uiso   1.00
H36    H     0.11085   0.63639   0.21399   0.00000  Uiso   1.00
C22    C     0.03880   0.35292   0.96311   0.00000  Uiso   1.00
C23    C     0.08227   0.50078   0.09576   0.00000  Uiso   1.00
C24    C     0.96765   0.50592   0.96267   0.00000  Uiso   1.00
