# Generated by REPEAT Assigner based on pymatgen
data_DB15-pcu_N65_E107_opt
_audit_creation_date              2022-05-24
_audit_creation_method            REPEAT_Assigner
_cell_length_a                    17.384009
_cell_length_b                    14.041407
_cell_length_c                    18.365875
_cell_angle_alpha                 112.235937
_cell_angle_beta                  74.193158
_cell_angle_gamma                 124.519594
_cell_volume                      3409.145534
_symmetry_space_group_name_H-M    P1
_symmetry_Int_Tables_number       1
loop_
    _symmetry_equiv_pos_site_id
    _symmetry_equiv_pos_as_xyz
    1  x,y,z
loop_
    _atom_site_type_symbol
    _atom_site_label
    _atom_site_fract_x
    _atom_site_fract_y
    _atom_site_fract_z
    _atom_type_partial_charge
    O   O1   0.286561  0.062820  0.834771  -0.706529
    La  La1  0.128213  0.046269  0.871009  1.935359
    O   O2   0.061724  0.880357  0.929917  -0.635905
    O   O3   0.234348  0.078342  0.963763  -0.613247
    C   C1   0.297440  0.074280  0.905844  0.579633
    O   O4   0.943853  0.848519  0.031127  -0.620738
    La  La2  0.844900  0.924803  0.109544  1.883105
    C   C2   0.913897  0.944091  0.253798  0.655175
    C   C3   0.003464  0.821670  0.981531  0.675045
    C   C4   0.734971  0.926814  0.013141  0.514370
    O   O5   0.862898  0.840217  0.203981  -0.682600
    O   O6   0.947948  0.044389  0.236507  -0.666651
    C   C5   0.034646  0.196792  0.052072  0.625801
    O   O7   0.703227  0.910083  0.082951  -0.667963
    O   O8   0.962196  0.127758  0.092629  -0.543594
    O   O9   0.074132  0.155803  0.986489  -0.603560
    O   O10  0.818045  0.942711  0.983449  -0.586861
    C   C6   0.973351  0.981011  0.781221  0.626676
    O   O11  0.033587  0.092638  0.816417  -0.671556
    O   O12  0.966931  0.892475  0.796546  -0.676131
    N   N1   0.874742  0.846093  0.428362  -0.599714
    H   H1   0.007858  0.144205  0.505121  0.153052
    H   H2   0.009072  0.140165  0.372135  0.114634
    H   H3   0.839759  0.755756  0.311072  0.068089
    H   H4   0.953163  0.136925  0.750026  0.135923
    H   H5   0.932556  0.127637  0.622636  0.082457
    H   H6   0.885096  0.770428  0.530731  0.074652
    H   H7   0.902538  0.779137  0.659915  0.131353
    C   C7   0.924460  0.947484  0.331500  -0.186890
    C   C8   0.929613  0.958892  0.714166  0.028085
    C   C9   0.968709  0.058124  0.463278  -0.412261
    C   C10  0.971497  0.056117  0.387042  0.074318
    C   C11  0.877482  0.842206  0.353307  0.277294
    C   C12  0.917497  0.951416  0.484270  0.618825
    C   C13  0.912430  0.950572  0.565607  -0.164924
    C   C14  0.935251  0.054459  0.702808  -0.154354
    C   C15  0.925810  0.050042  0.629329  -0.061318
    C   C16  0.896975  0.850135  0.578981  0.011103
    C   C17  0.905672  0.854306  0.652880  -0.174095
    N   N2   0.438265  0.027005  0.990314  -0.624434
    H   H8   0.561075  0.051484  0.816197  0.179703
    H   H9   0.446233  0.090408  0.803642  0.110112
    H   H10  0.322074  0.047014  0.033066  0.093135
    H   H11  0.787800  0.055370  0.910109  0.190396
    H   H12  0.688461  0.103176  0.877345  0.079909
    H   H13  0.453718  0.864641  0.001800  0.093225
    H   H14  0.551508  0.817646  0.033412  0.107394
    C   C18  0.375713  0.071575  0.917827  -0.179153
    C   C19  0.676387  0.933537  0.974065  0.091952
    C   C20  0.509940  0.053805  0.864828  -0.496658
    C   C21  0.444571  0.075141  0.857622  0.124160
    C   C22  0.375591  0.051088  0.985459  0.287372
    C   C23  0.504365  0.026516  0.931503  0.672120
    C   C24  0.564186  0.988425  0.938411  -0.098261
    C   C25  0.713613  0.009699  0.927332  -0.181885
    C   C26  0.657265  0.037091  0.909275  -0.109914
    C   C27  0.526642  0.906143  0.980191  -0.066083
    C   C28  0.582202  0.878655  0.997606  -0.109467
    N   N3   0.108860  0.663631  0.995335  -0.614991
    H   H15  0.899200  0.523559  0.090666  0.161054
    H   H16  0.877161  0.653411  0.054812  0.038784
    H   H17  0.152774  0.793825  0.939193  0.090693
    H   H18  0.952809  0.311196  0.163975  0.058505
    H   H19  0.956038  0.482398  0.159560  0.127242
    H   H20  0.166215  0.523390  0.966155  0.067946
    H   H21  0.167328  0.358045  0.974284  0.026312
    C   C29  0.013569  0.733191  0.994274  -0.274386
    C   C30  0.057318  0.319527  0.067663  -0.118511
    C   C31  0.956967  0.585349  0.059554  -0.438307
    C   C32  0.943352  0.657506  0.037653  0.206206
    C   C33  0.096300  0.733961  0.972358  0.320738
    C   C34  0.041931  0.591175  0.039555  0.645364
    C   C35  0.056677  0.510369  0.058557  -0.163267
    C   C36  0.002119  0.359667  0.122013  0.016548
    C   C37  0.002493  0.455812  0.118007  -0.154130
    C   C38  0.121140  0.480583  0.011778  0.004099
    C   C39  0.121605  0.385618  0.016418  0.000422
