# Generated by REPEAT Assigner based on pymatgen
data_DB15-qtz_N76_E182_opt
_audit_creation_date              2022-05-24
_audit_creation_method            REPEAT_Assigner
_cell_length_a                    18.991104
_cell_length_b                    18.832611
_cell_length_c                    21.134124
_cell_angle_alpha                 102.780852
_cell_angle_beta                  96.806543
_cell_angle_gamma                 60.785783
_cell_volume                      6433.258402
_symmetry_space_group_name_H-M    P1
_symmetry_Int_Tables_number       1
loop_
    _symmetry_equiv_pos_site_id
    _symmetry_equiv_pos_as_xyz
    1  x,y,z
loop_
    _atom_site_type_symbol
    _atom_site_label
    _atom_site_fract_x
    _atom_site_fract_y
    _atom_site_fract_z
    _atom_type_partial_charge
    C   C1   0.519305  0.692541  0.228334  0.393733
    C   C2   0.668889  0.490389  0.098064  0.342402
    C   C3   0.546970  0.528009  0.303372  0.286336
    C   C4   0.555455  0.486211  0.351987  -0.161106
    C   C5   0.554885  0.411583  0.336801  0.009668
    C   C6   0.542625  0.381813  0.273135  -0.217639
    C   C7   0.535325  0.424767  0.225573  0.308725
    C   C8   0.494567  0.466464  0.052133  0.341825
    C   C9   0.444766  0.450664  0.005304  -0.213004
    C   C10  0.362594  0.502704  0.007451  -0.020737
    C   C11  0.331929  0.570000  0.057565  -0.171894
    C   C12  0.383824  0.583698  0.104310  0.203383
    N   N1   0.538936  0.496266  0.240825  -0.539024
    N   N2   0.464226  0.532254  0.100907  -0.462970
    O   O1   0.463478  0.677978  0.195437  -0.640770
    O   O2   0.592370  0.631738  0.231939  -0.543813
    O   O3   0.612232  0.565128  0.092845  -0.546650
    O   O4   0.659032  0.449832  0.136047  -0.586236
    Zn  Zn1  0.547581  0.551495  0.168419  1.202855
    H   H1   0.549982  0.585137  0.316007  0.078155
    H   H2   0.564349  0.511704  0.401472  0.094065
    H   H3   0.542043  0.323302  0.259662  0.130799
    H   H4   0.530125  0.398844  0.175361  0.009405
    H   H5   0.558699  0.425098  0.049467  0.029929
    H   H6   0.471575  0.397030  0.967070  0.090800
    H   H7   0.267705  0.611355  0.061057  0.125498
    H   H8   0.359108  0.636054  0.143769  0.083249
    C   C13  0.515090  0.916665  0.392094  0.534625
    C   C14  0.590217  0.905337  0.585202  0.435383
    C   C15  0.543173  0.095807  0.418404  0.267130
    C   C16  0.553396  0.157096  0.402463  -0.177764
    C   C17  0.583416  0.200302  0.448047  -0.063647
    C   C18  0.606935  0.177953  0.508002  -0.151543
    C   C19  0.596845  0.115345  0.522070  0.343311
    C   C20  0.400726  0.165961  0.570486  0.209377
    C   C21  0.322602  0.223049  0.589040  -0.109924
    C   C22  0.264058  0.198471  0.581859  -0.118736
    C   C23  0.285433  0.116535  0.558678  -0.046728
    C   C24  0.363875  0.061194  0.541562  0.196379
    N   N3   0.563047  0.076832  0.478067  -0.497518
    N   N4   0.420081  0.086208  0.546716  -0.446826
    O   O5   0.454770  0.984475  0.420334  -0.643615
    O   O6   0.587252  0.889976  0.418943  -0.594282
    O   O7   0.532154  0.898852  0.548898  -0.541687
    O   O8   0.614144  0.956729  0.576063  -0.668286
    Zn  Zn2  0.527475  0.996126  0.500126  1.178646
    H   H9   0.515896  0.065278  0.383178  0.020552
    H   H10  0.534354  0.173120  0.355039  0.126800
    H   H11  0.630850  0.210574  0.544888  0.080262
    H   H12  0.611929  0.100588  0.570092  0.056320
    H   H13  0.445391  0.186274  0.573509  0.021485
    H   H14  0.307531  0.286988  0.607765  0.092722
    H   H15  0.241486  0.094809  0.553302  0.051676
    H   H16  0.379495  0.997420  0.521570  0.113472
    C   C25  0.136338  0.495192  0.873862  0.430520
    C   C26  0.045466  0.425381  0.704930  0.526643
    C   C27  0.905733  0.548063  0.929435  0.115517
    C   C28  0.865086  0.532817  0.970011  -0.087279
    C   C29  0.878861  0.453130  0.966434  -0.072303
    C   C30  0.934668  0.389686  0.923386  -0.116162
    C   C31  0.972110  0.407556  0.882091  0.143474
    C   C32  0.835700  0.623684  0.796600  0.120321
    C   C33  0.767488  0.681235  0.770644  -0.073726
    C   C34  0.771900  0.735636  0.739269  -0.038230
    C   C35  0.845356  0.734121  0.738531  -0.121781
    C   C36  0.912979  0.676212  0.766807  0.118087
    N   N5   0.955808  0.486150  0.884319  -0.349391
    N   N6   0.907504  0.621181  0.794758  -0.325625
    O   O9   0.072380  0.568545  0.876674  -0.633153
    O   O10  0.132074  0.429953  0.841782  -0.556405
    O   O11  0.069155  0.481639  0.722208  -0.588206
    O   O12  0.995692  0.423234  0.741336  -0.638263
    Zn  Zn3  0.007499  0.510758  0.816073  1.118372
    H   H17  0.894387  0.610693  0.931861  0.059501
    H   H18  0.822323  0.583560  0.004090  0.109747
    H   H19  0.946823  0.326544  0.919594  0.081498
    H   H20  0.013819  0.358019  0.846699  0.145075
    H   H21  0.831714  0.576349  0.814339  0.095690
    H   H22  0.712066  0.678660  0.771659  0.041797
    H   H23  0.851307  0.774956  0.713326  0.110672
    H   H24  0.971250  0.671666  0.762487  0.113568
    N   N7   0.853704  0.361832  0.017607  -0.280721
    N   N8   0.796440  0.371994  0.053399  -0.344498
    O   O13  0.762909  0.495316  0.032404  -0.332421
    C   C37  0.832305  0.437024  0.005949  0.559113
    C   C38  0.742468  0.452711  0.061287  0.600435
    N   N9   0.593793  0.382193  0.447703  -0.271250
    N   N10  0.603137  0.324020  0.477569  -0.291083
    O   O14  0.564284  0.294263  0.376309  -0.287253
    C   C39  0.570245  0.363013  0.386863  0.494626
    C   C40  0.585221  0.271710  0.433564  0.547646
    N   N11  0.585501  0.822890  0.656873  -0.399909
    N   N12  0.633492  0.778580  0.698863  -0.174832
    O   O15  0.697842  0.833714  0.663098  -0.255615
    C   C41  0.624949  0.855778  0.636063  0.559589
    C   C42  0.700757  0.785725  0.702147  0.433890
    N   N13  0.280368  0.408302  0.881367  -0.319818
    N   N14  0.341064  0.409601  0.916726  -0.272495
    O   O16  0.231627  0.528922  0.950538  -0.319117
    C   C43  0.215250  0.480504  0.901969  0.538235
    C   C44  0.310903  0.482319  0.958093  0.542744
    N   N15  0.425556  0.901476  0.303885  -0.318911
    N   N16  0.425877  0.840377  0.259802  -0.306485
    O   O17  0.545534  0.791411  0.309979  -0.352736
    C   C45  0.498230  0.870710  0.333105  0.491646
    C   C46  0.498588  0.775037  0.264336  0.603107
    N   N17  0.061486  0.299632  0.629438  -0.297200
    N   N18  0.122548  0.236212  0.596949  -0.256252
    O   O18  0.160400  0.332011  0.636568  -0.215769
    C   C47  0.085428  0.356836  0.652125  0.358012
    C   C48  0.181413  0.257143  0.602091  0.542793
