data_DB15-qzd_N128_E139_opt_repeat
_audit_creation_date              2024-02-20
_audit_creation_method            'Materials Studio'
_symmetry_space_group_name_H-M    'P1'
_symmetry_Int_Tables_number       1
_symmetry_cell_setting            triclinic
loop_
_symmetry_equiv_pos_as_xyz
  x,y,z
_cell_length_a                    10.6726
_cell_length_b                    10.7006
_cell_length_c                    31.7798
_cell_angle_alpha                 90.6987
_cell_angle_beta                  90.6541
_cell_angle_gamma                 119.9107
loop_
_atom_site_label
_atom_site_type_symbol
_atom_site_fract_x
_atom_site_fract_y
_atom_site_fract_z
_atom_site_U_iso_or_equiv
_atom_site_adp_type
_atom_site_occupancy
C1     C     0.35636   0.06089   0.01375   0.00000  Uiso   1.00
C2     C     0.27163   0.03502   0.05038   0.00000  Uiso   1.00
C3     C     0.32159   0.03525   0.09080   0.00000  Uiso   1.00
C4     C     0.20932   0.99800   0.11716   0.00000  Uiso   1.00
C5     C     0.09115   0.97479   0.09278   0.00000  Uiso   1.00
C6     C     0.07359   0.11655   0.90098   0.00000  Uiso   1.00
H1     H     0.63820   0.79320   0.12369   0.00000  Uiso   1.00
H2     H     0.50074   0.82592   0.06492   0.00000  Uiso   1.00
H3     H     0.58716   0.92871   0.90447   0.00000  Uiso   1.00
H4     H     0.80172   0.99605   0.85587   0.00000  Uiso   1.00
N1     N     0.84234   0.94963   0.04280   0.00000  Uiso   1.00
N2     N     0.89031   0.01524   0.95589   0.00000  Uiso   1.00
N3     N     0.18002   0.07505   0.96512   0.00000  Uiso   1.00
N4     N     0.13163   0.00603   0.05198   0.00000  Uiso   1.00
H5     H     0.37287   0.22123   0.88117   0.00000  Uiso   1.00
H6     H     0.51301   0.17696   0.93743   0.00000  Uiso   1.00
H7     H     0.42811   0.06463   0.10251   0.00000  Uiso   1.00
H8     H     0.22176   0.99539   0.15078   0.00000  Uiso   1.00
Pd1    Pd    0.01143   0.01240   0.00409   0.00000  Uiso   1.00
C7     C     0.83294   0.90462   0.08304   0.00000  Uiso   1.00
C8     C     0.69172   0.84834   0.09606   0.00000  Uiso   1.00
C9     C     0.61568   0.86599   0.06427   0.00000  Uiso   1.00
C10    C     0.70968   0.92984   0.03195   0.00000  Uiso   1.00
C11    C     0.66550   0.95746   0.99296   0.00000  Uiso   1.00
C12    C     0.74859   0.97916   0.95663   0.00000  Uiso   1.00
C13    C     0.69596   0.96593   0.91583   0.00000  Uiso   1.00
C14    C     0.80926   0.00120   0.88977   0.00000  Uiso   1.00
C15    C     0.92981   0.04161   0.91509   0.00000  Uiso   1.00
C16    C     0.94845   0.91451   0.10820   0.00000  Uiso   1.00
C17    C     0.18812   0.12232   0.92524   0.00000  Uiso   1.00
C18    C     0.32605   0.17235   0.91052   0.00000  Uiso   1.00
C19    C     0.40194   0.14817   0.94102   0.00000  Uiso   1.00
C20    C     0.31154   0.08974   0.97474   0.00000  Uiso   1.00
C21    C     0.93059   0.96078   0.44369   0.00000  Uiso   1.00
C22    C     0.03242   0.07342   0.41852   0.00000  Uiso   1.00
C23    C     0.13042   0.20867   0.43399   0.00000  Uiso   1.00
C24    C     0.21973   0.28241   0.40241   0.00000  Uiso   1.00
C25    C     0.17381   0.19308   0.36708   0.00000  Uiso   1.00
C26    C     0.64624   0.55831   0.34596   0.00000  Uiso   1.00
H9     H     0.28711   0.31074   0.23837   0.00000  Uiso   1.00
H10    H     0.09793   0.12105   0.18837   0.00000  Uiso   1.00
H11    H     0.67764   0.58916   0.20373   0.00000  Uiso   1.00
H12    H     0.58289   0.41796   0.26046   0.00000  Uiso   1.00
N5     N     0.03310   0.03243   0.28784   0.00000  Uiso   1.00
N6     N     0.80192   0.74589   0.29615   0.00000  Uiso   1.00
N7     N     0.82229   0.78001   0.38516   0.00000  Uiso   1.00
N8     N     0.05442   0.06606   0.37663   0.00000  Uiso   1.00
H13    H     0.58808   0.48703   0.43369   0.00000  Uiso   1.00
H14    H     0.73456   0.68818   0.48366   0.00000  Uiso   1.00
H15    H     0.14035   0.26047   0.46368   0.00000  Uiso   1.00
H16    H     0.29696   0.39385   0.40748   0.00000  Uiso   1.00
Pd2    Pd    0.92780   0.90595   0.33649   0.00000  Uiso   1.00
C27    C     0.15639   0.16102   0.28978   0.00000  Uiso   1.00
C28    C     0.19675   0.21243   0.24930   0.00000  Uiso   1.00
C29    C     0.09471   0.11326   0.22224   0.00000  Uiso   1.00
C30    C     0.99684   0.00287   0.24642   0.00000  Uiso   1.00
C31    C     0.88345   0.87629   0.22913   0.00000  Uiso   1.00
C32    C     0.80127   0.75446   0.25345   0.00000  Uiso   1.00
C33    C     0.70656   0.62245   0.23592   0.00000  Uiso   1.00
C34    C     0.64924   0.52976   0.26782   0.00000  Uiso   1.00
C35    C     0.70008   0.60840   0.30518   0.00000  Uiso   1.00
C36    C     0.23576   0.23116   0.32672   0.00000  Uiso   1.00
C37    C     0.71434   0.64071   0.38277   0.00000  Uiso   1.00
C38    C     0.66870   0.59114   0.42284   0.00000  Uiso   1.00
C39    C     0.74823   0.70220   0.45024   0.00000  Uiso   1.00
C40    C     0.84000   0.81999   0.42666   0.00000  Uiso   1.00
C41    C     0.10156   0.13233   0.78034   0.00000  Uiso   1.00
C42    C     0.12184   0.24924   0.75562   0.00000  Uiso   1.00
C43    C     0.17859   0.38768   0.77141   0.00000  Uiso   1.00
C44    C     0.16173   0.46664   0.74087   0.00000  Uiso   1.00
C45    C     0.10750   0.37848   0.70545   0.00000  Uiso   1.00
C46    C     0.98312   0.73367   0.68215   0.00000  Uiso   1.00
H17    H     0.13325   0.51059   0.57776   0.00000  Uiso   1.00
H18    H     0.09878   0.31247   0.52789   0.00000  Uiso   1.00
H19    H     0.91665   0.75113   0.54111   0.00000  Uiso   1.00
H20    H     0.89122   0.58557   0.60238   0.00000  Uiso   1.00
N9     N     0.05327   0.20976   0.62605   0.00000  Uiso   1.00
N10    N     0.99508   0.91847   0.63347   0.00000  Uiso   1.00
N11    N     0.02781   0.95333   0.72192   0.00000  Uiso   1.00
N12    N     0.08613   0.24473   0.71425   0.00000  Uiso   1.00
H21    H     0.96749   0.65836   0.77039   0.00000  Uiso   1.00
H22    H     0.01825   0.86444   0.82104   0.00000  Uiso   1.00
H23    H     0.23456   0.43312   0.80091   0.00000  Uiso   1.00
H24    H     0.19513   0.57856   0.74539   0.00000  Uiso   1.00
Pd3    Pd    0.03971   0.08126   0.67394   0.00000  Uiso   1.00
C47    C     0.07917   0.34798   0.62844   0.00000  Uiso   1.00
C48    C     0.10030   0.40343   0.58832   0.00000  Uiso   1.00
C49    C     0.08431   0.29714   0.56109   0.00000  Uiso   1.00
C50    C     0.05214   0.17772   0.58453   0.00000  Uiso   1.00
C51    C     0.02072   0.04378   0.56663   0.00000  Uiso   1.00
C52    C     0.98429   0.92157   0.59089   0.00000  Uiso   1.00
C53    C     0.94017   0.78656   0.57363   0.00000  Uiso   1.00
C54    C     0.92832   0.69921   0.60612   0.00000  Uiso   1.00
C55    C     0.96850   0.78339   0.64248   0.00000  Uiso   1.00
C56    C     0.09220   0.42817   0.66572   0.00000  Uiso   1.00
C57    C     0.00033   0.81461   0.71956   0.00000  Uiso   1.00
C58    C     0.99294   0.76356   0.75983   0.00000  Uiso   1.00
C59    C     0.02048   0.87403   0.78723   0.00000  Uiso   1.00
C60    C     0.04714   0.99161   0.76341   0.00000  Uiso   1.00
H25    H     0.49026   0.96359   0.95717   0.00000  Uiso   1.00
H26    H     0.43138   0.84288   0.99840   0.00000  Uiso   1.00
H27    H     0.52086   0.03987   0.04915   0.00000  Uiso   1.00
N13    N     0.62442   0.21090   0.01096   0.00000  Uiso   1.00
C61    C     0.51773   0.95174   0.98958   0.00000  Uiso   1.00
C62    C     0.50450   0.06572   0.01737   0.00000  Uiso   1.00
H28    H     0.68102   0.21449   0.98405   0.00000  Uiso   1.00
H29    H     0.58598   0.28333   0.00927   0.00000  Uiso   1.00
H30    H     0.69478   0.23952   0.03695   0.00000  Uiso   1.00
H31    H     0.49274   0.36601   0.37917   0.00000  Uiso   1.00
H32    H     0.43837   0.49784   0.36173   0.00000  Uiso   1.00
H33    H     0.40402   0.39720   0.29391   0.00000  Uiso   1.00
N14    N     0.45405   0.23194   0.31066   0.00000  Uiso   1.00
C63    C     0.49189   0.43548   0.35393   0.00000  Uiso   1.00
C64    C     0.39728   0.32835   0.31969   0.00000  Uiso   1.00
H34    H     0.56532   0.28409   0.31667   0.00000  Uiso   1.00
H35    H     0.40420   0.14422   0.33060   0.00000  Uiso   1.00
H36    H     0.43002   0.19343   0.27959   0.00000  Uiso   1.00
H37    H     0.97095   0.54864   0.71654   0.00000  Uiso   1.00
H38    H     0.87125   0.50295   0.66970   0.00000  Uiso   1.00
H39    H     0.08666   0.59587   0.62943   0.00000  Uiso   1.00
N15    N     0.24144   0.69542   0.67471   0.00000  Uiso   1.00
C65    C     0.97522   0.58549   0.68434   0.00000  Uiso   1.00
C66    C     0.09966   0.57642   0.66212   0.00000  Uiso   1.00
H40    H     0.23520   0.74797   0.70177   0.00000  Uiso   1.00
H41    H     0.31392   0.65769   0.67891   0.00000  Uiso   1.00
H42    H     0.27816   0.76916   0.65033   0.00000  Uiso   1.00
H43    H     0.71935   0.80536   0.18262   0.00000  Uiso   1.00
H44    H     0.85333   0.98451   0.17612   0.00000  Uiso   1.00
H45    H     0.01247   0.85127   0.16691   0.00000  Uiso   1.00
N16    N     0.83632   0.67998   0.13975   0.00000  Uiso   1.00
C67    C     0.83709   0.87655   0.18355   0.00000  Uiso   1.00
C68    C     0.91471   0.83353   0.15009   0.00000  Uiso   1.00
H46    H     0.72559   0.64054   0.13641   0.00000  Uiso   1.00
H47    H     0.87452   0.66478   0.11115   0.00000  Uiso   1.00
H48    H     0.85953   0.62522   0.16271   0.00000  Uiso   1.00
H49    H     0.14459   0.13596   0.51166   0.00000  Uiso   1.00
H50    H     0.08196   0.95672   0.51397   0.00000  Uiso   1.00
H51    H     0.82973   0.89569   0.50544   0.00000  Uiso   1.00
N17    N     0.85357   0.08947   0.49278   0.00000  Uiso   1.00
C69    C     0.04639   0.03635   0.51966   0.00000  Uiso   1.00
C70    C     0.91233   0.99226   0.49033   0.00000  Uiso   1.00
H52    H     0.92117   0.19059   0.48071   0.00000  Uiso   1.00
H53    H     0.75754   0.04239   0.47495   0.00000  Uiso   1.00
H54    H     0.82776   0.09808   0.52383   0.00000  Uiso   1.00
H55    H     0.18969   0.07788   0.83488   0.00000  Uiso   1.00
H56    H     0.28461   0.25401   0.81962   0.00000  Uiso   1.00
H57    H     0.21144   0.31516   0.87367   0.00000  Uiso   1.00
N18    N     0.01107   0.26203   0.85163   0.00000  Uiso   1.00
C71    C     0.17241   0.16565   0.82426   0.00000  Uiso   1.00
C72    C     0.11469   0.21451   0.86235   0.00000  Uiso   1.00
H58    H     0.94199   0.20247   0.82664   0.00000  Uiso   1.00
H59    H     0.95486   0.26374   0.87800   0.00000  Uiso   1.00
H60    H     0.06721   0.37044   0.84415   0.00000  Uiso   1.00
