# generated using pymatgen
data_NiH16C34(N7O)4
_symmetry_space_group_name_H-M   'P 1'
_cell_length_a   17.24700000
_cell_length_b   20.59100000
_cell_length_c   20.54300000
_cell_angle_alpha   89.58000000
_cell_angle_beta   94.19500000
_cell_angle_gamma   94.27200000
_symmetry_Int_Tables_number   1
_chemical_formula_structural   NiH16C34(N7O)4
_chemical_formula_sum   'Ni1 H16 C34 N28 O4'
_cell_volume   7255.72304841
_cell_formula_units_Z   1
loop_
 _symmetry_equiv_pos_site_id
 _symmetry_equiv_pos_as_xyz
  1  'x, y, z'
loop_
 _atom_site_type_symbol
 _atom_site_label
 _atom_site_symmetry_multiplicity
 _atom_site_fract_x
 _atom_site_fract_y
 _atom_site_fract_z
 _atom_site_occupancy
  Ni  Ni1  1  0.00010000  0.00010000  0.00010000  1
  H  H1  1  0.92851000  0.04865000  0.22789000  1
  H  H2  1  0.92999000  0.05578000  0.11617000  1
  H  H3  1  0.10354000  0.94769000  0.11441000  1
  H  H4  1  0.12045000  0.95100000  0.22756000  1
  H  H5  1  0.07735000  0.77538000  0.94830000  1
  H  H6  1  0.07208000  0.88656000  0.94183000  1
  H  H7  1  0.90209000  0.88357000  0.05454000  1
  H  H8  1  0.88870000  0.77057000  0.05097000  1
  H  H9  1  0.07169000  0.95155000  0.77231000  1
  H  H10  1  0.07021000  0.94442000  0.88403000  1
  H  H11  1  0.89666000  0.05251000  0.88579000  1
  H  H12  1  0.87975000  0.04921000  0.77264000  1
  H  H13  1  0.92285000  0.22482000  0.05190000  1
  H  H14  1  0.92813000  0.11364000  0.05837000  1
  H  H15  1  0.09811000  0.11663000  0.94565000  1
  H  H16  1  0.11149000  0.22963000  0.94922000  1
  C  C1  1  0.02195000  0.99990000  0.24002000  1
  C  C2  1  0.96654000  0.02906000  0.20648000  1
  C  C3  1  0.96600000  0.03077000  0.13866000  1
  C  C4  1  0.06892000  0.96962000  0.13740000  1
  C  C5  1  0.07867000  0.96958000  0.20547000  1
  C  C6  1  0.98596000  0.76080000  0.99990000  1
  C  C7  1  0.03930000  0.79566000  0.96901000  1
  C  C8  1  0.03762000  0.86318000  0.96768000  1
  C  C9  1  0.93671000  0.86164000  0.03155000  1
  C  C10  1  0.92914000  0.79366000  0.03143000  1
  C  C11  1  0.97825000  0.00010000  0.76018000  1
  C  C12  1  0.03366000  0.97114000  0.79372000  1
  C  C13  1  0.03420000  0.96943000  0.86154000  1
  C  C14  1  0.93128000  0.03057000  0.86279000  1
  C  C15  1  0.92153000  0.03062000  0.79473000  1
  C  C16  1  0.01424000  0.23940000  0.00010000  1
  C  C17  1  0.96090000  0.20454000  0.03119000  1
  C  C18  1  0.96258000  0.13702000  0.03252000  1
  C  C19  1  0.06349000  0.13856000  0.96865000  1
  C  C20  1  0.07106000  0.20654000  0.96876000  1
  C  C21  1  0.80809000  0.98870000  0.99325000  1
  C  C22  1  0.19211000  0.01149000  0.00695000  1
  C  C23  1  0.99990000  0.00010000  0.46261000  1
  C  C24  1  0.00010000  0.00010000  0.31269000  1
  C  C25  1  0.99990000  0.00010000  0.53757000  1
  C  C26  1  0.00010000  0.00010000  0.68750000  1
  C  C27  1  0.45547000  0.00010000  0.00010000  1
  C  C28  1  0.27688000  0.00010000  0.00010000  1
  C  C29  1  0.54477000  0.00010000  0.00010000  1
  C  C30  1  0.72332000  0.00010000  0.00010000  1
  C  C31  1  0.99990000  0.53748000  0.00010000  1
  C  C32  1  0.00010000  0.68706000  0.00010000  1
  C  C33  1  0.99990000  0.46269000  0.00010000  1
  C  C34  1  0.00010000  0.31313000  0.00010000  1
  N  N1  1  0.01199000  0.99990000  0.10328000  1
  N  N2  1  0.99154000  0.89713000  0.00010000  1
  N  N3  1  0.98821000  0.00010000  0.89692000  1
  N  N4  1  0.00866000  0.10307000  0.99990000  1
  N  N5  1  0.07776000  0.00393000  0.42990000  1
  N  N6  1  0.07782000  0.00391000  0.35493000  1
  N  N7  1  0.92235000  0.99622000  0.34539000  1
  N  N8  1  0.92228000  0.99623000  0.42035000  1
  N  N9  1  0.92220000  0.99636000  0.57035000  1
  N  N10  1  0.92227000  0.99634000  0.64534000  1
  N  N11  1  0.07775000  0.00399000  0.65472000  1
  N  N12  1  0.07768000  0.00402000  0.57977000  1
  N  N13  1  0.40326000  0.97240000  0.94135000  1
  N  N14  1  0.31395000  0.97236000  0.94131000  1
  N  N15  1  0.32907000  0.02779000  0.05894000  1
  N  N16  1  0.41836000  0.02783000  0.05899000  1
  N  N17  1  0.59705000  0.02798000  0.05899000  1
  N  N18  1  0.68635000  0.02793000  0.05895000  1
  N  N19  1  0.67104000  0.97247000  0.94133000  1
  N  N20  1  0.58178000  0.97252000  0.94137000  1
  N  N21  1  0.07775000  0.57968000  0.00337000  1
  N  N22  1  0.07781000  0.65448000  0.00336000  1
  N  N23  1  0.92235000  0.64488000  0.99678000  1
  N  N24  1  0.92229000  0.57009000  0.99679000  1
  N  N25  1  0.92221000  0.42043000  0.99692000  1
  N  N26  1  0.92228000  0.34563000  0.99690000  1
  N  N27  1  0.07774000  0.35539000  0.00344000  1
  N  N28  1  0.07766000  0.43016000  0.00347000  1
  O  O1  1  0.87847000  0.00557000  0.00858000  1
  O  O2  1  0.78606000  0.94766000  0.95233000  1
  O  O3  1  0.12173000  0.99463000  0.99162000  1
  O  O4  1  0.21414000  0.05254000  0.04787000  1
