# generated using pymatgen
data_ZnH6C11N10
_symmetry_space_group_name_H-M   'P 1'
_cell_length_a   13.41382600
_cell_length_b   13.11529200
_cell_length_c   13.12511600
_cell_angle_alpha   109.67631400
_cell_angle_beta   93.20915700
_cell_angle_gamma   114.78652300
_symmetry_Int_Tables_number   1
_chemical_formula_structural   ZnH6C11N10
_chemical_formula_sum   'Zn3 H18 C33 N30'
_cell_volume   1920.72303160
_cell_formula_units_Z   3
loop_
 _symmetry_equiv_pos_site_id
 _symmetry_equiv_pos_as_xyz
  1  'x, y, z'
loop_
 _atom_site_type_symbol
 _atom_site_label
 _atom_site_symmetry_multiplicity
 _atom_site_fract_x
 _atom_site_fract_y
 _atom_site_fract_z
 _atom_site_occupancy
  Zn  Zn1  1  0.64017700  0.54354400  0.79070500  1
  Zn  Zn2  1  0.14425300  0.12217700  0.20676600  1
  Zn  Zn3  1  0.89788200  0.84417100  0.97838000  1
  H  H1  1  0.63281300  0.78759600  0.59215400  1
  H  H2  1  0.94403200  0.85676600  0.49509300  1
  H  H3  1  0.54450700  0.92133900  0.33119400  1
  H  H4  1  0.44501900  0.69712400  0.51076600  1
  H  H5  1  0.27007200  0.72151900  0.44086200  1
  H  H6  1  0.68121300  0.85948500  0.30042900  1
  H  H7  1  0.61962000  0.97406100  0.84582500  1
  H  H8  1  0.37426300  0.80399900  0.00638700  1
  H  H9  1  0.40907600  0.16635800  0.79493600  1
  H  H10  1  0.62790500  0.01787400  0.69128000  1
  H  H11  1  0.64692300  0.17562100  0.60018800  1
  H  H12  1  0.31170000  0.99986900  0.83305200  1
  H  H13  1  0.10951700  0.24659200  0.86683300  1
  H  H14  1  0.86155500  0.33014800  0.00599200  1
  H  H15  1  0.14859500  0.51993000  0.70008700  1
  H  H16  1  0.28178200  0.33956700  0.83165600  1
  H  H17  1  0.40355100  0.41467200  0.69491600  1
  H  H18  1  0.06974000  0.54820400  0.85020100  1
  C  C1  1  0.81788100  0.77657700  0.63412300  1
  C  C2  1  0.89786400  0.51537700  0.94468400  1
  C  C3  1  0.57155800  0.82834100  0.95196400  1
  C  C4  1  0.88617800  0.88744700  0.31100500  1
  C  C5  1  0.96801200  0.19439800  0.99210600  1
  C  C6  1  0.23834100  0.89809600  0.97191500  1
  C  C7  1  0.81957700  0.86386300  0.39188300  1
  C  C8  1  0.71189100  0.85090300  0.37334100  1
  C  C9  1  0.64437000  0.82639800  0.44623900  1
  C  C10  1  0.68500300  0.81035900  0.53548700  1
  C  C11  1  0.79246600  0.82207100  0.55404900  1
  C  C12  1  0.86156600  0.85211600  0.48365100  1
  C  C13  1  0.49423700  0.86278400  0.36979300  1
  C  C14  1  0.44483200  0.75028100  0.46333800  1
  C  C15  1  0.35373500  0.76206900  0.42649900  1
  C  C16  1  0.33150500  0.89751700  0.92002000  1
  C  C17  1  0.36603000  0.96615100  0.85707300  1
  C  C18  1  0.46963400  0.99474800  0.82936300  1
  C  C19  1  0.53851300  0.95384700  0.86627100  1
  C  C20  1  0.50400800  0.88445000  0.92867100  1
  C  C21  1  0.40025100  0.85589200  0.95531300  1
  C  C22  1  0.47001500  0.14573400  0.75400600  1
  C  C23  1  0.58299000  0.07118600  0.70317300  1
  C  C24  1  0.59246000  0.15235300  0.65519300  1
  C  C25  1  0.96089400  0.44645100  0.93016300  1
  C  C26  1  0.04652300  0.47182800  0.87438900  1
  C  C27  1  0.09962200  0.39905400  0.84832500  1
  C  C28  1  0.06772900  0.30310700  0.88227000  1
  C  C29  1  0.98206700  0.27800900  0.93797000  1
  C  C30  1  0.92736400  0.34852600  0.96064900  1
  C  C31  1  0.20154300  0.48227600  0.71900000  1
  C  C32  1  0.26761800  0.38808700  0.78499600  1
  C  C33  1  0.33136700  0.42756100  0.71458000  1
  N  N1  1  0.54065300  0.71014700  0.89257800  1
  N  N2  1  0.74026900  0.67003800  0.63201300  1
  N  N3  1  0.77508800  0.55972800  0.89226500  1
  N  N4  1  0.94509400  0.63817900  0.98537500  1
  N  N5  1  0.63360700  0.69892100  0.90249000  1
  N  N6  1  0.86570300  0.66331900  0.95376000  1
  N  N7  1  0.76184600  0.67295700  0.73222200  1
  N  N8  1  0.85132800  0.77864300  0.79568100  1
  N  N9  1  0.71966400  0.80631200  0.96591400  1
  N  N10  1  0.88608600  0.84683700  0.73704100  1
  N  N11  1  0.79272700  0.46616000  0.88522400  1
  N  N12  1  0.68383900  0.88980300  0.99522000  1
  N  N13  1  0.25681100  0.98751200  0.06957500  1
  N  N14  1  0.98838600  0.98341300  0.33597200  1
  N  N15  1  0.02688500  0.12503500  0.09248400  1
  N  N16  1  0.90786700  0.07149900  0.94302500  1
  N  N17  1  0.15701400  0.97931200  0.08036500  1
  N  N18  1  0.94461100  0.03060000  0.00860100  1
  N  N19  1  0.00919500  0.98549000  0.23922300  1
  N  N20  1  0.92338300  0.89445100  0.15779800  1
  N  N21  1  0.07869600  0.88860500  0.99166700  1
  N  N22  1  0.84423900  0.83285000  0.20048500  1
  N  N23  1  0.04335800  0.22753500  0.08326600  1
  N  N24  1  0.12763700  0.83747200  0.92087700  1
  N  N25  1  0.53269400  0.81363900  0.42739400  1
  N  N26  1  0.38474900  0.83281600  0.36802900  1
  N  N27  1  0.50591400  0.06731200  0.76498300  1
  N  N28  1  0.52181000  0.19931500  0.68723900  1
  N  N29  1  0.18632400  0.42280000  0.78748100  1
  N  N30  1  0.28984400  0.48644100  0.67303100  1
