# generated using pymatgen
data_CuH13C19NO4
_symmetry_space_group_name_H-M   'P 1'
_cell_length_a   13.85835100
_cell_length_b   13.32537200
_cell_length_c   27.01543500
_cell_angle_alpha   100.05682100
_cell_angle_beta   99.86530300
_cell_angle_gamma   88.87339300
_symmetry_Int_Tables_number   1
_chemical_formula_structural   CuH13C19NO4
_chemical_formula_sum   'Cu4 H52 C76 N4 O16'
_cell_volume   4839.31764891
_cell_formula_units_Z   4
loop_
 _symmetry_equiv_pos_site_id
 _symmetry_equiv_pos_as_xyz
  1  'x, y, z'
loop_
 _atom_site_type_symbol
 _atom_site_label
 _atom_site_symmetry_multiplicity
 _atom_site_fract_x
 _atom_site_fract_y
 _atom_site_fract_z
 _atom_site_occupancy
  Cu  Cu1  1  0.01171300  0.10832200  0.03292700  1
  Cu  Cu2  1  0.04583200  0.92111300  0.98352900  1
  Cu  Cu3  1  0.12782900  0.05330100  0.53907100  1
  Cu  Cu4  1  0.95394500  0.98084200  0.48457600  1
  H  H1  1  0.91708900  0.51733100  0.14385800  1
  H  H2  1  0.80892500  0.43935000  0.06476800  1
  H  H3  1  0.84837700  0.27123800  0.01947900  1
  H  H4  1  0.18960900  0.74658800  0.00026500  1
  H  H5  1  0.23001500  0.58001400  0.95380800  1
  H  H6  1  0.13773900  0.51569000  0.86803300  1
  H  H7  1  0.00490500  0.61931100  0.83030600  1
  H  H8  1  0.96723100  0.78552500  0.87826800  1
  H  H9  1  0.10001100  0.25699700  0.12974400  1
  H  H10  1  0.06366900  0.42495700  0.17636100  1
  H  H11  1  0.51641900  0.22969400  0.64713500  1
  H  H12  1  0.50768100  0.09206800  0.57245800  1
  H  H13  1  0.34765700  0.01999100  0.52834100  1
  H  H14  1  0.80129200  0.01785000  0.39318500  1
  H  H15  1  0.64444900  0.94473100  0.34501800  1
  H  H16  1  0.57254600  0.79717300  0.36992200  1
  H  H17  1  0.65954100  0.72513500  0.44306900  1
  H  H18  1  0.81608400  0.80084300  0.49004700  1
  H  H19  1  0.20558600  0.21845800  0.63109900  1
  H  H20  1  0.36383000  0.29296700  0.67646100  1
  H  H21  1  0.03095900  0.93408000  0.32797400  1
  H  H22  1  0.23260600  0.07689100  0.25763100  1
  H  H23  1  0.30543700  0.17086600  0.34067700  1
  H  H24  1  0.24698500  0.14567600  0.41768200  1
  H  H25  1  0.09276300  0.05617100  0.19312400  1
  H  H26  1  0.07872300  0.79974400  0.26766200  1
  H  H27  1  0.03293200  0.69066500  0.18498800  1
  H  H28  1  0.02141800  0.75958800  0.10631500  1
  H  H29  1  0.03932700  0.10628500  0.69275700  1
  H  H30  1  0.83004800  0.97308300  0.76230600  1
  H  H31  1  0.75563700  0.88088300  0.67912600  1
  H  H32  1  0.81755500  0.90170000  0.60247300  1
  H  H33  1  0.97080500  0.98709500  0.82662100  1
  H  H34  1  0.99405800  0.24353600  0.75342000  1
  H  H35  1  0.04141800  0.35076300  0.83650600  1
  H  H36  1  0.04964100  0.28085600  0.91481400  1
  H  H37  1  0.36791300  0.94854600  0.98526400  1
  H  H38  1  0.60077000  0.13164500  0.08331300  1
  H  H39  1  0.48059700  0.24096100  0.11930600  1
  H  H40  1  0.30660200  0.20493400  0.09320700  1
  H  H41  1  0.68676200  0.07774100  0.02310000  1
  H  H42  1  0.47869200  0.82957600  0.99003200  1
  H  H43  1  0.59938700  0.71858500  0.95571800  1
  H  H44  1  0.76405700  0.77876900  0.95754800  1
  H  H45  1  0.09920700  0.36377900  0.52651500  1
  H  H46  1  0.87492000  0.58869300  0.52605200  1
  H  H47  1  0.75133500  0.45410400  0.50563700  1
  H  H48  1  0.79888300  0.27489200  0.49893300  1
  H  H49  1  0.98897000  0.66720100  0.49583100  1
  H  H50  1  0.17746900  0.48558600  0.58649300  1
  H  H51  1  0.30308700  0.61702400  0.60399900  1
  H  H52  1  0.27177700  0.77736200  0.57264200  1
  C  C1  1  0.21878800  0.04953600  0.02519900  1
  C  C2  1  0.84099300  0.96438200  0.99570100  1
  C  C3  1  0.03568700  0.29745000  0.11555300  1
  C  C4  1  0.01547800  0.39173500  0.14177000  1
  C  C5  1  0.89565200  0.30538600  0.05420400  1
  C  C6  1  0.87340100  0.39977000  0.07953400  1
  C  C7  1  0.93371400  0.44336500  0.12366700  1
  C  C8  1  0.04876000  0.95266800  0.09644700  1
  C  C9  1  0.01597400  0.08810300  0.92351200  1
  C  C10  1  0.14888300  0.71814900  0.96273600  1
  C  C11  1  0.17171400  0.62465100  0.93673700  1
  C  C12  1  0.12016100  0.58861700  0.88888100  1
  C  C13  1  0.04615300  0.64658200  0.86785500  1
  C  C14  1  0.02512200  0.73979900  0.89484300  1
  C  C15  1  0.97011300  0.01495900  0.59537900  1
  C  C16  1  0.10017600  0.02513200  0.42522500  1
  C  C17  1  0.27248100  0.19080400  0.61823200  1
  C  C18  1  0.36121400  0.23271800  0.64376700  1
  C  C19  1  0.35156400  0.08036600  0.56105800  1
  C  C20  1  0.44144400  0.12067200  0.58576300  1
  C  C21  1  0.44640900  0.19746800  0.62743900  1
  C  C22  1  0.98390300  0.20366700  0.51327100  1
  C  C23  1  0.10208700  0.83366100  0.52038100  1
  C  C24  1  0.76976400  0.95311600  0.40404800  1
  C  C25  1  0.68172100  0.91223700  0.37697300  1
  C  C26  1  0.64152400  0.82990400  0.39083700  1
  C  C27  1  0.69013800  0.78976800  0.43165700  1
  C  C28  1  0.77805600  0.83240100  0.45795600  1
  C  C29  1  0.21218900  0.10389200  0.38125400  1
  C  C30  1  0.05622600  0.91280600  0.14448900  1
  C  C31  1  0.07962900  0.97594200  0.19159700  1
  C  C32  1  0.08852600  0.93613300  0.23652400  1
  C  C33  1  0.07013500  0.83343600  0.23360200  1
  C  C34  1  0.04579200  0.77110000  0.18687300  1
  C  C35  1  0.04012300  0.81012500  0.14253300  1
  C  C36  1  0.13486500  0.03784700  0.37805500  1
  C  C37  1  0.09133100  0.98589400  0.33056600  1
  C  C38  1  0.12590200  0.99914300  0.28661900  1
  C  C39  1  0.20239300  0.06690500  0.29077500  1
  C  C40  1  0.24492700  0.11900100  0.33779300  1
  C  C41  1  0.85288200  0.94296800  0.63891400  1
  C  C42  1  0.01118300  0.12895100  0.87590300  1
  C  C43  1  0.98656300  0.06691700  0.82856500  1
  C  C44  1  0.97953300  0.10731800  0.78391500  1
  C  C45  1  0.00107400  0.20941400  0.78730300  1
  C  C46  1  0.02643000  0.27069800  0.83427300  1
  C  C47  1  0.03023100  0.23118100  0.87838300  1
  C  C48  1  0.93277700  0.00581900  0.64233600  1
  C  C49  1  0.97688000  0.05702400  0.68990000  1
  C  C50  1  0.94063600  0.04578500  0.73367100  1
  C  C51  1  0.86148700  0.98129300  0.72927800  1
  C  C52  1  0.81813900  0.93024400  0.68219600  1
  C  C53  1  0.35778000  0.15589700  0.07476900  1
  C  C54  1  0.73736600  0.93261100  0.99165800  1
  C  C55  1  0.66645600  0.99883100  0.00923200  1
  C  C56  1  0.57103100  0.96404400  0.00860500  1
  C  C57  1  0.54898000  0.86213400  0.98937700  1
  C  C58  1  0.61803500  0.79780100  0.97048000  1
  C  C59  1  0.71135200  0.83231800  0.97161300  1
  C  C60  1  0.32552800  0.07221600  0.03808400  1
  C  C61  1  0.39441000  0.01112300  0.01532800  1
  C  C62  1  0.49532200  0.03158600  0.03033500  1
  C  C63  1  0.52449900  0.11470400  0.06835200  1
  C  C64  1  0.45632200  0.17658200  0.08969500  1
  C  C65  1  0.85480900  0.33359500  0.50649200  1
  C  C66  1  0.12731700  0.73280200  0.53259100  1
  C  C67  1  0.05739000  0.65591000  0.51996700  1
  C  C68  1  0.07383200  0.56594300  0.53888600  1
  C  C69  1  0.16284700  0.55290000  0.56935800  1
  C  C70  1  0.23411600  0.62779900  0.58003000  1
  C  C71  1  0.21635500  0.71796700  0.56208400  1
  C  C72  1  0.95268300  0.30900200  0.51398500  1
  C  C73  1  0.02313500  0.38478500  0.52358400  1
  C  C74  1  0.99710300  0.48605600  0.52760500  1
  C  C75  1  0.89852600  0.51040500  0.52141700  1
  C  C76  1  0.82800500  0.43438400  0.51039300  1
  N  N1  1  0.97590900  0.25568100  0.07241000  1
  N  N2  1  0.07653800  0.77428700  0.94157500  1
  N  N3  1  0.26876000  0.11571000  0.57745400  1
  N  N4  1  0.81658200  0.91296500  0.44390800  1
  O  O1  1  0.15701300  0.11756500  0.04249100  1
  O  O2  1  0.18517300  0.96104500  0.99874300  1
  O  O3  1  0.90348600  0.89806300  0.97768900  1
  O  O4  1  0.87300600  0.05530000  0.01954300  1
  O  O5  1  0.05847400  0.89011600  0.05426800  1
  O  O6  1  0.02927400  0.04913800  0.09518100  1
  O  O7  1  0.00595700  0.14965100  0.96593800  1
  O  O8  1  0.03211600  0.99097700  0.92410000  1
  O  O9  1  0.05928400  0.04925500  0.59763300  1
  O  O10  1  0.91526600  0.98283500  0.55084200  1
  O  O11  1  0.01195500  0.98908700  0.42361400  1
  O  O12  1  0.15656000  0.05477200  0.46950300  1
  O  O13  1  0.92383000  0.12772100  0.49138400  1
  O  O14  1  0.07316400  0.18634100  0.53508200  1
  O  O15  1  0.16161100  0.91085100  0.54042300  1
  O  O16  1  0.01451700  0.84915000  0.49579300  1
