# Generated by REPEAT Assigner based on pymatgen
data_DB15-pcu_N123_E104_opt
_audit_creation_date              2022-05-24
_audit_creation_method            REPEAT_Assigner
_cell_length_a                    17.735867
_cell_length_b                    14.783765
_cell_length_c                    14.209110
_cell_angle_alpha                 106.640178
_cell_angle_beta                  90.878126
_cell_angle_gamma                 114.584578
_cell_volume                      3207.161664
_symmetry_space_group_name_H-M    P1
_symmetry_Int_Tables_number       1
loop_
    _symmetry_equiv_pos_site_id
    _symmetry_equiv_pos_as_xyz
    1  x,y,z
loop_
    _atom_site_type_symbol
    _atom_site_label
    _atom_site_fract_x
    _atom_site_fract_y
    _atom_site_fract_z
    _atom_type_partial_charge
    Ce  Ce1  0.123146  0.050552  0.026976  1.870912
    Ce  Ce2  0.863474  0.930966  0.968705  1.873508
    C   C1   0.947894  0.978584  0.176853  0.693496
    C   C2   0.244516  0.969976  0.036475  0.590829
    C   C3   0.014134  0.203149  0.020539  0.573225
    C   C4   0.038660  0.002302  0.818677  0.695830
    C   C5   0.744832  0.015840  0.960156  0.588272
    C   C6   0.972516  0.778282  0.975212  0.575529
    O   O1   0.872927  0.942856  0.148602  -0.539130
    O   O2   0.002129  0.001578  0.112621  -0.746814
    O   O3   0.218179  0.007308  0.117357  -0.659498
    O   O4   0.213090  0.962353  0.949201  -0.621218
    O   O5   0.082602  0.190868  0.027156  -0.710059
    O   O6   0.939943  0.123135  0.003631  -0.469999
    O   O7   0.113639  0.038225  0.846962  -0.541458
    O   O8   0.984457  0.979408  0.882952  -0.746987
    O   O9   0.769535  0.976161  0.878843  -0.662038
    O   O10  0.774723  0.020689  0.047043  -0.623886
    O   O11  0.904011  0.790529  0.968399  -0.711822
    O   O12  0.046770  0.858307  0.992221  -0.473151
    S   S1   0.910823  0.956142  0.361666  0.048465
    C   C7   0.977771  0.992197  0.279316  -0.063960
    C   C8   0.061217  0.031532  0.316611  -0.211464
    C   C9   0.072088  0.033074  0.412895  -0.093326
    C   C10  0.996574  0.994564  0.447393  0.000818
    S   S2   0.075687  0.024744  0.633863  0.047907
    C   C11  0.008755  0.988650  0.716211  -0.063376
    C   C12  0.925307  0.949380  0.678956  -0.215560
    C   C13  0.914423  0.947901  0.582694  -0.091482
    H   H1   0.112254  0.057567  0.275278  0.142083
    H   H2   0.133006  0.060909  0.455254  0.142932
    C   C14  0.989930  0.986397  0.548177  0.005065
    H   H3   0.874279  0.923364  0.720306  0.143426
    H   H4   0.853505  0.920119  0.540360  0.142370
    S   S3   0.368142  0.949256  0.940484  0.078055
    C   C15  0.320268  0.958225  0.042951  -0.016220
    C   C16  0.370225  0.988627  0.131525  -0.217251
    C   C17  0.450300  0.007020  0.117079  -0.125986
    C   C18  0.458109  0.991262  0.018010  0.001718
    S   S4   0.625882  0.048626  0.057853  0.078829
    C   C19  0.672484  0.034955  0.954724  -0.004836
    C   C20  0.623434  0.008943  0.866730  -0.215233
    C   C21  0.544783  0.997113  0.882108  -0.121675
    H   H5   0.351132  0.005064  0.203949  0.179937
    H   H6   0.500800  0.036088  0.177415  0.144599
    C   C22  0.537155  0.013496  0.981286  -0.012959
    H   H7   0.641578  0.990324  0.793985  0.178615
    H   H8   0.494690  0.971155  0.822210  0.143295
    S   S5   0.049055  0.655443  0.002258  0.062949
    C   C23  0.965078  0.675672  0.972236  -0.078064
    C   C24  0.888694  0.589282  0.953205  -0.074111
    C   C25  0.897159  0.504532  0.962659  -0.189427
    C   C26  0.979924  0.528584  0.989328  0.018480
    S   S6   0.937512  0.326014  0.993838  0.054581
    C   C27  0.021524  0.305776  0.023702  -0.077963
    C   C28  0.097888  0.392203  0.042828  -0.070152
    C   C29  0.089388  0.476989  0.033549  -0.204308
    H   H9   0.828907  0.588140  0.934621  0.112961
    H   H10  0.844482  0.429214  0.951604  0.152884
    C   C30  0.006615  0.452926  0.006917  0.041065
    H   H11  0.157687  0.393341  0.061341  0.112412
    H   H12  0.142053  0.552332  0.044668  0.158366
