data_DB15-pcu_N144_E72_opt_repeat
_audit_creation_date              2024-02-23
_audit_creation_method            'Materials Studio'
_symmetry_space_group_name_H-M    'P1'
_symmetry_Int_Tables_number       1
_symmetry_cell_setting            triclinic
loop_
_symmetry_equiv_pos_as_xyz
  x,y,z
_cell_length_a                    14.0979
_cell_length_b                    10.9066
_cell_length_c                    11.0609
_cell_angle_alpha                 95.0061
_cell_angle_beta                  96.6869
_cell_angle_gamma                 98.2177
loop_
_atom_site_label
_atom_site_type_symbol
_atom_site_fract_x
_atom_site_fract_y
_atom_site_fract_z
_atom_site_U_iso_or_equiv
_atom_site_adp_type
_atom_site_occupancy
C1     C     0.30457   0.01645   0.89417   0.00000  Uiso   1.00
Er1    Er    0.85122   0.98745   0.06269   0.00000  Uiso   1.00
Er2    Er    0.16152   0.03759   0.11018   0.00000  Uiso   1.00
C2     C     0.01562   0.25876   0.09677   0.00000  Uiso   1.00
O1     O     0.08931   0.02272   0.91093   0.00000  Uiso   1.00
C3     C     0.00908   0.01726   0.33016   0.00000  Uiso   1.00
C4     C     0.98210   0.76712   0.06735   0.00000  Uiso   1.00
C5     C     0.68361   0.96280   0.88990   0.00000  Uiso   1.00
O2     O     0.26802   0.09938   0.84909   0.00000  Uiso   1.00
O3     O     0.26989   0.97138   0.99286   0.00000  Uiso   1.00
O4     O     0.05812   0.85484   0.08453   0.00000  Uiso   1.00
O5     O     0.89513   0.79634   0.05406   0.00000  Uiso   1.00
O6     O     0.09154   0.03006   0.28445   0.00000  Uiso   1.00
O7     O     0.92693   0.00104   0.25808   0.00000  Uiso   1.00
C6     C     0.00531   0.00410   0.84262   0.00000  Uiso   1.00
O8     O     0.92506   0.99176   0.89230   0.00000  Uiso   1.00
O9     O     0.09902   0.21945   0.11237   0.00000  Uiso   1.00
O10    O     0.93523   0.18004   0.07896   0.00000  Uiso   1.00
O11    O     0.72371   0.86327   0.90254   0.00000  Uiso   1.00
O12    O     0.72714   0.06973   0.94635   0.00000  Uiso   1.00
C7     C     0.08427   0.98184   0.53291   0.00000  Uiso   1.00
N1     N     0.84685   0.08041   0.44721   0.00000  Uiso   1.00
H1     H     0.14626   0.95833   0.49218   0.00000  Uiso   1.00
H2     H     0.14161   0.94377   0.70877   0.00000  Uiso   1.00
H3     H     0.78505   0.01807   0.45558   0.00000  Uiso   1.00
H4     H     0.83902   0.16811   0.48715   0.00000  Uiso   1.00
H5     H     0.86365   0.05774   0.68156   0.00000  Uiso   1.00
C8     C     0.00704   0.01534   0.46210   0.00000  Uiso   1.00
C9     C     0.92681   0.04131   0.51623   0.00000  Uiso   1.00
C10    C     0.92520   0.03424   0.63979   0.00000  Uiso   1.00
C11    C     0.00312   0.00225   0.71020   0.00000  Uiso   1.00
C12    C     0.08187   0.97432   0.65600   0.00000  Uiso   1.00
C13    C     0.42528   0.87617   0.88743   0.00000  Uiso   1.00
N2     N     0.42660   0.18332   0.76660   0.00000  Uiso   1.00
H6     H     0.37843   0.80849   0.92787   0.00000  Uiso   1.00
H7     H     0.54461   0.77922   0.91570   0.00000  Uiso   1.00
H8     H     0.47273   0.25752   0.81861   0.00000  Uiso   1.00
H9     H     0.43657   0.18728   0.67487   0.00000  Uiso   1.00
H10    H     0.60036   0.12812   0.77154   0.00000  Uiso   1.00
C14    C     0.39489   0.98515   0.85616   0.00000  Uiso   1.00
C15    C     0.45568   0.07072   0.80304   0.00000  Uiso   1.00
C16    C     0.54990   0.05437   0.79845   0.00000  Uiso   1.00
C17    C     0.58256   0.95198   0.84214   0.00000  Uiso   1.00
C18    C     0.51879   0.85836   0.87806   0.00000  Uiso   1.00
C19    C     0.08191   0.59961   0.08069   0.00000  Uiso   1.00
N3     N     0.81624   0.58025   0.08145   0.00000  Uiso   1.00
H11    H     0.14567   0.66638   0.07675   0.00000  Uiso   1.00
H12    H     0.16195   0.44869   0.09245   0.00000  Uiso   1.00
H13    H     0.79095   0.55474   0.16216   0.00000  Uiso   1.00
H14    H     0.77179   0.52709   0.00762   0.00000  Uiso   1.00
H15    H     0.85696   0.36076   0.09511   0.00000  Uiso   1.00
C20    C     0.99171   0.63622   0.07510   0.00000  Uiso   1.00
C21    C     0.91084   0.54840   0.08160   0.00000  Uiso   1.00
C22    C     0.92094   0.42683   0.09047   0.00000  Uiso   1.00
C23    C     0.01030   0.39026   0.09408   0.00000  Uiso   1.00
C24    C     0.09129   0.47659   0.09018   0.00000  Uiso   1.00
