# generated using pymatgen
data_CuH5C9NO4
_symmetry_space_group_name_H-M   'P 1'
_cell_length_a   9.39063900
_cell_length_b   9.25535200
_cell_length_c   35.63275700
_cell_angle_alpha   84.13783200
_cell_angle_beta   84.87501400
_cell_angle_gamma   88.11295900
_symmetry_Int_Tables_number   1
_chemical_formula_structural   CuH5C9NO4
_chemical_formula_sum   'Cu8 H40 C72 N8 O32'
_cell_volume   3067.57582814
_cell_formula_units_Z   8
loop_
 _symmetry_equiv_pos_site_id
 _symmetry_equiv_pos_as_xyz
  1  'x, y, z'
loop_
 _atom_site_type_symbol
 _atom_site_label
 _atom_site_symmetry_multiplicity
 _atom_site_fract_x
 _atom_site_fract_y
 _atom_site_fract_z
 _atom_site_occupancy
  Cu  Cu1  1  0.01178500  0.00614200  0.13629900  1
  Cu  Cu2  1  0.74862900  0.03015800  0.11129400  1
  Cu  Cu3  1  0.53120800  0.49926800  0.63549300  1
  Cu  Cu4  1  0.55342700  0.23381500  0.61110100  1
  Cu  Cu5  1  0.41237800  0.07884500  0.88695800  1
  Cu  Cu6  1  0.14879200  0.10249100  0.86244800  1
  Cu  Cu7  1  0.58286700  0.90118800  0.38414800  1
  Cu  Cu8  1  0.60497300  0.63151000  0.36195500  1
  H  H1  1  0.53352500  0.78712100  0.20497200  1
  H  H2  1  0.49524000  0.73572900  0.14035500  1
  H  H3  1  0.28889600  0.84639400  0.10980000  1
  H  H4  1  0.47974200  0.20135600  0.13221700  1
  H  H5  1  0.27378500  0.30457500  0.10016000  1
  H  H6  1  0.23153600  0.23120600  0.03788700  1
  H  H7  1  0.38302700  0.03672400  0.01115700  1
  H  H8  1  0.58861500  0.93733600  0.04429200  1
  H  H9  1  0.16848400  0.07184400  0.20462900  1
  H  H10  1  0.37477600  0.96530500  0.23628800  1
  H  H11  1  0.31523500  0.00986800  0.70917100  1
  H  H12  1  0.50726500  0.85775600  0.73743100  1
  H  H13  1  0.61539900  0.65658100  0.70396300  1
  H  H14  1  0.47410300  0.07889400  0.54421200  1
  H  H15  1  0.57675900  0.87682400  0.51036700  1
  H  H16  1  0.76345700  0.71686700  0.53845500  1
  H  H17  1  0.82911200  0.75056300  0.60222800  1
  H  H18  1  0.72223700  0.95346600  0.63501200  1
  H  H19  1  0.36552600  0.77330300  0.61297900  1
  H  H20  1  0.25374700  0.97455900  0.64532100  1
  H  H21  1  0.93427100  0.87085200  0.95740300  1
  H  H22  1  0.89452400  0.80568500  0.89400800  1
  H  H23  1  0.68793800  0.91062100  0.86241600  1
  H  H24  1  0.87847000  0.26804000  0.88518200  1
  H  H25  1  0.67363100  0.37660600  0.85367600  1
  H  H26  1  0.63340900  0.31402700  0.79026100  1
  H  H27  1  0.78519200  0.12380900  0.76166900  1
  H  H28  1  0.98966200  0.01859000  0.79433900  1
  H  H29  1  0.57076500  0.15695000  0.95349800  1
  H  H30  1  0.77663300  0.05608400  0.98616700  1
  H  H31  1  0.38224800  0.42654800  0.45744600  1
  H  H32  1  0.28930000  0.37600400  0.39784500  1
  H  H33  1  0.38515000  0.16687800  0.36569400  1
  H  H34  1  0.76936900  0.35570200  0.38516500  1
  H  H35  1  0.88271100  0.15128600  0.35419300  1
  H  H36  1  0.83374000  0.11797500  0.28908700  1
  H  H37  1  0.65579000  0.27897600  0.25752900  1
  H  H38  1  0.54596300  0.48286100  0.28964400  1
  H  H39  1  0.67317900  0.06646800  0.44887700  1
  H  H40  1  0.58143400  0.27513600  0.48199900  1
  C  C1  1  0.76004200  0.00069300  0.19263600  1
  C  C2  1  0.98842100  0.04737800  0.05336000  1
  C  C3  1  0.24503000  0.00339800  0.18978300  1
  C  C4  1  0.35920800  0.94149100  0.20788200  1
  C  C5  1  0.31233200  0.87802000  0.13692600  1
  C  C6  1  0.42678300  0.81371400  0.15432400  1
  C  C7  1  0.44810500  0.84250400  0.19046800  1
  C  C8  1  0.89273900  0.29624300  0.12609900  1
  C  C9  1  0.87488500  0.73584700  0.12654300  1
  C  C10  1  0.45405900  0.16022000  0.10637700  1
  C  C11  1  0.33985200  0.22020000  0.08810400  1
  C  C12  1  0.31574100  0.17845800  0.05334900  1
  C  C13  1  0.40098400  0.07084100  0.03843000  1
  C  C14  1  0.51477700  0.01316700  0.05739400  1
  C  C15  1  0.26411100  0.35459400  0.62083700  1
  C  C16  1  0.82434800  0.37122500  0.62100300  1
  C  C17  1  0.40232000  0.79705800  0.63952000  1
  C  C18  1  0.33727500  0.90843700  0.65797100  1
  C  C19  1  0.54142400  0.73196300  0.69021400  1
  C  C20  1  0.47860100  0.84300400  0.70937900  1
  C  C21  1  0.37225300  0.92855800  0.69366000  1
  C  C22  1  0.55393800  0.49116500  0.55438300  1
  C  C23  1  0.51099000  0.25531500  0.69391000  1
  C  C24  1  0.54684100  0.00155100  0.55776600  1
  C  C25  1  0.60658700  0.88979600  0.53839700  1
  C  C26  1  0.71067800  0.80069200  0.55398000  1
  C  C27  1  0.74708900  0.81917400  0.58968200  1
  C  C28  1  0.68491800  0.93146100  0.60837800  1
  C  C29  1  0.16118400  0.07616000  0.94360600  1
  C  C30  1  0.38663800  0.12510800  0.80407300  1
  C  C31  1  0.64649400  0.08476300  0.93966800  1
  C  C32  1  0.76050100  0.02612100  0.95835900  1
  C  C33  1  0.71197900  0.94771100  0.88889700  1
  C  C34  1  0.82647900  0.88667600  0.90690800  1
  C  C35  1  0.84857300  0.92304400  0.94236000  1
  C  C36  1  0.29286600  0.36873400  0.87713300  1
  C  C37  1  0.27543300  0.80838500  0.87735500  1
  C  C38  1  0.85329400  0.23080900  0.85882300  1
  C  C39  1  0.73972600  0.29396800  0.84086000  1
  C  C40  1  0.71670200  0.25819800  0.80545100  1
  C  C41  1  0.80217100  0.15299000  0.78951300  1
  C  C42  1  0.91529500  0.09194400  0.80820600  1
  C  C43  1  0.87342000  0.76267900  0.37445000  1
  C  C44  1  0.31313300  0.75109600  0.37407700  1
  C  C45  1  0.59179000  0.13801000  0.43702100  1
  C  C46  1  0.53916100  0.25394500  0.45591000  1
  C  C47  1  0.43154800  0.19416600  0.39067600  1
  C  C48  1  0.37633800  0.31046400  0.40893500  1
  C  C49  1  0.42834100  0.33872300  0.44223200  1
  C  C50  1  0.57728000  0.66428100  0.44399400  1
  C  C51  1  0.62742300  0.88151800  0.30281800  1
  C  C52  1  0.74000800  0.33479800  0.35760600  1
  C  C53  1  0.80541300  0.22128100  0.34005200  1
  C  C54  1  0.77762200  0.20240600  0.30367100  1
  C  C55  1  0.67889800  0.29270400  0.28611600  1
  C  C56  1  0.61553000  0.40567800  0.30442300  1
  C  C57  1  0.88811300  0.45083000  0.12677000  1
  C  C58  1  0.87957400  0.58090100  0.12674200  1
  C  C59  1  0.97950600  0.36682600  0.62065000  1
  C  C60  1  0.10921300  0.35893900  0.62042100  1
  C  C61  1  0.28830400  0.52332700  0.87775400  1
  C  C62  1  0.27993300  0.65342100  0.87765100  1
  C  C63  1  0.02833800  0.75868500  0.37468800  1
  C  C64  1  0.15806400  0.75293700  0.37441500  1
  C  C65  1  0.09966700  0.06717200  0.98219800  1
  C  C66  1  0.04893000  0.05840100  0.01466300  1
  C  C67  1  0.56851300  0.60535700  0.48304900  1
  C  C68  1  0.56125100  0.55461900  0.51571600  1
  C  C69  1  0.66192800  0.93678900  0.26398200  1
  C  C70  1  0.70131100  0.97214900  0.23126300  1
  C  C71  1  0.47909400  0.19735500  0.73264300  1
  C  C72  1  0.44216900  0.15879000  0.76534100  1
  N  N1  1  0.22190100  0.96902000  0.15504100  1
  N  N2  1  0.54119800  0.06053200  0.09053200  1
  N  N3  1  0.50031600  0.70871000  0.65612000  1
  N  N4  1  0.58850400  0.02233600  0.59196500  1
  N  N5  1  0.62250300  0.04305300  0.90571800  1
  N  N6  1  0.94085500  0.13374800  0.84203800  1
  N  N7  1  0.53623400  0.10870000  0.40514300  1
  N  N8  1  0.64872600  0.42655400  0.33944200  1
  O  O1  1  0.89929300  0.99714400  0.18567400  1
  O  O2  1  0.67698700  0.01212000  0.16465400  1
  O  O3  1  0.84923100  0.05070600  0.06059800  1
  O  O4  1  0.07181600  0.03098000  0.08120700  1
  O  O5  1  0.78074200  0.23529800  0.11587600  1
  O  O6  1  0.00560200  0.21750100  0.13550800  1
  O  O7  1  0.98665500  0.79851400  0.13634300  1
  O  O8  1  0.76410000  0.81404100  0.11546900  1
  O  O9  1  0.32603700  0.46728300  0.63110800  1
  O  O10  1  0.34262500  0.24098900  0.61135100  1
  O  O11  1  0.76068300  0.25789700  0.61163300  1
  O  O12  1  0.74661500  0.48392200  0.63139700  1
  O  O13  1  0.55964300  0.34956800  0.56139000  1
  O  O14  1  0.54268200  0.57408300  0.58230800  1
  O  O15  1  0.51035400  0.39654200  0.68611800  1
  O  O16  1  0.52561600  0.17039700  0.66638500  1
  O  O17  1  0.30051900  0.07057100  0.93669700  1
  O  O18  1  0.07824600  0.08860200  0.91563700  1
  O  O19  1  0.24776100  0.12540000  0.81180300  1
  O  O20  1  0.47163400  0.10934500  0.83162800  1
  O  O21  1  0.18112400  0.30777500  0.86678700  1
  O  O22  1  0.40556500  0.28999000  0.88663400  1
  O  O23  1  0.38800800  0.87124500  0.88661600  1
  O  O24  1  0.16378700  0.88639800  0.86680800  1
  O  O25  1  0.79594400  0.87672100  0.38401200  1
  O  O26  1  0.81051700  0.65048900  0.36414500  1
  O  O27  1  0.39217300  0.63896200  0.36382300  1
  O  O28  1  0.37526700  0.86526100  0.38348200  1
  O  O29  1  0.59356600  0.57673700  0.41713000  1
  O  O30  1  0.56882500  0.80526000  0.43548100  1
  O  O31  1  0.60794800  0.96898700  0.32973900  1
  O  O32  1  0.63094300  0.74074600  0.31142900  1
