data_DB15-cds_N128_E139_opt_repeat
_audit_creation_date              2024-02-20
_audit_creation_method            'Materials Studio'
_symmetry_space_group_name_H-M    'P1'
_symmetry_Int_Tables_number       1
_symmetry_cell_setting            triclinic
loop_
_symmetry_equiv_pos_as_xyz
  x,y,z
_cell_length_a                    10.8744
_cell_length_b                    10.8045
_cell_length_c                    21.6148
_cell_angle_alpha                 90.9954
_cell_angle_beta                  90.9845
_cell_angle_gamma                 89.9881
loop_
_atom_site_label
_atom_site_type_symbol
_atom_site_fract_x
_atom_site_fract_y
_atom_site_fract_z
_atom_site_U_iso_or_equiv
_atom_site_adp_type
_atom_site_occupancy
C1     C     0.67959   0.99986   0.99924   0.00000  Uiso   1.00
C2     C     0.74322   0.03183   0.94564   0.00000  Uiso   1.00
C3     C     0.68535   0.06383   0.89101   0.00000  Uiso   1.00
C4     C     0.77430   0.08835   0.84972   0.00000  Uiso   1.00
C5     C     0.88540   0.06472   0.87874   0.00000  Uiso   1.00
C6     C     0.98939   0.00222   0.16368   0.00000  Uiso   1.00
H1     H     0.24048   0.01700   0.80157   0.00000  Uiso   1.00
H2     H     0.40294   0.00951   0.88408   0.00000  Uiso   1.00
H3     H     0.39888   0.04180   0.13909   0.00000  Uiso   1.00
H4     H     0.23165   0.03308   0.21593   0.00000  Uiso   1.00
N1     N     0.12725   0.03314   0.94164   0.00000  Uiso   1.00
N2     N     0.12437   0.01596   0.07274   0.00000  Uiso   1.00
N3     N     0.86244   0.99879   0.06855   0.00000  Uiso   1.00
N4     N     0.86714   0.03567   0.93874   0.00000  Uiso   1.00
H5     H     0.74600   0.94349   0.20482   0.00000  Uiso   1.00
H6     H     0.58380   0.94146   0.11774   0.00000  Uiso   1.00
H7     H     0.58981   0.07182   0.87982   0.00000  Uiso   1.00
H8     H     0.75425   0.11853   0.80347   0.00000  Uiso   1.00
Pd1    Pd    0.99550   0.02105   0.00472   0.00000  Uiso   1.00
C7     C     0.10966   0.03686   0.87940   0.00000  Uiso   1.00
C8     C     0.22055   0.02333   0.85029   0.00000  Uiso   1.00
C9     C     0.30862   0.01861   0.89537   0.00000  Uiso   1.00
C10    C     0.25095   0.02780   0.95175   0.00000  Uiso   1.00
C11    C     0.31318   0.03806   0.00992   0.00000  Uiso   1.00
C12    C     0.24843   0.02937   0.06637   0.00000  Uiso   1.00
C13    C     0.30407   0.03511   0.12456   0.00000  Uiso   1.00
C14    C     0.21357   0.02879   0.16685   0.00000  Uiso   1.00
C15    C     0.10385   0.01527   0.13464   0.00000  Uiso   1.00
C16    C     0.99806   0.06067   0.84803   0.00000  Uiso   1.00
C17    C     0.87824   0.98601   0.13034   0.00000  Uiso   1.00
C18    C     0.76653   0.96025   0.15702   0.00000  Uiso   1.00
C19    C     0.67997   0.95883   0.11060   0.00000  Uiso   1.00
C20    C     0.74005   0.98492   0.05664   0.00000  Uiso   1.00
C21    C     0.02939   0.98935   0.66579   0.00000  Uiso   1.00
C22    C     0.03823   0.10093   0.63176   0.00000  Uiso   1.00
C23    C     0.05916   0.21740   0.65737   0.00000  Uiso   1.00
C24    C     0.06886   0.29694   0.61035   0.00000  Uiso   1.00
C25    C     0.04883   0.23220   0.55623   0.00000  Uiso   1.00
C26    C     0.98256   0.65411   0.51486   0.00000  Uiso   1.00
H9     H     0.96475   0.37139   0.37654   0.00000  Uiso   1.00
H10    H     0.91631   0.20989   0.30300   0.00000  Uiso   1.00
H11    H     0.87566   0.70747   0.31391   0.00000  Uiso   1.00
H12    H     0.88901   0.55417   0.40031   0.00000  Uiso   1.00
N5     N     0.99271   0.09706   0.43811   0.00000  Uiso   1.00
N6     N     0.97019   0.83472   0.44597   0.00000  Uiso   1.00
N7     N     0.02140   0.84760   0.57446   0.00000  Uiso   1.00
N8     N     0.03398   0.11003   0.56860   0.00000  Uiso   1.00
H13    H     0.03848   0.57561   0.63932   0.00000  Uiso   1.00
H14    H     0.07329   0.74533   0.71523   0.00000  Uiso   1.00
H15    H     0.07354   0.25309   0.70308   0.00000  Uiso   1.00
H16    H     0.08985   0.39180   0.61833   0.00000  Uiso   1.00
Pd2    Pd    0.00547   0.97236   0.50665   0.00000  Uiso   1.00
C27    C     0.00372   0.22217   0.44434   0.00000  Uiso   1.00
C28    C     0.97520   0.27634   0.38892   0.00000  Uiso   1.00
C29    C     0.95130   0.18460   0.34736   0.00000  Uiso   1.00
C30    C     0.96797   0.07284   0.37689   0.00000  Uiso   1.00
C31    C     0.95962   0.95265   0.34827   0.00000  Uiso   1.00
C32    C     0.94476   0.84604   0.38452   0.00000  Uiso   1.00
C33    C     0.90715   0.73269   0.35998   0.00000  Uiso   1.00
C34    C     0.91485   0.64951   0.40626   0.00000  Uiso   1.00
C35    C     0.95670   0.71241   0.45839   0.00000  Uiso   1.00
C36    C     0.03885   0.28990   0.49818   0.00000  Uiso   1.00
C37    C     0.01543   0.72237   0.56869   0.00000  Uiso   1.00
C38    C     0.03788   0.66991   0.62543   0.00000  Uiso   1.00
C39    C     0.05569   0.76337   0.66702   0.00000  Uiso   1.00
C40    C     0.04053   0.87299   0.63558   0.00000  Uiso   1.00
H17    H     0.05190   0.10206   0.24582   0.00000  Uiso   1.00
H18    H     0.89078   0.07897   0.23650   0.00000  Uiso   1.00
H19    H     0.90746   0.86470   0.25991   0.00000  Uiso   1.00
N9     N     0.09804   0.85740   0.27265   0.00000  Uiso   1.00
C41    C     0.98059   0.03341   0.23249   0.00000  Uiso   1.00
C42    C     0.98184   0.92471   0.27811   0.00000  Uiso   1.00
H20    H     0.16876   0.91120   0.29218   0.00000  Uiso   1.00
H21    H     0.09606   0.77371   0.29568   0.00000  Uiso   1.00
H22    H     0.11495   0.83542   0.22649   0.00000  Uiso   1.00
H23    H     0.93395   0.16536   0.76776   0.00000  Uiso   1.00
H24    H     0.09275   0.13755   0.77437   0.00000  Uiso   1.00
H25    H     0.05568   0.91656   0.75829   0.00000  Uiso   1.00
N10    N     0.86784   0.93104   0.73702   0.00000  Uiso   1.00
C43    C     0.00286   0.09400   0.77966   0.00000  Uiso   1.00
C44    C     0.99276   0.98108   0.73501   0.00000  Uiso   1.00
H26    H     0.80551   0.99968   0.72425   0.00000  Uiso   1.00
H27    H     0.85436   0.85716   0.70618   0.00000  Uiso   1.00
H28    H     0.85064   0.89793   0.78101   0.00000  Uiso   1.00
H29    H     0.52321   0.92897   0.94703   0.00000  Uiso   1.00
H30    H     0.52281   0.88787   0.02233   0.00000  Uiso   1.00
H31    H     0.48108   0.09630   0.05980   0.00000  Uiso   1.00
N11    N     0.47239   0.19056   0.98120   0.00000  Uiso   1.00
C45    C     0.54234   0.96857   0.99322   0.00000  Uiso   1.00
C46    C     0.45181   0.07374   0.01247   0.00000  Uiso   1.00
H32    H     0.46189   0.18429   0.93350   0.00000  Uiso   1.00
H33    H     0.40877   0.25471   0.99796   0.00000  Uiso   1.00
H34    H     0.56033   0.22322   0.99262   0.00000  Uiso   1.00
H35    H     0.93778   0.48674   0.56632   0.00000  Uiso   1.00
H36    H     0.87458   0.48917   0.49462   0.00000  Uiso   1.00
H37    H     0.07190   0.45657   0.44420   0.00000  Uiso   1.00
N12    N     0.18721   0.46306   0.51723   0.00000  Uiso   1.00
C47    C     0.96133   0.51386   0.51929   0.00000  Uiso   1.00
C48    C     0.06523   0.43061   0.49272   0.00000  Uiso   1.00
H38    H     0.18306   0.51645   0.55760   0.00000  Uiso   1.00
H39    H     0.23898   0.38302   0.52428   0.00000  Uiso   1.00
H40    H     0.23106   0.51528   0.48392   0.00000  Uiso   1.00
