# Generated by REPEAT Assigner based on pymatgen
data_DB15-pcu_N144_E68_opt
_audit_creation_date              2022-05-24
_audit_creation_method            REPEAT_Assigner
_cell_length_a                    17.939548
_cell_length_b                    14.811275
_cell_length_c                    15.065891
_cell_angle_alpha                 94.945863
_cell_angle_beta                  96.694256
_cell_angle_gamma                 98.293875
_cell_volume                      3912.568601
_symmetry_space_group_name_H-M    P1
_symmetry_Int_Tables_number       1
loop_
    _symmetry_equiv_pos_site_id
    _symmetry_equiv_pos_as_xyz
    1  x,y,z
loop_
    _atom_site_type_symbol
    _atom_site_label
    _atom_site_fract_x
    _atom_site_fract_y
    _atom_site_fract_z
    _atom_type_partial_charge
    C   C1   0.255633  0.029952  0.941436  0.823907
    Er  Er1  0.883236  0.990156  0.045653  1.850752
    Er  Er2  0.127779  0.032590  0.083159  1.834221
    C   C2   0.010742  0.193229  0.078450  0.813280
    O   O1   0.072741  0.029390  0.937800  -0.501939
    C   C3   0.007574  0.009370  0.243008  0.875869
    C   C4   0.990616  0.832068  0.040978  0.787517
    C   C5   0.754377  0.968152  0.912836  0.578732
    O   O2   0.244058  0.106371  0.925367  -0.621904
    O   O3   0.215732  0.986911  0.999963  -0.798345
    O   O4   0.048241  0.898692  0.056588  -0.676606
    O   O5   0.920711  0.848958  0.036331  -0.696646
    O   O6   0.071297  0.021932  0.208092  -0.735073
    O   O7   0.941578  0.997488  0.191863  -0.775141
    C   C6   0.007395  0.015696  0.886233  0.609893
    O   O8   0.943214  0.000920  0.920656  -0.568391
    O   O9   0.075664  0.163017  0.088961  -0.693544
    O   O10  0.946421  0.136276  0.062171  -0.717040
    O   O11  0.789913  0.897925  0.921361  -0.574205
    O   O12  0.782149  0.046385  0.960437  -0.651859
    C   C7   0.013754  0.010666  0.340507  -0.171776
    C   C8   0.954449  0.999537  0.391876  -0.215768
    C   C9   0.982135  0.006177  0.481638  0.236270
    C   C10  0.059082  0.024417  0.650528  -0.061901
    H   H1   0.894837  0.987605  0.365317  0.154770
    C   C11  0.011825  0.016667  0.790213  -0.092439
    C   C12  0.059987  0.021903  0.495000  0.093167
    C   C13  0.940534  0.998894  0.553624  -0.396893
    H   H2   0.879124  0.986372  0.543591  0.174958
    C   C14  0.099801  0.031364  0.579319  -0.251562
    H   H3   0.161208  0.043885  0.589360  0.200728
    C   C15  0.981233  0.008405  0.639008  0.292706
    C   C16  0.952838  0.003632  0.719945  -0.272811
    H   H4   0.893141  0.991206  0.727470  0.183046
    S   S1   0.100778  0.034477  0.758371  0.112432
    S   S2   0.102559  0.029023  0.400450  -0.034966
    C   C17  0.318965  0.994191  0.906418  -0.122624
    C   C18  0.377527  0.053089  0.881559  -0.300092
    C   C19  0.435095  0.007736  0.862282  0.332941
    C   C20  0.544892  0.901092  0.848720  -0.008914
    H   H5   0.380792  0.126765  0.884542  0.183974
    C   C21  0.677455  0.953645  0.866381  -0.029847
    C   C22  0.418660  0.915502  0.868629  -0.056396
    C   C23  0.506056  0.049255  0.849934  -0.405356
    H   H6   0.519766  0.122989  0.852236  0.173433
    C   C24  0.472660  0.859393  0.857891  -0.212084
    H   H7   0.461146  0.787183  0.866285  0.195368
    C   C25  0.561083  0.994146  0.846936  0.258629
    C   C26  0.637097  0.025076  0.856428  -0.291403
    H   H8   0.661645  0.096847  0.866887  0.198932
    S   S3   0.622859  0.847349  0.858822  0.010665
    S   S4   0.332008  0.881409  0.902404  0.038366
    C   C27  0.005295  0.738568  0.040281  -0.124060
    C   C28  0.948821  0.663560  0.032462  -0.229013
    C   C29  0.979670  0.585926  0.044295  0.232382
    C   C30  0.060411  0.448614  0.076819  0.070804
    H   H9   0.888525  0.665862  0.021407  0.173093
    C   C31  0.015348  0.291570  0.079270  -0.140408
    C   C32  0.057429  0.603755  0.060371  0.053296
    C   C33  0.940122  0.498672  0.043164  -0.382768
    H   H10  0.878795  0.484814  0.030347  0.178377
    C   C34  0.099377  0.535382  0.077062  -0.288037
    H   H11  0.160678  0.549339  0.090413  0.209169
    C   C35  0.982672  0.430172  0.059819  0.238681
    C   C36  0.955687  0.339069  0.060931  -0.239232
    H   H12  0.896464  0.308696  0.047338  0.174513
    S   S5   0.103760  0.356496  0.095499  -0.001730
    S   S6   0.096106  0.715678  0.061170  -0.004099
