# generated using pymatgen
data_LaH9(C3O)6
_symmetry_space_group_name_H-M   'P 1'
_cell_length_a   11.71291300
_cell_length_b   9.72531500
_cell_length_c   38.95080500
_cell_angle_alpha   90.00771900
_cell_angle_beta   90.01106200
_cell_angle_gamma   120.89563700
_symmetry_Int_Tables_number   1
_chemical_formula_structural   LaH9(C3O)6
_chemical_formula_sum   'La6 H54 C108 O36'
_cell_volume   3807.36872992
_cell_formula_units_Z   6
loop_
 _symmetry_equiv_pos_site_id
 _symmetry_equiv_pos_as_xyz
  1  'x, y, z'
loop_
 _atom_site_type_symbol
 _atom_site_label
 _atom_site_symmetry_multiplicity
 _atom_site_fract_x
 _atom_site_fract_y
 _atom_site_fract_z
 _atom_site_occupancy
  La  La1  1  0.84061800  0.12208400  0.08194700  1
  La  La2  1  0.09210700  0.25719200  0.96633500  1
  La  La3  1  0.62920500  0.42496900  0.25556700  1
  La  La4  1  0.31225500  0.20776200  0.36476500  1
  La  La5  1  0.25108400  0.07837200  0.70785700  1
  La  La6  1  0.16442300  0.31787400  0.60572300  1
  H  H1  1  0.90373400  0.64632300  0.04513200  1
  H  H2  1  0.73806900  0.82688600  0.95231700  1
  H  H3  1  0.66069200  0.72706300  0.89770100  1
  H  H4  1  0.63033300  0.49693300  0.87233400  1
  H  H5  1  0.66710400  0.30224400  0.89380700  1
  H  H6  1  0.74640400  0.28651800  0.94708800  1
  H  H7  1  0.05932100  0.45776900  0.31003800  1
  H  H8  1  0.14377000  0.07393900  0.25836100  1
  H  H9  1  0.07327800  0.92601800  0.20842600  1
  H  H10  1  0.96106200  0.95189000  0.16251000  1
  H  H11  1  0.87718300  0.11850200  0.15590300  1
  H  H12  1  0.88365800  0.30430200  0.19224800  1
  H  H13  1  0.73762800  0.62991000  0.68857700  1
  H  H14  1  0.36303300  0.69138300  0.66374300  1
  H  H15  1  0.33673800  0.87403300  0.63249900  1
  H  H16  1  0.48179800  0.05888800  0.59271400  1
  H  H17  1  0.69124000  0.11678800  0.57729100  1
  H  H18  1  0.82199900  0.03907700  0.60104300  1
  H  H19  1  0.71585600  0.17032700  0.66824000  1
  H  H20  1  0.46718800  0.37505300  0.60835200  1
  H  H21  1  0.53353100  0.59967600  0.57496300  1
  H  H22  1  0.74203900  0.78391500  0.55554900  1
  H  H23  1  0.94200500  0.79593900  0.56401400  1
  H  H24  1  0.98564500  0.62989800  0.59652600  1
  H  H25  1  0.39598300  0.59712200  0.07274900  1
  H  H26  1  0.09810600  0.65008500  0.99831200  1
  H  H27  1  0.08927100  0.86996900  0.97996400  1
  H  H28  1  0.20171400  0.12903100  0.00088000  1
  H  H29  1  0.36425100  0.24274400  0.04251200  1
  H  H30  1  0.45843200  0.12426800  0.07447800  1
  H  H31  1  0.53422300  0.83651000  0.28880200  1
  H  H32  1  0.63686000  0.20529300  0.38379400  1
  H  H33  1  0.68547800  0.19541600  0.44094700  1
  H  H34  1  0.70673300  0.00244600  0.46959000  1
  H  H35  1  0.68878900  0.76934200  0.44942000  1
  H  H36  1  0.64542900  0.66636800  0.39422600  1
  H  H37  1  0.25027900  0.40455500  0.16627000  1
  H  H38  1  0.09173100  0.92425500  0.09437900  1
  H  H39  1  0.11010600  0.70469500  0.10005000  1
  H  H40  1  0.25063400  0.66567200  0.13461800  1
  H  H41  1  0.39613000  0.83033800  0.17654700  1
  H  H42  1  0.42142100  0.06214200  0.19870200  1
  H  H43  1  0.39942900  0.34160000  0.49426400  1
  H  H44  1  0.26355300  0.89112800  0.57243200  1
  H  H45  1  0.22893800  0.63914400  0.56428600  1
  H  H46  1  0.26712200  0.53006100  0.51634900  1
  H  H47  1  0.34738500  0.64163400  0.46313700  1
  H  H48  1  0.40951300  0.89425800  0.44338800  1
  H  H49  1  0.17159100  0.14842500  0.84219400  1
  H  H50  1  0.72741100  0.99778300  0.88101500  1
  H  H51  1  0.52807600  0.90226600  0.85222100  1
  H  H52  1  0.48234900  0.84860800  0.79462700  1
  H  H53  1  0.62065600  0.87463400  0.74983700  1
  H  H54  1  0.84613100  0.96213700  0.75093400  1
  C  C1  1  0.54925400  0.92664600  0.07852400  1
  C  C2  1  0.99137800  0.11663100  0.89450300  1
  C  C3  1  0.85970000  0.88048400  0.01177700  1
  C  C4  1  0.20086100  0.49071000  0.02257000  1
  C  C5  1  0.87875800  0.37863000  0.00620100  1
  C  C6  1  0.11597200  0.22148500  0.10662800  1
  C  C7  1  0.88672700  0.43850600  0.25747800  1
  C  C8  1  0.39868500  0.16656800  0.43668000  1
  C  C9  1  0.54364000  0.11156800  0.32121500  1
  C  C10  1  0.18396300  0.27624400  0.30772100  1
  C  C11  1  0.55399500  0.60502100  0.33056200  1
  C  C12  1  0.37630900  0.29644300  0.21465900  1
  C  C13  1  0.47800300  0.17974200  0.66044700  1
  C  C14  1  0.30173600  0.19527000  0.55783900  1
  C  C15  1  0.43734400  0.48540500  0.67190000  1
  C  C16  1  0.94773500  0.37178900  0.62697800  1
  C  C17  1  0.93861700  0.95959000  0.65725000  1
  C  C18  1  0.09293000  0.07237800  0.77170200  1
  C  C19  1  0.77243900  0.64733400  0.97060200  1
  C  C20  1  0.77742900  0.50169000  0.96902100  1
  C  C21  1  0.73401500  0.71647100  0.94584900  1
  C  C22  1  0.68752500  0.65649900  0.91340600  1
  C  C23  1  0.66907500  0.51772200  0.89821500  1
  C  C24  1  0.69139200  0.40072300  0.91103700  1
  C  C25  1  0.74028100  0.39206100  0.94270400  1
  C  C26  1  0.82833600  0.48795200  0.00004300  1
  C  C27  1  0.85232300  0.61662700  0.02075700  1
  C  C28  1  0.81872700  0.71414300  0.00263000  1
  C  C29  1  0.07995000  0.23763300  0.24914700  1
  C  C30  1  0.99854600  0.29258400  0.23325900  1
  C  C31  1  0.09564000  0.11113900  0.24017700  1
  C  C32  1  0.05064000  0.02029600  0.21067900  1
  C  C33  1  0.98184100  0.03451700  0.18344100  1
  C  C34  1  0.93178500  0.13499700  0.17941200  1
  C  C35  1  0.93515900  0.24747200  0.20170200  1
  C  C36  1  0.98713900  0.39164200  0.25731600  1
  C  C37  1  0.05830600  0.40059100  0.28614300  1
  C  C38  1  0.11741900  0.31139000  0.28074800  1
  C  C39  1  0.56323200  0.76794300  0.65187500  1
  C  C40  1  0.69846400  0.88616600  0.64181700  1
  C  C41  1  0.44849100  0.77430200  0.64873300  1
  C  C42  1  0.43265600  0.88393300  0.63023200  1
  C  C43  1  0.51931100  0.99473700  0.60683300  1
  C  C44  1  0.64665600  0.03325800  0.59832600  1
  C  C45  1  0.72920600  0.99027700  0.61416200  1
  C  C46  1  0.78554800  0.84882100  0.65881100  1
  C  C47  1  0.70226900  0.69949600  0.67570800  1
  C  C48  1  0.56558600  0.64851300  0.67024900  1
  C  C49  1  0.65151600  0.40175000  0.62032600  1
  C  C50  1  0.79260900  0.46849200  0.61520200  1
  C  C51  1  0.57155500  0.44800000  0.60449700  1
  C  C52  1  0.61147900  0.57939700  0.58340300  1
  C  C53  1  0.73718100  0.69047200  0.57163100  1
  C  C54  1  0.85693700  0.69782300  0.57662600  1
  C  C55  1  0.88264700  0.59744600  0.59571400  1
  C  C56  1  0.82881500  0.37868700  0.63456900  1
  C  C57  1  0.71845700  0.26236300  0.65211800  1
  C  C58  1  0.60928100  0.27500800  0.64344300  1
  C  C59  1  0.23348500  0.75356700  0.03921100  1
  C  C60  1  0.33706600  0.88526200  0.05817300  1
  C  C61  1  0.15958700  0.75899400  0.01233200  1
  C  C62  1  0.15594100  0.89139800  0.00116200  1
  C  C63  1  0.22471000  0.04717000  0.01343900  1
  C  C64  1  0.32245200  0.11581800  0.03838500  1
  C  C65  1  0.37781000  0.04555100  0.05758500  1
  C  C66  1  0.40692600  0.82735200  0.07496200  1
  C  C67  1  0.34790000  0.66552800  0.06875900  1
  C  C68  1  0.24196600  0.62022200  0.04694900  1
  C  C69  1  0.61707600  0.98824200  0.36655000  1
  C  C70  1  0.62120200  0.84245800  0.36936200  1
  C  C71  1  0.64003200  0.10059800  0.39138300  1
  C  C72  1  0.67037700  0.09523500  0.42543200  1
  C  C73  1  0.68341200  0.97923300  0.44258400  1
  C  C74  1  0.67257300  0.83898000  0.43052600  1
  C  C75  1  0.64530700  0.77639500  0.39770900  1
  C  C76  1  0.59240500  0.77238300  0.33721500  1
  C  C77  1  0.57107000  0.86832400  0.31478100  1
  C  C78  1  0.58480300  0.99910100  0.33286500  1
  C  C79  1  0.21819200  0.07111600  0.13481800  1
  C  C80  1  0.28882300  0.09203900  0.16678700  1
  C  C81  1  0.15803400  0.93477600  0.11448300  1
  C  C82  1  0.16954000  0.80103900  0.11774700  1
  C  C83  1  0.25230700  0.77655300  0.13883500  1
  C  C84  1  0.33780800  0.87369100  0.16427500  1
  C  C85  1  0.35166800  0.01237000  0.17785000  1
  C  C86  1  0.30262000  0.22762400  0.18254500  1
  C  C87  1  0.25304500  0.29732800  0.16079600  1
  C  C88  1  0.20211100  0.20323900  0.13155600  1
  C  C89  1  0.33548300  0.99165200  0.52333300  1
  C  C90  1  0.37111900  0.98923300  0.48764800  1
  C  C91  1  0.28726900  0.86922600  0.54714500  1
  C  C92  1  0.26703900  0.71763700  0.54225700  1
  C  C93  1  0.28977000  0.65207500  0.51339300  1
  C  C94  1  0.33748500  0.71862400  0.48138900  1
  C  C95  1  0.37304400  0.86894600  0.46940000  1
  C  C96  1  0.40347600  0.13553300  0.47347700  1
  C  C97  1  0.39365900  0.22850400  0.49875500  1
  C  C98  1  0.35036500  0.14118700  0.52895800  1
  C  C99  1  0.85111600  0.02001400  0.83941600  1
  C  C100  1  0.88223500  0.00746800  0.80388600  1
  C  C101  1  0.73097900  0.98262000  0.85371300  1
  C  C102  1  0.61194100  0.92506600  0.83643900  1
  C  C103  1  0.58460800  0.89263800  0.80177300  1
  C  C104  1  0.66747500  0.90787300  0.77480300  1
  C  C105  1  0.80142200  0.95936400  0.77536600  1
  C  C106  1  0.01654200  0.06055200  0.80258800  1
  C  C107  1  0.06867100  0.10174300  0.83533200  1
  C  C108  1  0.96814900  0.07640700  0.85781500  1
  O  O1  1  0.61235600  0.90457700  0.10362700  1
  O  O2  1  0.82375200  0.91194100  0.04150400  1
  O  O3  1  0.61495600  0.02823900  0.05381500  1
  O  O4  1  0.94201000  0.99514700  0.99084800  1
  O  O5  1  0.08215500  0.10097900  0.91071300  1
  O  O6  1  0.93061200  0.17982900  0.91052100  1
  O  O7  1  0.25771200  0.52548900  0.99239800  1
  O  O8  1  0.94242600  0.35658400  0.98095600  1
  O  O9  1  0.85681000  0.30404800  0.03598700  1
  O  O10  1  0.10511100  0.34423800  0.02961800  1
  O  O11  1  0.06240800  0.30689400  0.11486600  1
  O  O12  1  0.07632000  0.13578400  0.07842200  1
  O  O13  1  0.83488900  0.44664000  0.22871000  1
  O  O14  1  0.59556400  0.19732100  0.29310300  1
  O  O15  1  0.83969600  0.45913500  0.28636300  1
  O  O16  1  0.46011900  0.12780000  0.34090900  1
  O  O17  1  0.32733300  0.04560800  0.41610600  1
  O  O18  1  0.44785900  0.31353100  0.42522600  1
  O  O19  1  0.13652100  0.25505600  0.33885800  1
  O  O20  1  0.47025500  0.49550200  0.35231100  1
  O  O21  1  0.59313600  0.56894800  0.30188700  1
  O  O22  1  0.29054900  0.26827900  0.30133500  1
  O  O23  1  0.45868600  0.45128200  0.21706500  1
  O  O24  1  0.37691900  0.20257500  0.23882900  1
  O  O25  1  0.46897300  0.09997600  0.68850300  1
  O  O26  1  0.40817000  0.37626100  0.69611500  1
  O  O27  1  0.37164400  0.17961200  0.64948400  1
  O  O28  1  0.35359600  0.44983900  0.64592300  1
  O  O29  1  0.33185100  0.34483200  0.55821600  1
  O  O30  1  0.21994100  0.09608000  0.58119300  1
  O  O31  1  0.97811600  0.37279000  0.59471700  1
  O  O32  1  0.98478700  0.06891400  0.63314800  1
  O  O33  1  0.02530900  0.96928300  0.68065700  1
  O  O34  1  0.02140200  0.36070200  0.65096500  1
  O  O35  1  0.05922300  0.94440600  0.75332900  1
  O  O36  1  0.19576100  0.21016900  0.76248100  1
