# Generated by REPEAT Assigner based on pymatgen
data_DB15-pcu_N139_E11_opt
_audit_creation_date              2022-05-24
_audit_creation_method            REPEAT_Assigner
_cell_length_a                    15.361032
_cell_length_b                    12.247560
_cell_length_c                    16.415100
_cell_angle_alpha                 112.493947
_cell_angle_beta                  74.716024
_cell_angle_gamma                 124.025224
_cell_volume                      2359.841456
_symmetry_space_group_name_H-M    P1
_symmetry_Int_Tables_number       1
loop_
    _symmetry_equiv_pos_site_id
    _symmetry_equiv_pos_as_xyz
    1  x,y,z
loop_
    _atom_site_type_symbol
    _atom_site_label
    _atom_site_fract_x
    _atom_site_fract_y
    _atom_site_fract_z
    _atom_type_partial_charge
    C   C1   0.043939  0.048700  0.740098  1.067166
    Sm  Sm1  0.834631  0.917942  0.129643  1.456786
    Sm  Sm2  0.165570  0.082241  0.870543  1.397324
    C   C2   0.989753  0.790028  0.957975  1.890189
    C   C3   0.306195  0.080907  0.956040  1.789385
    O   O1   0.985206  0.062045  0.240027  -0.617668
    O   O2   0.889375  0.830724  0.211850  -0.582556
    O   O3   0.070538  0.175916  0.977265  -0.585663
    O   O4   0.940234  0.131311  0.092267  -0.339591
    O   O5   0.773129  0.907284  0.995853  -0.544903
    O   O6   0.677283  0.919518  0.126143  -0.673982
    O   O7   0.014952  0.938125  0.760199  -0.694207
    O   O8   0.110773  0.169442  0.788366  -0.590075
    O   O9   0.929685  0.824285  0.022940  -0.922550
    O   O10  0.059992  0.868892  0.907942  -0.647765
    O   O11  0.227091  0.092927  0.004277  -0.848843
    O   O12  0.322938  0.080690  0.873992  -0.981226
    C   C4   0.956199  0.951463  0.260129  1.015538
    C   C5   0.010480  0.210180  0.042239  0.798887
    C   C6   0.694031  0.919311  0.044095  0.894777
    C   C7   0.974735  0.841206  0.347018  0.250483
    C   C8   0.986178  0.958248  0.340832  -0.687816
    C   C9   0.003831  0.068287  0.416341  0.968191
    C   C10  0.006408  0.058957  0.497266  -0.495913
    C   C11  0.993703  0.941191  0.502969  -0.531306
    C   C12  0.979878  0.833442  0.427207  0.910608
    C   C13  0.996284  0.931864  0.583893  0.974564
    C   C14  0.013940  0.041905  0.659401  -0.750370
    C   C15  0.025380  0.158944  0.653216  0.264443
    C   C16  0.020232  0.166706  0.573028  0.896867
    H   H1   0.009107  0.158438  0.413283  -0.330104
    H   H2   0.970005  0.740642  0.430577  -0.499788
    H   H3   0.991012  0.841714  0.586950  -0.307245
    H   H4   0.030105  0.259506  0.569657  -0.499843
    H   H5   0.958906  0.752880  0.289376  -0.124184
    H   H6   0.041212  0.247272  0.710857  -0.097334
    C   C17  0.357573  0.051817  0.074003  -0.126842
    C   C18  0.373640  0.059916  0.989262  -0.266571
    C   C19  0.449900  0.037264  0.931695  0.247129
    C   C20  0.508455  0.004572  0.957938  -0.209662
    C   C21  0.491778  0.995666  0.042203  -0.480387
    C   C22  0.417010  0.020257  0.100455  0.620776
    C   C23  0.550333  0.962972  0.068446  0.500355
    C   C24  0.626590  0.940315  0.010877  -0.362003
    C   C25  0.642658  0.948416  0.926137  0.202212
    C   C26  0.583223  0.979980  0.899686  0.420190
    H   H7   0.463314  0.042083  0.864851  -0.139416
    H   H8   0.403754  0.013393  0.166804  -0.415860
    H   H9   0.536919  0.958151  0.135289  -0.166508
    H   H10  0.596479  0.986844  0.833338  -0.405770
    H   H11  0.297800  0.067864  0.119541  -0.163276
    H   H12  0.702429  0.932365  0.880598  -0.199511
    C   C27  0.067672  0.640660  0.896620  0.123346
    C   C28  0.996573  0.672824  0.955637  -0.642048
    C   C29  0.943469  0.606876  0.021018  0.409367
    C   C30  0.964067  0.514814  0.029155  -0.096449
    C   C31  0.036183  0.485415  0.971073  -0.534234
    C   C32  0.086689  0.547033  0.904042  0.516442
    C   C33  0.056779  0.393351  0.979209  0.686276
    C   C34  0.003671  0.327398  0.044588  -0.563894
    C   C35  0.932575  0.359564  0.103606  0.412405
    C   C36  0.913561  0.453195  0.096186  0.250888
    H   H13  0.887796  0.629772  0.068290  -0.268632
    H   H14  0.143230  0.524386  0.857783  -0.309954
    H   H15  0.112451  0.370454  0.931935  -0.291733
    H   H16  0.857019  0.475842  0.142445  -0.281059
    H   H17  0.111299  0.690637  0.845421  -0.341322
    H   H18  0.888945  0.309583  0.154803  -0.346533
