# generated using pymatgen
data_CuH7(C3O)4
_symmetry_space_group_name_H-M   'P 1'
_cell_length_a   28.77930000
_cell_length_b   28.74880000
_cell_length_c   22.12510000
_cell_angle_alpha   89.87540000
_cell_angle_beta   89.81680000
_cell_angle_gamma   91.71940000
_symmetry_Int_Tables_number   1
_chemical_formula_structural   CuH7(C3O)4
_chemical_formula_sum   'Cu16 H112 C192 O64'
_cell_volume   18297.26878930
_cell_formula_units_Z   16
loop_
 _symmetry_equiv_pos_site_id
 _symmetry_equiv_pos_as_xyz
  1  'x, y, z'
loop_
 _atom_site_type_symbol
 _atom_site_label
 _atom_site_symmetry_multiplicity
 _atom_site_fract_x
 _atom_site_fract_y
 _atom_site_fract_z
 _atom_site_occupancy
  Cu  Cu1  1  0.28411000  0.27585000  0.23027000  1
  Cu  Cu2  1  0.22270000  0.20980000  0.26273000  1
  Cu  Cu3  1  0.71705000  0.72606000  0.23127000  1
  Cu  Cu4  1  0.77955000  0.79151000  0.26095000  1
  Cu  Cu5  1  0.78656000  0.22497000  0.27129000  1
  Cu  Cu6  1  0.72236000  0.28521000  0.24205000  1
  Cu  Cu7  1  0.21452000  0.77133000  0.26509000  1
  Cu  Cu8  1  0.27716000  0.70977000  0.23504000  1
  Cu  Cu9  1  0.77766000  0.22844000  0.74175000  1
  Cu  Cu10  1  0.71652000  0.29127000  0.77327000  1
  Cu  Cu11  1  0.28347000  0.71339000  0.76533000  1
  Cu  Cu12  1  0.22056000  0.77481000  0.73579000  1
  Cu  Cu13  1  0.27812000  0.27310000  0.76150000  1
  Cu  Cu14  1  0.21440000  0.20832000  0.73319000  1
  Cu  Cu15  1  0.78396000  0.79068000  0.73084000  1
  Cu  Cu16  1  0.72130000  0.72548000  0.76167000  1
  H  H1  1  0.83879000  0.30050000  0.00651000  1
  H  H2  1  0.96766000  0.29485000  0.10063000  1
  H  H3  1  0.96194000  0.27438000  0.90718000  1
  H  H4  1  0.03315000  0.29016000  0.90349000  1
  H  H5  1  0.16039000  0.26927000  0.99600000  1
  H  H6  1  0.03468000  0.26855000  0.09785000  1
  H  H7  1  0.33749000  0.77846000  0.50133000  1
  H  H8  1  0.46581000  0.79775000  0.59501000  1
  H  H9  1  0.46388000  0.77384000  0.40147000  1
  H  H10  1  0.53332000  0.79893000  0.39966000  1
  H  H11  1  0.66159000  0.78893000  0.49411000  1
  H  H12  1  0.53508000  0.77665000  0.59362000  1
  H  H13  1  0.16125000  0.69862000  0.99995000  1
  H  H14  1  0.03280000  0.70318000  0.09602000  1
  H  H15  1  0.03760000  0.72529000  0.90266000  1
  H  H16  1  0.96607000  0.71073000  0.90026000  1
  H  H17  1  0.83972000  0.73084000  0.99633000  1
  H  H18  1  0.96627000  0.73014000  0.09491000  1
  H  H19  1  0.66227000  0.22238000  0.50517000  1
  H  H20  1  0.53316000  0.22855000  0.59871000  1
  H  H21  1  0.53634000  0.20129000  0.40608000  1
  H  H22  1  0.46735000  0.22531000  0.40557000  1
  H  H23  1  0.33842000  0.21185000  0.49984000  1
  H  H24  1  0.46459000  0.19964000  0.59876000  1
  H  H25  1  0.71355000  0.84494000  0.99510000  1
  H  H26  1  0.70348000  0.97124000  0.09576000  1
  H  H27  1  0.72793000  0.97413000  0.90255000  1
  H  H28  1  0.70162000  0.04231000  0.90412000  1
  H  H29  1  0.71380000  0.16883000  0.00553000  1
  H  H30  1  0.73126000  0.04019000  0.09583000  1
  H  H31  1  0.21573000  0.32902000  0.49773000  1
  H  H32  1  0.19963000  0.45504000  0.59638000  1
  H  H33  1  0.22445000  0.45787000  0.40298000  1
  H  H34  1  0.19750000  0.52519000  0.40353000  1
  H  H35  1  0.21404000  0.65307000  0.49932000  1
  H  H36  1  0.22363000  0.52559000  0.59645000  1
  H  H37  1  0.28638000  0.15502000  0.00019000  1
  H  H38  1  0.29812000  0.02734000  0.09550000  1
  H  H39  1  0.27082000  0.02726000  0.90311000  1
  H  H40  1  0.29686000  0.95930000  0.90175000  1
  H  H41  1  0.28638000  0.83102000  0.00028000  1
  H  H42  1  0.27145000  0.95800000  0.09477000  1
  H  H43  1  0.78475000  0.67098000  0.49849000  1
  H  H44  1  0.80155000  0.54475000  0.59629000  1
  H  H45  1  0.77632000  0.54248000  0.40311000  1
  H  H46  1  0.80009000  0.47346000  0.40421000  1
  H  H47  1  0.78505000  0.34684000  0.50450000  1
  H  H48  1  0.77578000  0.47548000  0.59770000  1
  H  H49  1  0.26920000  0.10026000  0.14801000  1
  H  H50  1  0.32503000  0.17905000  0.08584000  1
  H  H51  1  0.76983000  0.61678000  0.64757000  1
  H  H52  1  0.82446000  0.69598000  0.58458000  1
  H  H53  1  0.72099000  0.90066000  0.14791000  1
  H  H54  1  0.68441000  0.81595000  0.07789000  1
  H  H55  1  0.23048000  0.38233000  0.64738000  1
  H  H56  1  0.17705000  0.30294000  0.58390000  1
  H  H57  1  0.89683000  0.28163000  0.15507000  1
  H  H58  1  0.81486000  0.32569000  0.09189000  1
  H  H59  1  0.39317000  0.76384000  0.64833000  1
  H  H60  1  0.31576000  0.81792000  0.58840000  1
  H  H61  1  0.10370000  0.71600000  0.14949000  1
  H  H62  1  0.18519000  0.67210000  0.08470000  1
  H  H63  1  0.60881000  0.25617000  0.64717000  1
  H  H64  1  0.67856000  0.18674000  0.59923000  1
  H  H65  1  0.71824000  0.11453000  0.85197000  1
  H  H66  1  0.68263000  0.19652000  0.92429000  1
  H  H67  1  0.22892000  0.59882000  0.35101000  1
  H  H68  1  0.17408000  0.67498000  0.41269000  1
  H  H69  1  0.27918000  0.88801000  0.84841000  1
  H  H70  1  0.31689000  0.80533000  0.91745000  1
  H  H71  1  0.76936000  0.39853000  0.35436000  1
  H  H72  1  0.82396000  0.32323000  0.41825000  1
  H  H73  1  0.10411000  0.25421000  0.84990000  1
  H  H74  1  0.18294000  0.31169000  0.90842000  1
  H  H75  1  0.60645000  0.76953000  0.34714000  1
  H  H76  1  0.68319000  0.82929000  0.40649000  1
  H  H77  1  0.89470000  0.74655000  0.84839000  1
  H  H78  1  0.81601000  0.68992000  0.90947000  1
  H  H79  1  0.39169000  0.24767000  0.35677000  1
  H  H80  1  0.32155000  0.17500000  0.40651000  1
  H  H81  1  0.74981000  0.89894000  0.85316000  1
  H  H82  1  0.68017000  0.82574000  0.90296000  1
  H  H83  1  0.24897000  0.38332000  0.35395000  1
  H  H84  1  0.18117000  0.30889000  0.40480000  1
  H  H85  1  0.26003000  0.09871000  0.85170000  1
  H  H86  1  0.31133000  0.18043000  0.91258000  1
  H  H87  1  0.75220000  0.61746000  0.35413000  1
  H  H88  1  0.81818000  0.69270000  0.40603000  1
  H  H89  1  0.10916000  0.72985000  0.85205000  1
  H  H90  1  0.18566000  0.67529000  0.91295000  1
  H  H91  1  0.61033000  0.23359000  0.35443000  1
  H  H92  1  0.68850000  0.18436000  0.41991000  1
  H  H93  1  0.89012000  0.27055000  0.85757000  1
  H  H94  1  0.81476000  0.32574000  0.92014000  1
  H  H95  1  0.38780000  0.74777000  0.35504000  1
  H  H96  1  0.31542000  0.81166000  0.40939000  1
  H  H97  1  0.24935000  0.88143000  0.14277000  1
  H  H98  1  0.31865000  0.81231000  0.09283000  1
  H  H99  1  0.75176000  0.39979000  0.64777000  1
  H  H100  1  0.81935000  0.32905000  0.59782000  1
  H  H101  1  0.75392000  0.11648000  0.14502000  1
  H  H102  1  0.68173000  0.18434000  0.09973000  1
  H  H103  1  0.24765000  0.60226000  0.64416000  1
  H  H104  1  0.18122000  0.67318000  0.59206000  1
  H  H105  1  0.89111000  0.75822000  0.14200000  1
  H  H106  1  0.81825000  0.69067000  0.08790000  1
  H  H107  1  0.39065000  0.22797000  0.64997000  1
  H  H108  1  0.31286000  0.17250000  0.58618000  1
  H  H109  1  0.11044000  0.24102000  0.14340000  1
  H  H110  1  0.18295000  0.30807000  0.08661000  1
  H  H111  1  0.61105000  0.75580000  0.64065000  1
  H  H112  1  0.68320000  0.82421000  0.58583000  1
  C  C1  1  0.87616000  0.29926000  0.00556000  1
  C  C2  1  0.90083000  0.29779000  0.06037000  1
  C  C3  1  0.94927000  0.29297000  0.05829000  1
  C  C4  1  0.97316000  0.28598000  0.00318000  1
  C  C5  1  0.94631000  0.28329000  0.94981000  1
  C  C6  1  0.89849000  0.29172000  0.94994000  1
  C  C7  1  0.02543000  0.28118000  0.00126000  1
  C  C8  1  0.05032000  0.28410000  0.94589000  1
  C  C9  1  0.09859000  0.27944000  0.94368000  1
  C  C10  1  0.12329000  0.27445000  0.99757000  1
  C  C11  1  0.10004000  0.27208000  0.05319000  1
  C  C12  1  0.05139000  0.27363000  0.05456000  1
  C  C13  1  0.37494000  0.78326000  0.50005000  1
  C  C14  1  0.39969000  0.78827000  0.55418000  1
  C  C15  1  0.44828000  0.79189000  0.55257000  1
  C  C16  1  0.47324000  0.78743000  0.49782000  1
  C  C17  1  0.44713000  0.78016000  0.44422000  1
  C  C18  1  0.39835000  0.77974000  0.44477000  1
  C  C19  1  0.52581000  0.78905000  0.49704000  1
  C  C20  1  0.55083000  0.79463000  0.44224000  1
  C  C21  1  0.59945000  0.79420000  0.44084000  1
  C  C22  1  0.62412000  0.79125000  0.49516000  1
  C  C23  1  0.60061000  0.78657000  0.55041000  1
  C  C24  1  0.55186000  0.78381000  0.55080000  1
  C  C25  1  0.12387000  0.69981000  0.99951000  1
  C  C26  1  0.09939000  0.70072000  0.05468000  1
  C  C27  1  0.05098000  0.70555000  0.05339000  1
  C  C28  1  0.02687000  0.71315000  0.99878000  1
  C  C29  1  0.05346000  0.71613000  0.94497000  1
  C  C30  1  0.10133000  0.70782000  0.94429000  1
  C  C31  1  0.97464000  0.71834000  0.99798000  1
  C  C32  1  0.94927000  0.71628000  0.94315000  1
  C  C33  1  0.90099000  0.72117000  0.94221000  1
  C  C34  1  0.87682000  0.72554000  0.99680000  1
  C  C35  1  0.90060000  0.72717000  0.05182000  1
  C  C36  1  0.94920000  0.72546000  0.05197000  1
  C  C37  1  0.62482000  0.21761000  0.50454000  1
  C  C38  1  0.59975000  0.22207000  0.55850000  1
  C  C39  1  0.55114000  0.22152000  0.55698000  1
  C  C40  1  0.52660000  0.21306000  0.50268000  1
  C  C41  1  0.55297000  0.20784000  0.44900000  1
  C  C42  1  0.60172000  0.21158000  0.44936000  1
  C  C43  1  0.47412000  0.21127000  0.50191000  1
  C  C44  1  0.44945000  0.21757000  0.44751000  1
  C  C45  1  0.40082000  0.21500000  0.44617000  1
  C  C46  1  0.37589000  0.20946000  0.50035000  1
  C  C47  1  0.39914000  0.20542000  0.55555000  1
  C  C48  1  0.44788000  0.20479000  0.55577000  1
  C  C49  1  0.71122000  0.88235000  0.99669000  1
  C  C50  1  0.70832000  0.90545000  0.05253000  1
  C  C51  1  0.70851000  0.95432000  0.05282000  1
  C  C52  1  0.71439000  0.98065000  0.99905000  1
  C  C53  1  0.72021000  0.95608000  0.94438000  1
  C  C54  1  0.71710000  0.90737000  0.94265000  1
  C  C55  1  0.71468000  0.03318000  0.00020000  1
  C  C56  1  0.70757000  0.05938000  0.94693000  1
  C  C57  1  0.70733000  0.10829000  0.94772000  1
  C  C58  1  0.71163000  0.13128000  0.00362000  1
  C  C59  1  0.71912000  0.10634000  0.05701000  1
  C  C60  1  0.72226000  0.05790000  0.05462000  1
  C  C61  1  0.21195000  0.36637000  0.49802000  1
  C  C62  1  0.20739000  0.38975000  0.55314000  1
  C  C63  1  0.20503000  0.43838000  0.55337000  1
  C  C64  1  0.21019000  0.46462000  0.49949000  1
  C  C65  1  0.21728000  0.43993000  0.44502000  1
  C  C66  1  0.21639000  0.39118000  0.44369000  1
  C  C67  1  0.20953000  0.51713000  0.50019000  1
  C  C68  1  0.20342000  0.54251000  0.44615000  1
  C  C69  1  0.20555000  0.59117000  0.44543000  1
  C  C70  1  0.21038000  0.61549000  0.49997000  1
  C  C71  1  0.21518000  0.59158000  0.55474000  1
  C  C72  1  0.21638000  0.54277000  0.55426000  1
  C  C73  1  0.28891000  0.11761000  0.99886000  1
  C  C74  1  0.29243000  0.09334000  0.05356000  1
  C  C75  1  0.29281000  0.04467000  0.05288000  1
  C  C76  1  0.28598000  0.01930000  0.99876000  1
  C  C77  1  0.27904000  0.04486000  0.94495000  1
  C  C78  1  0.28268000  0.09374000  0.94388000  1
  C  C79  1  0.28580000  0.96674000  0.99860000  1
  C  C80  1  0.29171000  0.94151000  0.94437000  1
  C  C81  1  0.29190000  0.89262000  0.94387000  1
  C  C82  1  0.28873000  0.86859000  0.99932000  1
  C  C83  1  0.28249000  0.89252000  0.05367000  1
  C  C84  1  0.27949000  0.94103000  0.05271000  1
  C  C85  1  0.78863000  0.63365000  0.49842000  1
  C  C86  1  0.79338000  0.60995000  0.55333000  1
  C  C87  1  0.79574000  0.56142000  0.55336000  1
  C  C88  1  0.79002000  0.53536000  0.49963000  1
  C  C89  1  0.78327000  0.56030000  0.44514000  1
  C  C90  1  0.78422000  0.60917000  0.44398000  1
  C  C91  1  0.78972000  0.48280000  0.50103000  1
  C  C92  1  0.79490000  0.45666000  0.44747000  1
  C  C93  1  0.79284000  0.40790000  0.44831000  1
  C  C94  1  0.78859000  0.38443000  0.50375000  1
  C  C95  1  0.78412000  0.40917000  0.55780000  1
  C  C96  1  0.78295000  0.45786000  0.55585000  1
  C  C97  1  0.30649000  0.21515000  0.32504000  1
  C  C98  1  0.19852000  0.26920000  0.16905000  1
  C  C99  1  0.22237000  0.29583000  0.32337000  1
  C  C100  1  0.28673000  0.19098000  0.16993000  1
  C  C101  1  0.69612000  0.79086000  0.32304000  1
  C  C102  1  0.80331000  0.73049000  0.16978000  1
  C  C103  1  0.77746000  0.70571000  0.32442000  1
  C  C104  1  0.71616000  0.80846000  0.16635000  1
  C  C105  1  0.80582000  0.28963000  0.17786000  1
  C  C106  1  0.70124000  0.22159000  0.33438000  1
  C  C107  1  0.72444000  0.20056000  0.17914000  1
  C  C108  1  0.78643000  0.30873000  0.33395000  1
  C  C109  1  0.30036000  0.77089000  0.32762000  1
  C  C110  1  0.19460000  0.70705000  0.17108000  1
  C  C111  1  0.21189000  0.68820000  0.32790000  1
  C  C112  1  0.27646000  0.79590000  0.17326000  1
  C  C113  1  0.71421000  0.20680000  0.83552000  1
  C  C114  1  0.77828000  0.31412000  0.67968000  1
  C  C115  1  0.80159000  0.28940000  0.83523000  1
  C  C116  1  0.69381000  0.22852000  0.67974000  1
  C  C117  1  0.30350000  0.77918000  0.67261000  1
  C  C118  1  0.19794000  0.71289000  0.82840000  1
  C  C119  1  0.22233000  0.68896000  0.67321000  1
  C  C120  1  0.28464000  0.79605000  0.82936000  1
  C  C121  1  0.21437000  0.29145000  0.66863000  1
  C  C122  1  0.27538000  0.18925000  0.82711000  1
  C  C123  1  0.29992000  0.20974000  0.67086000  1
  C  C124  1  0.19438000  0.27327000  0.82452000  1
  C  C125  1  0.69816000  0.78484000  0.66830000  1
  C  C126  1  0.80416000  0.72735000  0.82489000  1
  C  C127  1  0.78650000  0.70744000  0.66902000  1
  C  C128  1  0.72226000  0.81184000  0.82262000  1
  C  C129  1  0.28845000  0.11793000  0.11210000  1
  C  C130  1  0.30332000  0.16209000  0.11991000  1
  C  C131  1  0.78873000  0.63463000  0.61148000  1
  C  C132  1  0.80307000  0.67888000  0.61888000  1
  C  C133  1  0.71025000  0.88132000  0.10802000  1
  C  C134  1  0.70123000  0.83549000  0.11384000  1
  C  C135  1  0.21205000  0.36456000  0.61108000  1
  C  C136  1  0.19817000  0.32004000  0.61820000  1
  C  C137  1  0.87794000  0.29537000  0.11695000  1
  C  C138  1  0.83340000  0.30639000  0.12566000  1
  C  C139  1  0.37571000  0.78280000  0.61306000  1
  C  C140  1  0.33227000  0.79650000  0.62196000  1
  C  C141  1  0.12242000  0.70257000  0.11096000  1
  C  C142  1  0.16687000  0.69119000  0.11894000  1
  C  C143  1  0.62410000  0.23195000  0.61593000  1
  C  C144  1  0.66461000  0.21275000  0.62909000  1
  C  C145  1  0.70805000  0.13291000  0.89245000  1
  C  C146  1  0.69898000  0.17829000  0.88757000  1
  C  C147  1  0.21000000  0.61573000  0.38683000  1
  C  C148  1  0.19546000  0.65897000  0.37862000  1
  C  C149  1  0.29018000  0.86902000  0.88804000  1
  C  C150  1  0.29971000  0.82390000  0.88173000  1
  C  C151  1  0.78816000  0.38220000  0.39067000  1
  C  C152  1  0.80254000  0.33869000  0.38389000  1
  C  C153  1  0.12220000  0.27404000  0.88468000  1
  C  C154  1  0.16594000  0.28944000  0.87520000  1
  C  C155  1  0.62363000  0.78993000  0.38214000  1
  C  C156  1  0.66698000  0.80654000  0.37320000  1
  C  C157  1  0.87677000  0.72706000  0.88387000  1
  C  C158  1  0.83283000  0.71197000  0.87562000  1
  C  C159  1  0.37631000  0.22295000  0.38864000  1
  C  C160  1  0.33562000  0.20147000  0.37606000  1
  C  C161  1  0.72560000  0.88279000  0.88504000  1
  C  C162  1  0.70622000  0.84088000  0.87277000  1
  C  C163  1  0.22536000  0.36668000  0.38617000  1
  C  C164  1  0.20659000  0.32450000  0.37407000  1
  C  C165  1  0.27625000  0.11754000  0.88887000  1
  C  C166  1  0.28990000  0.16210000  0.87975000  1
  C  C167  1  0.77519000  0.63421000  0.38671000  1
  C  C168  1  0.79313000  0.67697000  0.37522000  1
  C  C169  1  0.12601000  0.71250000  0.88926000  1
  C  C170  1  0.16926000  0.69744000  0.88025000  1
  C  C171  1  0.62752000  0.21633000  0.39139000  1
  C  C172  1  0.67193000  0.20433000  0.38490000  1
  C  C173  1  0.87362000  0.28776000  0.89521000  1
  C  C174  1  0.83065000  0.30362000  0.88695000  1
  C  C175  1  0.37221000  0.77020000  0.38826000  1
  C  C176  1  0.32998000  0.78711000  0.37800000  1
  C  C177  1  0.27352000  0.86682000  0.11085000  1
  C  C178  1  0.29262000  0.82588000  0.12298000  1
  C  C179  1  0.77528000  0.38438000  0.61570000  1
  C  C180  1  0.79403000  0.34336000  0.62840000  1
  C  C181  1  0.72875000  0.13102000  0.11452000  1
  C  C182  1  0.70865000  0.17103000  0.12859000  1
  C  C183  1  0.22445000  0.61744000  0.61161000  1
  C  C184  1  0.20645000  0.65911000  0.62282000  1
  C  C185  1  0.87516000  0.73512000  0.10888000  1
  C  C186  1  0.83295000  0.71580000  0.11947000  1
  C  C187  1  0.37352000  0.20906000  0.61357000  1
  C  C188  1  0.32930000  0.19398000  0.62065000  1
  C  C189  1  0.12615000  0.26387000  0.10956000  1
  C  C190  1  0.16854000  0.28308000  0.11883000  1
  C  C191  1  0.62661000  0.77910000  0.60720000  1
  C  C192  1  0.66866000  0.79889000  0.61751000  1
  O  O1  1  0.31893000  0.24903000  0.29104000  1
  O  O2  1  0.23764000  0.29017000  0.17571000  1
  O  O3  1  0.25533000  0.31040000  0.28931000  1
  O  O4  1  0.30420000  0.23170000  0.17624000  1
  O  O5  1  0.25335000  0.17645000  0.20346000  1
  O  O6  1  0.20428000  0.25534000  0.31660000  1
  O  O7  1  0.18643000  0.23529000  0.20303000  1
  O  O8  1  0.26758000  0.19408000  0.31785000  1
  O  O9  1  0.68303000  0.75646000  0.29049000  1
  O  O10  1  0.76396000  0.71006000  0.17760000  1
  O  O11  1  0.74401000  0.69150000  0.29139000  1
  O  O12  1  0.69799000  0.76825000  0.17455000  1
  O  O13  1  0.74917000  0.82362000  0.19979000  1
  O  O14  1  0.79634000  0.74581000  0.31624000  1
  O  O15  1  0.81587000  0.76480000  0.20246000  1
  O  O16  1  0.73578000  0.81033000  0.31564000  1
  O  O17  1  0.82008000  0.25672000  0.21088000  1
  O  O18  1  0.74116000  0.20480000  0.32654000  1
  O  O19  1  0.75852000  0.18888000  0.21160000  1
  O  O20  1  0.80523000  0.26985000  0.32644000  1
  O  O21  1  0.75234000  0.32050000  0.30145000  1
  O  O22  1  0.70491000  0.23904000  0.18753000  1
  O  O23  1  0.68775000  0.25491000  0.30168000  1
  O  O24  1  0.76596000  0.30617000  0.18615000  1
  O  O25  1  0.26106000  0.78908000  0.31987000  1
  O  O26  1  0.18100000  0.74011000  0.20436000  1
  O  O27  1  0.19396000  0.72746000  0.32037000  1
  O  O28  1  0.24268000  0.80792000  0.20613000  1
  O  O29  1  0.29515000  0.75684000  0.18101000  1
  O  O30  1  0.24558000  0.67557000  0.29495000  1
  O  O31  1  0.23400000  0.68957000  0.17906000  1
  O  O32  1  0.31304000  0.73759000  0.29450000  1
  O  O33  1  0.74703000  0.19356000  0.80162000  1
  O  O34  1  0.79631000  0.27472000  0.68717000  1
  O  O35  1  0.81374000  0.25628000  0.80135000  1
  O  O36  1  0.73273000  0.20983000  0.68705000  1
  O  O37  1  0.68147000  0.26188000  0.71324000  1
  O  O38  1  0.76281000  0.30854000  0.82783000  1
  O  O39  1  0.74537000  0.32699000  0.71354000  1
  O  O40  1  0.69680000  0.24644000  0.82843000  1
  O  O41  1  0.31690000  0.74567000  0.70530000  1
  O  O42  1  0.23725000  0.69486000  0.82022000  1
  O  O43  1  0.25598000  0.67691000  0.70607000  1
  O  O44  1  0.30296000  0.75703000  0.82116000  1
  O  O45  1  0.25129000  0.80904000  0.79627000  1
  O  O46  1  0.20345000  0.72793000  0.68115000  1
  O  O47  1  0.18486000  0.74600000  0.79513000  1
  O  O48  1  0.26387000  0.79621000  0.68034000  1
  O  O49  1  0.24841000  0.30566000  0.70087000  1
  O  O50  1  0.29463000  0.22897000  0.81810000  1
  O  O51  1  0.31326000  0.24406000  0.70315000  1
  O  O52  1  0.23412000  0.29244000  0.81606000  1
  O  O53  1  0.18070000  0.23874000  0.79261000  1
  O  O54  1  0.26000000  0.19056000  0.67869000  1
  O  O55  1  0.24219000  0.17454000  0.79390000  1
  O  O56  1  0.19568000  0.25145000  0.67694000  1
  O  O57  1  0.73743000  0.80546000  0.67586000  1
  O  O58  1  0.81756000  0.76137000  0.79156000  1
  O  O59  1  0.80440000  0.74784000  0.67598000  1
  O  O60  1  0.75598000  0.82581000  0.78953000  1
  O  O61  1  0.70354000  0.77165000  0.81529000  1
  O  O62  1  0.75278000  0.69295000  0.70211000  1
  O  O63  1  0.76458000  0.70776000  0.81755000  1
  O  O64  1  0.68541000  0.75100000  0.70196000  1
