# generated using pymatgen
data_ZnH6C11O5
_symmetry_space_group_name_H-M   'P 1'
_cell_length_a   17.07740400
_cell_length_b   15.29981600
_cell_length_c   17.07739600
_cell_angle_alpha   99.65636900
_cell_angle_beta   89.98049900
_cell_angle_gamma   80.35106400
_symmetry_Int_Tables_number   1
_chemical_formula_structural   ZnH6C11O5
_chemical_formula_sum   'Zn4 H24 C44 O20'
_cell_volume   4334.69396689
_cell_formula_units_Z   4
loop_
 _symmetry_equiv_pos_site_id
 _symmetry_equiv_pos_as_xyz
  1  'x, y, z'
loop_
 _atom_site_type_symbol
 _atom_site_label
 _atom_site_symmetry_multiplicity
 _atom_site_fract_x
 _atom_site_fract_y
 _atom_site_fract_z
 _atom_site_occupancy
  Zn  Zn1  1  0.25411600  0.64094500  0.50202500  1
  Zn  Zn2  1  0.27673300  0.49011400  0.61055200  1
  Zn  Zn3  1  0.12285300  0.64091300  0.63327200  1
  Zn  Zn4  1  0.14551800  0.49016800  0.47933600  1
  H  H1  1  0.63235400  0.67031600  0.66298700  1
  H  H2  1  0.51520500  0.46072700  0.44954300  1
  H  H3  1  0.12449800  0.46105200  0.09223800  1
  H  H4  1  0.06749600  0.48612800  0.29293900  1
  H  H5  1  0.27526100  0.67034600  0.01960200  1
  H  H6  1  0.03130400  0.08048900  0.72504900  1
  H  H7  1  0.48362900  0.67030200  0.66296600  1
  H  H8  1  0.05711100  0.90960200  0.69925500  1
  H  H9  1  0.26133300  0.82450500  0.49478000  1
  H  H10  1  0.36827100  0.05147900  0.38762800  1
  H  H11  1  0.33224400  0.64529900  0.81890500  1
  H  H12  1  0.91677700  0.46075200  0.44959700  1
  H  H13  1  0.76805900  0.46074800  0.44957600  1
  H  H14  1  0.41819300  0.21680900  0.41271100  1
  H  H15  1  0.64085400  0.40532100  0.39310600  1
  H  H16  1  0.73647300  0.67031500  0.66299600  1
  H  H17  1  0.93714200  0.64528200  0.71248400  1
  H  H18  1  0.16045800  0.22204300  0.59567800  1
  H  H19  1  0.10940600  0.16610000  0.64681800  1
  H  H20  1  0.38212400  0.94631800  0.37378000  1
  H  H21  1  0.27523200  0.67026600  0.27243700  1
  H  H22  1  0.12453000  0.46112400  0.83940300  1
  H  H23  1  0.27524300  0.67031600  0.12372600  1
  H  H24  1  0.08464800  0.40574100  0.94836900  1
  C  C1  1  0.99585500  0.56555100  0.55632000  1
  C  C2  1  0.90860700  0.56553700  0.55630900  1
  C  C3  1  0.87632100  0.50778100  0.49748700  1
  C  C4  1  0.79434100  0.50777900  0.49747400  1
  C  C5  1  0.74464900  0.56552900  0.55628700  1
  C  C6  1  0.77694000  0.62329100  0.61511200  1
  C  C7  1  0.85891800  0.62329600  0.61512100  1
  C  C8  1  0.60607200  0.62327300  0.61509100  1
  C  C9  1  0.52408900  0.62326600  0.61508300  1
  C  C10  1  0.54149600  0.50775600  0.49744400  1
  C  C11  1  0.62347400  0.50776100  0.49745300  1
  C  C12  1  0.65575900  0.56552200  0.55627900  1
  C  C13  1  0.23501200  0.33120600  0.52099500  1
  C  C14  1  0.25014500  0.23095900  0.50586700  1
  C  C15  1  0.09216000  0.94803300  0.66415400  1
  C  C16  1  0.07793800  0.04222000  0.67836600  1
  C  C17  1  0.12098900  0.08940900  0.63524300  1
  C  C18  1  0.17826400  0.04240200  0.57790400  1
  C  C19  1  0.19248300  0.94820600  0.56368700  1
  C  C20  1  0.22131100  0.08958300  0.53477500  1
  C  C21  1  0.27858700  0.04257600  0.47743700  1
  C  C22  1  0.29280400  0.94838900  0.46322200  1
  C  C23  1  0.24975300  0.90119900  0.50634600  1
  C  C24  1  0.20709200  0.18377900  0.54899300  1
  C  C25  1  0.30741500  0.18395200  0.44852600  1
  C  C26  1  0.32163700  0.08976500  0.43431400  1
  C  C27  1  0.40455200  0.56551800  0.55627100  1
  C  C28  1  0.49180300  0.56551100  0.55626100  1
  C  C29  1  0.19984300  0.56560100  0.35156200  1
  C  C30  1  0.19985900  0.56563000  0.26431600  1
  C  C31  1  0.16448300  0.80077900  0.59171800  1
  C  C32  1  0.14943000  0.90102600  0.60681300  1
  C  C33  1  0.24140500  0.62331500  0.23200500  1
  C  C34  1  0.24141000  0.62334500  0.15002900  1
  C  C35  1  0.19987300  0.56568500  0.10036500  1
  C  C36  1  0.15832200  0.50799700  0.13268100  1
  C  C37  1  0.15831200  0.50797200  0.21465700  1
  C  C38  1  0.15834500  0.50805100  0.96181900  1
  C  C39  1  0.15835500  0.50807400  0.87983800  1
  C  C40  1  0.24144200  0.62342400  0.89719200  1
  C  C41  1  0.24143300  0.62339900  0.97916800  1
  C  C42  1  0.19988300  0.56571000  0.01147800  1
  C  C43  1  0.19980300  0.56553400  0.76024400  1
  C  C44  1  0.19990100  0.56576000  0.84752700  1
  O  O1  1  0.19980500  0.56553500  0.55629600  1
  O  O2  1  0.36696500  0.62092700  0.51640800  1
  O  O3  1  0.25630100  0.51008200  0.72340700  1
  O  O4  1  0.12131500  0.76712700  0.63486600  1
  O  O5  1  0.38358200  0.51011300  0.59614200  1
  O  O6  1  0.21775300  0.76715100  0.53844000  1
  O  O7  1  0.14324500  0.62087400  0.74010000  1
  O  O8  1  0.01601100  0.62092500  0.61286600  1
  O  O9  1  0.15994400  0.51020400  0.37250400  1
  O  O10  1  0.03266300  0.51017400  0.49976900  1
  O  O11  1  0.23973100  0.62097900  0.38917400  1
  O  O12  1  0.27827800  0.36391100  0.57414100  1
  O  O13  1  0.18187500  0.36395100  0.47773800  1
  O  O14  1  0.11350100  0.44575600  0.24951300  1
  O  O15  1  0.28624800  0.68565600  0.86234800  1
  O  O16  1  0.35385800  0.23484600  0.40202100  1
  O  O17  1  0.67707500  0.44548000  0.43401900  1
  O  O18  1  0.89374700  0.68558900  0.67856400  1
  O  O19  1  0.35457200  0.89768300  0.40137500  1
  O  O20  1  0.11352500  0.44583700  0.99667400  1
