# generated using pymatgen
data_Zn4H28C36N2O13
_symmetry_space_group_name_H-M   'P 1'
_cell_length_a   12.75940000
_cell_length_b   19.07731200
_cell_length_c   12.75939300
_cell_angle_alpha   92.27633600
_cell_angle_beta   89.97073900
_cell_angle_gamma   87.71993300
_symmetry_Int_Tables_number   1
_chemical_formula_structural   Zn4H28C36N2O13
_chemical_formula_sum   'Zn4 H28 C36 N2 O13'
_cell_volume   3100.91373435
_cell_formula_units_Z   1
loop_
 _symmetry_equiv_pos_site_id
 _symmetry_equiv_pos_as_xyz
  1  'x, y, z'
loop_
 _atom_site_type_symbol
 _atom_site_label
 _atom_site_symmetry_multiplicity
 _atom_site_fract_x
 _atom_site_fract_y
 _atom_site_fract_z
 _atom_site_occupancy
  Zn  Zn1  1  0.51735300  0.07601800  0.47049200  1
  Zn  Zn2  1  0.34164200  0.07594700  0.64616300  1
  Zn  Zn3  1  0.52434900  0.95831900  0.63909900  1
  Zn  Zn4  1  0.34876300  0.95831400  0.46347300  1
  H  H1  1  0.53866600  0.28584600  0.44878300  1
  H  H2  1  0.31625500  0.93555900  0.94988200  1
  H  H3  1  0.74006000  0.10528600  0.42842300  1
  H  H4  1  0.82809000  0.15899000  0.43735200  1
  H  H5  1  0.83153300  0.10137000  0.34800200  1
  H  H6  1  0.29515000  0.28570800  0.69298900  1
  H  H7  1  0.02837200  0.09877900  0.43768100  1
  H  H8  1  0.53665300  0.47873500  0.45080400  1
  H  H9  1  0.62054000  0.41766500  0.45274200  1
  H  H10  1  0.53445500  0.41767800  0.36692900  1
  H  H11  1  0.27486900  0.63771300  0.71346000  1
  H  H12  1  0.27264600  0.57665300  0.62958400  1
  H  H13  1  0.35873500  0.57663500  0.71539300  1
  H  H14  1  0.60704500  0.13862100  0.99469300  1
  H  H15  1  0.61607800  0.08490400  0.90029200  1
  H  H16  1  0.52664300  0.14246900  0.90374300  1
  H  H17  1  0.57880500  0.61596000  0.40859300  1
  H  H18  1  0.31617600  0.93552500  0.14894700  1
  H  H19  1  0.03780100  0.93554800  0.67191500  1
  H  H20  1  0.55016500  0.09891600  0.15866700  1
  H  H21  1  0.57681300  0.80884900  0.41062200  1
  H  H22  1  0.66069500  0.74777500  0.41255400  1
  H  H23  1  0.57460700  0.74779400  0.32674400  1
  H  H24  1  0.26946300  0.72723000  0.71881900  1
  H  H25  1  0.34602300  0.78832800  0.72814300  1
  H  H26  1  0.25996800  0.78834300  0.64229900  1
  H  H27  1  0.83873200  0.93561300  0.67189000  1
  H  H28  1  0.28717000  0.41905900  0.70102600  1
  C  C1  1  0.44399600  0.83429300  0.54386300  1
  C  C2  1  0.44866400  0.75606600  0.53915600  1
  C  C3  1  0.16006200  0.01711000  0.55482000  1
  C  C4  1  0.04328200  0.01715700  0.55479500  1
  C  C5  1  0.48222500  0.31573400  0.50538800  1
  C  C6  1  0.47781900  0.38923600  0.50981600  1
  C  C7  1  0.40851500  0.42595100  0.57933700  1
  C  C8  1  0.34360400  0.38916000  0.64442500  1
  C  C9  1  0.34800400  0.31565900  0.63999100  1
  C  C10  1  0.38815300  0.64577300  0.59981100  1
  C  C11  1  0.38376000  0.71927900  0.60424200  1
  C  C12  1  0.51797500  0.71935100  0.46963100  1
  C  C13  1  0.52237400  0.64584800  0.46520700  1
  C  C14  1  0.45745900  0.60906300  0.53029200  1
  C  C15  1  0.87609600  0.06219900  0.49021400  1
  C  C16  1  0.98582200  0.06216300  0.49023600  1
  C  C17  1  0.99101100  0.97219000  0.61934400  1
  C  C18  1  0.88128600  0.97223000  0.61932700  1
  C  C19  1  0.70705700  0.01720900  0.55477100  1
  C  C20  1  0.82383200  0.01723400  0.55475600  1
  C  C21  1  0.43312500  0.01720200  0.28077600  1
  C  C22  1  0.43316600  0.01722500  0.16400100  1
  C  C23  1  0.42201400  0.20072000  0.56579200  1
  C  C24  1  0.41732100  0.27894800  0.57047400  1
  C  C25  1  0.49767200  0.06225600  0.11182300  1
  C  C26  1  0.49771600  0.06226800  0.00209900  1
  C  C27  1  0.36874100  0.97221500  0.99674200  1
  C  C28  1  0.36870300  0.97220000  0.10646300  1
  C  C29  1  0.43300300  0.01713800  0.82777300  1
  C  C30  1  0.43324900  0.01725100  0.94455600  1
  C  C31  1  0.81289400  0.11170400  0.41919900  1
  C  C32  1  0.54920800  0.42970200  0.43822000  1
  C  C33  1  0.31676200  0.60531800  0.67141400  1
  C  C34  1  0.56866700  0.11180600  0.94470800  1
  C  C35  1  0.58936400  0.75981600  0.39803400  1
  C  C36  1  0.30750500  0.75966400  0.68070200  1
  N  N1  1  0.40401300  0.50108300  0.58386700  1
  N  N2  1  0.46195600  0.53393300  0.52575600  1
  O  O1  1  0.43302700  0.01715000  0.55480700  1
  O  O2  1  0.48813600  0.17449600  0.49968900  1
  O  O3  1  0.36582600  0.06031500  0.79224600  1
  O  O4  1  0.67044000  0.97396300  0.61671400  1
  O  O5  1  0.35904100  0.17444400  0.62875400  1
  O  O6  1  0.66530000  0.06043700  0.49283900  1
  O  O7  1  0.50006000  0.97389400  0.78705500  1
  O  O8  1  0.50696600  0.85983100  0.60990800  1
  O  O9  1  0.37118000  0.97395600  0.31738400  1
  O  O10  1  0.37796400  0.85982800  0.48087600  1
  O  O11  1  0.49504200  0.06043300  0.32254100  1
  O  O12  1  0.19556700  0.06031100  0.62194800  1
  O  O13  1  0.20080000  0.97388700  0.48772600  1
