data_DB5-hypotheticalMOF_18104_0_0_1_21_2_11_repeat
_audit_creation_date              2024-02-23
_audit_creation_method            'Materials Studio'
_symmetry_space_group_name_H-M    'P1'
_symmetry_Int_Tables_number       1
_symmetry_cell_setting            triclinic
loop_
_symmetry_equiv_pos_as_xyz
  x,y,z
_cell_length_a                    9.0652
_cell_length_b                    15.1862
_cell_length_c                    9.0652
_cell_angle_alpha                 90.0016
_cell_angle_beta                  94.9841
_cell_angle_gamma                 90.0057
loop_
_atom_site_label
_atom_site_type_symbol
_atom_site_fract_x
_atom_site_fract_y
_atom_site_fract_z
_atom_site_U_iso_or_equiv
_atom_site_adp_type
_atom_site_occupancy
O1     O     0.96040   0.07323   0.78365   0.00000  Uiso   1.00
O2     O     0.53112   0.07323   0.76591   0.00000  Uiso   1.00
O3     O     0.75464   0.07323   0.98942   0.00000  Uiso   1.00
O4     O     0.73689   0.07323   0.56014   0.00000  Uiso   1.00
O5     O     0.75461   0.92677   0.98941   0.00000  Uiso   1.00
O6     O     0.53109   0.92677   0.76589   0.00000  Uiso   1.00
O7     O     0.96038   0.92677   0.78364   0.00000  Uiso   1.00
Zn1    Zn    0.74573   0.90352   0.77476   0.00000  Uiso   1.00
Zn2    Zn    0.74577   0.09648   0.77478   0.00000  Uiso   1.00
O8     O     0.73686   0.92677   0.56012   0.00000  Uiso   1.00
C1     C     0.47612   1.00000   0.76761   0.00000  Uiso   1.00
C2     C     0.31228   0.00000   0.77271   0.00000  Uiso   1.00
N1     N     0.74572   0.77182   0.77475   0.00000  Uiso   1.00
C3     C     0.83643   0.54610   0.68404   0.00000  Uiso   1.00
C4     C     0.83645   0.45391   0.68405   0.00000  Uiso   1.00
C5     C     0.65508   0.45390   0.86553   0.00000  Uiso   1.00
C6     C     0.65507   0.54609   0.86553   0.00000  Uiso   1.00
C7     C     0.74574   0.59219   0.77477   0.00000  Uiso   1.00
C8     C     0.74577   0.40781   0.77479   0.00000  Uiso   1.00
C9     C     0.74578   0.30785   0.77480   0.00000  Uiso   1.00
C10    C     0.74573   0.69215   0.77476   0.00000  Uiso   1.00
C11    C     0.01538   0.00000   0.78194   0.00000  Uiso   1.00
C12    C     0.17922   0.00001   0.77684   0.00000  Uiso   1.00
C13    C     0.75292   1.00000   0.04440   0.00000  Uiso   1.00
C14    C     0.74782   0.00000   0.20824   0.00000  Uiso   1.00
N2     N     0.74579   0.22817   0.77480   0.00000  Uiso   1.00
C15    C     0.73858   0.00000   0.50515   0.00000  Uiso   1.00
C16    C     0.74368   0.00000   0.34130   0.00000  Uiso   1.00
H1     H     0.91026   0.58363   0.61014   0.00000  Uiso   1.00
O9     O     0.92458   0.40928   0.59576   0.00000  Uiso   1.00
C17    C     0.10453   0.41903   0.41581   0.00000  Uiso   1.00
C18    C     0.00476   0.46968   0.51570   0.00000  Uiso   1.00
H2     H     0.16941   0.46784   0.35108   0.00000  Uiso   1.00
H3     H     0.03312   0.37588   0.33523   0.00000  Uiso   1.00
H4     H     0.18500   0.37585   0.48727   0.00000  Uiso   1.00
H5     H     0.92428   0.51290   0.44436   0.00000  Uiso   1.00
H6     H     0.07626   0.51277   0.59628   0.00000  Uiso   1.00
H7     H     0.58125   0.41636   0.93942   0.00000  Uiso   1.00
H8     H     0.58122   0.58361   0.93942   0.00000  Uiso   1.00
