data_DB5-hypotheticalMOF_17668_0_0_1_21_9_5_repeat
_audit_creation_date              2024-02-20
_audit_creation_method            'Materials Studio'
_symmetry_space_group_name_H-M    'P1'
_symmetry_Int_Tables_number       1
_symmetry_cell_setting            triclinic
loop_
_symmetry_equiv_pos_as_xyz
  x,y,z
_cell_length_a                    10.6546
_cell_length_b                    15.1862
_cell_length_c                    10.6546
_cell_angle_alpha                 89.9964
_cell_angle_beta                  95.5151
_cell_angle_gamma                 90.0001
loop_
_atom_site_label
_atom_site_type_symbol
_atom_site_fract_x
_atom_site_fract_y
_atom_site_fract_z
_atom_site_U_iso_or_equiv
_atom_site_adp_type
_atom_site_occupancy
O1     O     0.66784   0.07316   0.82360   0.00000  Uiso   1.00
O2     O     0.30236   0.07318   0.80680   0.00000  Uiso   1.00
O3     O     0.49350   0.07316   0.99794   0.00000  Uiso   1.00
O4     O     0.47670   0.07318   0.63246   0.00000  Uiso   1.00
O5     O     0.49349   0.92671   0.99794   0.00000  Uiso   1.00
O6     O     0.30235   0.92672   0.80680   0.00000  Uiso   1.00
O7     O     0.66783   0.92670   0.82360   0.00000  Uiso   1.00
Zn1    Zn    0.48508   0.90346   0.81520   0.00000  Uiso   1.00
Zn2    Zn    0.48510   0.09642   0.81520   0.00000  Uiso   1.00
O8     O     0.47668   0.92672   0.63246   0.00000  Uiso   1.00
C1     C     0.25556   0.99995   0.80803   0.00000  Uiso   1.00
C2     C     0.11611   0.99996   0.81172   0.00000  Uiso   1.00
N1     N     0.48508   0.77177   0.81521   0.00000  Uiso   1.00
C3     C     0.03663   0.99996   0.69918   0.00000  Uiso   1.00
C4     C     0.90561   0.99994   0.70266   0.00000  Uiso   1.00
C5     C     0.93357   0.99993   0.93123   0.00000  Uiso   1.00
C6     C     0.06459   0.99994   0.92775   0.00000  Uiso   1.00
C7     C     0.56975   0.54604   0.89982   0.00000  Uiso   1.00
C8     C     0.56975   0.45385   0.89982   0.00000  Uiso   1.00
C9     C     0.40044   0.45385   0.73059   0.00000  Uiso   1.00
C10    C     0.40043   0.54604   0.73060   0.00000  Uiso   1.00
C11    C     0.48509   0.59213   0.81521   0.00000  Uiso   1.00
C12    C     0.48510   0.40775   0.81520   0.00000  Uiso   1.00
C13    C     0.48511   0.30780   0.81521   0.00000  Uiso   1.00
C14    C     0.48509   0.69209   0.81521   0.00000  Uiso   1.00
C15    C     0.71463   0.99993   0.82237   0.00000  Uiso   1.00
C16    C     0.85407   0.99993   0.81868   0.00000  Uiso   1.00
C17    C     0.49226   0.99994   0.04474   0.00000  Uiso   1.00
C18    C     0.48857   0.99994   0.18418   0.00000  Uiso   1.00
N2     N     0.48511   0.22812   0.81521   0.00000  Uiso   1.00
C19    C     0.47792   0.99995   0.58566   0.00000  Uiso   1.00
C20    C     0.48162   0.99995   0.44622   0.00000  Uiso   1.00
C21    C     0.60111   0.99993   0.26367   0.00000  Uiso   1.00
C22    C     0.59764   0.99994   0.39469   0.00000  Uiso   1.00
C23    C     0.36907   0.99996   0.36672   0.00000  Uiso   1.00
C24    C     0.37254   0.99996   0.23571   0.00000  Uiso   1.00
H1     H     0.07857   0.99997   0.60471   0.00000  Uiso   1.00
H2     H     0.69559   0.99992   0.22172   0.00000  Uiso   1.00
H3     H     0.12931   0.99994   0.01940   0.00000  Uiso   1.00
N3     N     0.71902   0.99994   0.48042   0.00000  Uiso   1.00
H4     H     0.79304   0.99993   0.42789   0.00000  Uiso   1.00
H5     H     0.72254   0.94565   0.53540   0.00000  Uiso   1.00
N4     N     0.30914   0.40413   0.63933   0.00000  Uiso   1.00
H6     H     0.32438   0.42018   0.55006   0.00000  Uiso   1.00
H7     H     0.21992   0.42018   0.65473   0.00000  Uiso   1.00
H8     H     0.28089   0.99996   0.17099   0.00000  Uiso   1.00
H9     H     0.63869   0.58356   0.96871   0.00000  Uiso   1.00
H10    H     0.89160   0.99991   0.02569   0.00000  Uiso   1.00
N5     N     0.66108   0.40413   0.99106   0.00000  Uiso   1.00
H11    H     0.71471   0.44732   0.04465   0.00000  Uiso   1.00
H12    H     0.71701   0.36590   0.94244   0.00000  Uiso   1.00
H13    H     0.33148   0.58357   0.66170   0.00000  Uiso   1.00
N6     N     0.81991   0.99991   0.58125   0.00000  Uiso   1.00
H14    H     0.83658   0.05420   0.53066   0.00000  Uiso   1.00
H15    H     0.72911   0.99985   0.60113   0.00000  Uiso   1.00
N7     N     0.24393   0.99998   0.42230   0.00000  Uiso   1.00
H16    H     0.25880   0.99998   0.51736   0.00000  Uiso   1.00
H17    H     0.19463   0.94568   0.39330   0.00000  Uiso   1.00
