# Generated by REPEAT Assigner based on pymatgen
data_DB5-hypotheticalMOF_23635_0_0_1_13_13_14
_audit_creation_date              2022-05-24
_audit_creation_method            REPEAT_Assigner
_cell_length_a                    11.892095
_cell_length_b                    12.837943
_cell_length_c                    12.837942
_cell_angle_alpha                 94.828940
_cell_angle_beta                  85.697431
_cell_angle_gamma                 94.310562
_cell_volume                      1942.827697
_symmetry_space_group_name_H-M    P1
_symmetry_Int_Tables_number       1
loop_
    _symmetry_equiv_pos_site_id
    _symmetry_equiv_pos_as_xyz
    1  x,y,z
loop_
    _atom_site_type_symbol
    _atom_site_label
    _atom_site_fract_x
    _atom_site_fract_y
    _atom_site_fract_z
    _atom_type_partial_charge
    O   O1   0.906018  0.591633  0.733890  -0.625860
    O   O2   0.906011  0.894766  0.747333  -0.687908
    O   O3   0.906021  0.749922  0.892178  -0.620095
    O   O4   0.906008  0.736478  0.589045  -0.688900
    O   O5   0.094028  0.762001  0.880121  -0.693613
    O   O6   0.094018  0.906845  0.735277  -0.624461
    O   O7   0.094025  0.603712  0.721833  -0.690968
    Zn  Zn1  0.123871  0.757197  0.726641  1.048022
    Zn  Zn2  0.876164  0.741282  0.742526  1.013576
    O   O8   0.094014  0.748557  0.576989  -0.634139
    C   C1   0.000014  0.939875  0.745847  0.830853
    C   C2   0.000011  0.056290  0.759391  0.074094
    N   N1   0.292925  0.768050  0.715800  -0.030770
    N   N2   0.707111  0.730421  0.753374  -0.012991
    C   C3   0.529580  0.654902  0.828870  -0.284788
    C   C4   0.647922  0.662481  0.821284  0.164421
    C   C5   0.647951  0.790790  0.693048  -0.205760
    C   C6   0.529610  0.783212  0.700634  0.194809
    C   C7   0.470428  0.715264  0.768546  0.190353
    C   C8   0.352085  0.707681  0.776126  -0.199129
    C   C9   0.352116  0.835995  0.647896  0.171870
    C   C10  0.470458  0.843574  0.640310  -0.287580
    C   C11  0.000024  0.760503  0.925219  0.831923
    C   C12  0.000022  0.774047  0.041634  0.070902
    C   C13  0.000020  0.558603  0.723320  0.822019
    C   C14  0.000015  0.442188  0.709776  0.065495
    C   C15  0.000020  0.281165  0.596561  -0.188118
    C   C16  0.000019  0.390547  0.609283  -0.240900
    C   C17  0.000015  0.384439  0.797554  -0.330615
    C   C18  0.000017  0.275057  0.784833  0.115912
    C   C19  0.000017  0.223423  0.684333  0.240790
    C   C20  0.000011  0.114039  0.671613  -0.406310
    C   C21  0.000015  0.107934  0.859883  -0.273093
    C   C22  0.000014  0.217316  0.872605  0.034925
    C   C23  0.000009  0.737976  0.543948  0.841026
    C   C24  0.000004  0.724431  0.427533  0.047719
    C   C25  0.000002  0.611216  0.266509  -0.186885
    C   C26  0.000000  0.623938  0.375892  -0.230997
    C   C27  0.000007  0.812209  0.369784  -0.322693
    C   C28  0.000009  0.799488  0.260402  0.117503
    C   C29  0.000008  0.698989  0.208768  0.238273
    C   C30  0.000019  0.686269  0.099383  -0.404000
    C   C31  0.000018  0.874539  0.093278  -0.265549
    C   C32  0.000016  0.887260  0.202660  0.028046
    H   H1   0.303901  0.652353  0.831421  0.179923
    H   H2   0.000019  0.239124  0.514731  0.113232
    H   H3   0.481394  0.599570  0.884159  0.161209
    C   C33  0.712990  0.596078  0.887638  -0.163907
    C   C34  0.647889  0.521327  0.962319  -0.146508
    C   C35  0.712957  0.454922  0.028677  -0.305700
    C   C36  0.843128  0.463270  0.020354  -0.099191
    C   C37  0.908237  0.538025  0.945670  0.051929
    C   C38  0.843169  0.604429  0.879311  0.214763
    H   H4   0.551522  0.515144  0.968483  0.138368
    H   H5   0.664758  0.399584  0.083964  0.161794
    H   H6   0.891296  0.414114  0.069476  0.134894
    H   H7   0.004604  0.544208  0.939505  0.099069
    H   H8   0.891368  0.659768  0.824025  -0.059135
    H   H9   0.696151  0.846118  0.637763  0.181232
    C   C39  0.000019  0.997803  0.259466  0.145343
    C   C40  0.097652  0.079980  0.235657  -0.185553
    C   C41  0.097659  0.190525  0.292462  0.010281
    C   C42  0.000032  0.218893  0.373075  -0.248402
    C   C43  0.902391  0.136714  0.396888  0.037638
    C   C44  0.902385  0.026169  0.340083  -0.324406
    H   H10  0.169928  0.058982  0.175979  0.129677
    H   H11  0.169939  0.251359  0.274834  0.080883
    H   H12  0.000036  0.300725  0.415125  0.170822
    H   H13  0.830115  0.157712  0.456566  0.089556
    H   H14  0.830104  0.965335  0.357712  0.168698
    H   H15  0.000024  0.437556  0.537809  0.105847
    H   H16  0.000108  0.426505  0.879370  0.110535
    C   C45  0.287044  0.902398  0.581535  -0.167406
    C   C46  0.156873  0.894059  0.589874  0.224820
    C   C47  0.091800  0.960455  0.523511  0.047186
    C   C48  0.156897  0.035189  0.448810  -0.100789
    C   C49  0.287075  0.043531  0.440467  -0.304714
    C   C50  0.352149  0.977135  0.506830  -0.145787
    H   H17  0.108678  0.838733  0.645176  -0.068574
    H   H18  0.995433  0.954279  0.529687  0.099608
    H   H19  0.108726  0.084339  0.399684  0.137750
    H   H20  0.335270  0.098857  0.385166  0.161228
    H   H21  0.448515  0.983311  0.500654  0.138077
    H   H22  0.999991  0.552464  0.422901  0.100095
    H   H23  0.518656  0.898898  0.585020  0.161418
    H   H24  0.000012  0.529387  0.224468  0.110373
    H   H25  0.999996  0.894031  0.411844  0.107586
    C   C51  0.000009  0.274120  0.983148  0.142967
    C   C52  0.097633  0.354750  0.011533  -0.323965
    C   C53  0.097624  0.411552  0.122079  0.036469
    C   C54  0.999991  0.387724  0.204241  -0.245051
    C   C55  0.902360  0.307090  0.175859  0.011088
    C   C56  0.902369  0.250288  0.065313  -0.185545
    H   H26  0.169913  0.372392  0.950709  0.168804
    H   H27  0.169897  0.471243  0.143088  0.089793
    H   H28  0.999985  0.429772  0.286074  0.171162
    H   H29  0.830080  0.289448  0.236682  0.080527
    H   H30  0.830096  0.190597  0.044303  0.129690
    H   H31  0.000013  0.072000  0.589781  0.119522
    H   H32  0.000005  0.060909  0.931354  0.113906
    H   H33  0.000022  0.604437  0.057344  0.119104
    H   H34  0.000033  0.946010  0.046252  0.111358
