# Generated by REPEAT Assigner based on pymatgen
data_DB5-hypotheticalMOF_35842_0_0_2_14_1_2
_audit_creation_date              2022-05-24
_audit_creation_method            REPEAT_Assigner
_cell_length_a                    8.559649
_cell_length_b                    13.339070
_cell_length_c                    7.088929
_cell_angle_alpha                 82.086468
_cell_angle_beta                  95.325015
_cell_angle_gamma                 92.703979
_cell_volume                      797.744511
_symmetry_space_group_name_H-M    P1
_symmetry_Int_Tables_number       1
loop_
    _symmetry_equiv_pos_site_id
    _symmetry_equiv_pos_as_xyz
    1  x,y,z
loop_
    _atom_site_type_symbol
    _atom_site_label
    _atom_site_fract_x
    _atom_site_fract_y
    _atom_site_fract_z
    _atom_type_partial_charge
    O   O1   0.094022  0.978107  0.841042  -0.667559
    O   O2   0.651208  0.028612  0.841034  -0.714042
    O   O3   0.821795  0.860044  0.841043  -0.678997
    O   O4   0.923436  0.146675  0.841034  -0.741103
    O   O5   0.844572  0.837471  0.159019  -0.669249
    O   O6   0.673985  0.006039  0.159011  -0.677071
    O   O7   0.116799  0.955534  0.159019  -0.665940
    Cu  Cu1  0.897472  0.978725  0.188048  0.993362
    Cu  Cu2  0.870536  0.005420  0.812005  0.909560
    O   O8   0.946213  0.124102  0.159010  -0.705459
    C   C1   0.604764  0.021153  0.000021  1.110427
    C   C2   0.432434  0.032546  0.000018  -0.301257
    C   C3   0.816014  0.812402  0.000028  0.790909
    C   C4   0.764836  0.704077  0.000020  0.112543
    C   C5   0.162764  0.308368  0.000028  -0.247856
    C   C6   0.210854  0.410144  0.000047  0.018964
    C   C7   0.099354  0.483632  0.000039  -0.302640
    C   C8   0.939755  0.455335  0.000014  0.271889
    C   C9   0.891662  0.353549  0.000011  -0.203654
    C   C10  0.828251  0.528812  0.000022  -0.105639
    C   C11  0.668653  0.500515  0.999997  0.395862
    C   C12  0.620567  0.398738  0.999992  -0.587961
    C   C13  0.732068  0.325250  0.999999  0.327713
    C   C14  0.876345  0.630598  0.000026  -0.222290
    C   C15  0.605242  0.675779  0.000008  -0.228232
    C   C16  0.557152  0.574003  0.999989  -0.258398
    C   C17  0.163243  0.962993  0.000027  0.971003
    C   C18  0.335572  0.951601  0.000018  -0.294581
    C   C19  0.951993  0.171744  0.000020  0.961042
    C   C20  0.003170  0.280070  0.000017  0.083276
    N   N1   0.916429  0.959948  0.452537  -0.224531
    N   N2   0.851588  0.024189  0.547516  0.131604
    H   H1   0.006290  0.653627  0.000047  0.115971
    H   H2   0.383518  0.110568  0.000005  0.140895
    H   H3   0.514449  0.735613  0.000012  0.145179
    Cl  Cl1  0.747828  0.126975  0.421457  0.062186
    H   H4   0.138518  0.566501  0.000055  0.151122
    H   H5   0.340799  0.433175  0.000070  0.022185
    H   H6   0.384481  0.873585  0.000011  0.107129
    H   H7   0.253532  0.248526  0.000050  0.089955
    H   H8   0.983650  0.893377  0.534197  0.301487
    Cl  Cl2  0.671601  0.197313  0.999748  -0.160027
    H   H9   0.490613  0.375703  0.999986  0.275697
    H   H10  0.427204  0.550949  0.999970  0.166526
