# Generated by REPEAT Assigner based on pymatgen
data_DB5-hypotheticalMOF_17595_1_0_1_2_7_6
_audit_creation_date              2022-05-24
_audit_creation_method            REPEAT_Assigner
_cell_length_a                    10.654562
_cell_length_b                    9.065215
_cell_length_c                    8.140239
_cell_angle_alpha                 89.997785
_cell_angle_beta                  89.995712
_cell_angle_gamma                 84.752401
_cell_volume                      782.936982
_symmetry_space_group_name_H-M    P1
_symmetry_Int_Tables_number       1
loop_
    _symmetry_equiv_pos_site_id
    _symmetry_equiv_pos_as_xyz
    1  x,y,z
loop_
    _atom_site_type_symbol
    _atom_site_label
    _atom_site_fract_x
    _atom_site_fract_y
    _atom_site_fract_z
    _atom_type_partial_charge
    O   O1   0.668646  0.207322  0.863282  -0.570522
    O   O2   0.303247  0.227046  0.863303  -0.485518
    O   O3   0.493501  0.002500  0.863299  -0.612787
    O   O4   0.478392  0.431867  0.863286  -0.617231
    O   O5   0.493495  0.002499  0.136526  -0.596706
    O   O6   0.303241  0.227044  0.136530  -0.514914
    O   O7   0.668640  0.207320  0.136509  -0.575826
    Zn  Zn1  0.485940  0.217182  0.179900  0.947897
    Zn  Zn2  0.485948  0.217184  0.819912  0.939274
    O   O8   0.478386  0.431866  0.136513  -0.596931
    C   C1   0.256441  0.225593  0.999919  0.553341
    C   C2   0.116981  0.221248  0.999927  0.065568
    C   C3   0.051439  0.219221  0.148850  -0.154293
    C   C4   0.920401  0.215150  0.148823  0.209073
    C   C5   0.920458  0.215141  0.850936  0.030517
    C   C6   0.051495  0.219201  0.850965  -0.127960
    C   C7   0.051405  0.219233  0.320833  0.098263
    C   C8   0.920366  0.215162  0.320806  -0.107291
    C   C9   0.492047  0.947521  0.999911  0.889102
    C   C10  0.487708  0.783701  0.999906  -0.206942
    C   C11  0.715446  0.208773  0.999889  0.718887
    C   C12  0.854906  0.213118  0.999871  -0.180559
    C   C13  0.479840  0.486845  0.999897  0.884173
    C   C14  0.484180  0.650665  0.999891  -0.194551
    N   N1   0.485943  0.217180  0.425583  0.100142
    N   N2   0.485954  0.217175  0.574229  0.156454
    H   H1   0.867122  0.213474  0.729656  0.096340
    C   C15  0.858352  0.353129  0.409580  0.306575
    N   N3   0.811636  0.457120  0.476294  -0.364692
    C   C16  0.879810  0.069805  0.392931  0.296484
    N   N4   0.849261  0.960326  0.447259  -0.345342
    C   C17  0.123590  0.221395  0.687138  0.371361
    N   N5   0.177892  0.223042  0.563737  -0.298329
    C   C18  0.113359  0.081479  0.410051  0.348605
    N   N6   0.160023  0.977723  0.477245  -0.412412
    C   C19  0.091939  0.364595  0.392939  0.353767
    N   N7   0.122469  0.474083  0.447251  -0.403014
