# generated using pymatgen
data_Zn4H40C48O13
_symmetry_space_group_name_H-M   'P 1'
_cell_length_a   14.90878300
_cell_length_b   14.90852000
_cell_length_c   17.07739600
_cell_angle_alpha   93.26832100
_cell_angle_beta   86.68028000
_cell_angle_gamma   96.79158600
_symmetry_Int_Tables_number   1
_chemical_formula_structural   Zn4H40C48O13
_chemical_formula_sum   'Zn4 H40 C48 O13'
_cell_volume   3757.97592315
_cell_formula_units_Z   1
loop_
 _symmetry_equiv_pos_site_id
 _symmetry_equiv_pos_as_xyz
  1  'x, y, z'
loop_
 _atom_site_type_symbol
 _atom_site_label
 _atom_site_symmetry_multiplicity
 _atom_site_fract_x
 _atom_site_fract_y
 _atom_site_fract_z
 _atom_site_occupancy
  Zn  Zn1  1  0.36304900  0.71938700  0.47353600  1
  Zn  Zn2  1  0.35420800  0.56800600  0.59764900  1
  Zn  Zn3  1  0.21167500  0.71063300  0.61196000  1
  Zn  Zn4  1  0.20290900  0.55934200  0.47359900  1
  H  H1  1  0.93225300  0.51458400  0.64179900  1
  H  H2  1  0.46739500  0.13718900  0.69003900  1
  H  H3  1  0.40278200  0.21170700  0.70139900  1
  H  H4  1  0.47681500  0.21608100  0.63360200  1
  H  H5  1  0.17193500  0.52846900  0.98678000  1
  H  H6  1  0.39426400  0.75064800  0.83795200  1
  H  H7  1  0.76073200  0.50469600  0.64991300  1
  H  H8  1  0.46080000  0.02206200  0.68458400  1
  H  H9  1  0.46123200  0.94382700  0.62069600  1
  H  H10  1  0.38719900  0.93945500  0.68849200  1
  H  H11  1  0.11798000  0.47456000  0.86251200  1
  H  H12  1  0.18681700  0.47358600  0.79086200  1
  H  H13  1  0.11706600  0.54340400  0.79787000  1
  H  H14  1  0.18531900  0.90169800  0.45906300  1
  H  H15  1  0.19472200  0.98058500  0.40261600  1
  H  H16  1  0.12070000  0.97620500  0.47042100  1
  H  H17  1  0.36813800  0.30084900  0.60892300  1
  H  H18  1  0.64752000  0.50500000  0.64964500  1
  H  H19  1  0.56869100  0.49542200  0.59319600  1
  H  H20  1  0.57296600  0.56958100  0.66082600  1
  H  H21  1  0.17188800  0.52838600  0.23962900  1
  H  H22  1  0.44822000  0.80456300  0.96222100  1
  H  H23  1  0.44914900  0.73571600  0.02686400  1
  H  H24  1  0.37938600  0.80552300  0.03386800  1
  H  H25  1  0.14814400  0.11718400  0.42876000  1
  H  H26  1  0.15407800  0.36478200  0.43376300  1
  H  H27  1  0.08047100  0.28217500  0.43766800  1
  H  H28  1  0.15450400  0.28655700  0.36987200  1
  H  H29  1  0.39421100  0.75056200  0.09080700  1
  H  H30  1  0.44816100  0.80448200  0.21506000  1
  H  H31  1  0.44910100  0.73564400  0.27970800  1
  H  H32  1  0.37933100  0.80544300  0.28671000  1
  H  H33  1  0.80609300  0.77402600  0.42839400  1
  H  H34  1  0.11793200  0.47447100  0.11537300  1
  H  H35  1  0.18676500  0.47349900  0.04372000  1
  H  H36  1  0.11700500  0.54330900  0.05072800  1
  H  H37  1  0.63459700  0.76413200  0.43650700  1
  H  H38  1  0.91930600  0.77372800  0.42867800  1
  H  H39  1  0.99387200  0.70915400  0.41748600  1
  H  H40  1  0.99813400  0.78330500  0.48512200  1
  C  C1  1  0.04777900  0.62580700  0.55035400  1
  C  C2  1  0.94716600  0.61999500  0.55511200  1
  C  C3  1  0.76485700  0.72472700  0.46894100  1
  C  C4  1  0.67032200  0.71926900  0.47340900  1
  C  C5  1  0.66356100  0.60362600  0.56852000  1
  C  C6  1  0.75809600  0.60908400  0.56405200  1
  C  C7  1  0.80874000  0.66963500  0.51426000  1
  C  C8  1  0.90327600  0.67508800  0.50978800  1
  C  C9  1  0.89651400  0.55945000  0.60490300  1
  C  C10  1  0.80197900  0.55399300  0.60937100  1
  C  C11  1  0.26930300  0.40416200  0.52809700  1
  C  C12  1  0.26354400  0.30355500  0.52332200  1
  C  C13  1  0.36858900  0.12120200  0.60916800  1
  C  C14  1  0.36318000  0.02667400  0.60468400  1
  C  C15  1  0.24732300  0.01996900  0.50986800  1
  C  C16  1  0.25273100  0.11449700  0.51435200  1
  C  C17  1  0.31336600  0.16511100  0.56400400  1
  C  C18  1  0.31876900  0.25964000  0.56849100  1
  C  C19  1  0.20291700  0.25293400  0.47367100  1
  C  C20  1  0.19750800  0.15840600  0.46918800  1
  C  C21  1  0.51906000  0.65292900  0.52797400  1
  C  C22  1  0.61967100  0.65872000  0.52319600  1
  C  C23  1  0.28301900  0.63941200  0.33444200  1
  C  C24  1  0.28304400  0.63944200  0.24719300  1
  C  C25  1  0.29669500  0.87544200  0.55030100  1
  C  C26  1  0.30254800  0.97605400  0.55503700  1
  C  C27  1  0.34430900  0.70067300  0.20617800  1
  C  C28  1  0.34432100  0.70070400  0.12419800  1
  C  C29  1  0.28307300  0.63949800  0.08323500  1
  C  C30  1  0.22180100  0.57826400  0.12425600  1
  C  C31  1  0.22178500  0.57823800  0.20623400  1
  C  C32  1  0.22184100  0.57832000  0.95338700  1
  C  C33  1  0.22185800  0.57834500  0.87140200  1
  C  C34  1  0.34437700  0.70078600  0.87135000  1
  C  C35  1  0.34436100  0.70076000  0.95332900  1
  C  C36  1  0.28309000  0.63952500  0.99434400  1
  C  C37  1  0.28295800  0.63934100  0.74313400  1
  C  C38  1  0.28312300  0.63957600  0.83038700  1
  C  C39  1  0.43527800  0.17687900  0.66378400  1
  C  C40  1  0.42392100  0.97837700  0.65436800  1
  C  C41  1  0.15448200  0.51102500  0.82634400  1
  C  C42  1  0.18063100  0.96428400  0.45525900  1
  C  C43  1  0.60784700  0.53702800  0.62328900  1
  C  C44  1  0.41173300  0.76808400  0.99838700  1
  C  C45  1  0.14217200  0.30123500  0.42398700  1
  C  C46  1  0.41167900  0.76800400  0.25123100  1
  C  C47  1  0.15442700  0.51093700  0.07920200  1
  C  C48  1  0.95898500  0.74169300  0.45502200  1
  O  O1  1  0.28296000  0.63934200  0.53918600  1
  O  O2  1  0.48854500  0.70659600  0.48398500  1
  O  O3  1  0.33526900  0.58688800  0.70939500  1
  O  O4  1  0.23912400  0.83846400  0.59956100  1
  O  O5  1  0.48205000  0.59537700  0.57517000  1
  O  O6  1  0.35033800  0.84489500  0.49786100  1
  O  O7  1  0.23055100  0.69167600  0.71990900  1
  O  O8  1  0.08384300  0.68327400  0.59962200  1
  O  O9  1  0.22418300  0.58060900  0.36374400  1
  O  O10  1  0.07740300  0.57212100  0.49796800  1
  O  O11  1  0.34183800  0.69819400  0.36369800  1
  O  O12  1  0.32676900  0.44018700  0.57523100  1
  O  O13  1  0.21561000  0.43382100  0.48409100  1
