# generated using pymatgen
data_Zn4H12C30Cl6O13
_symmetry_space_group_name_H-M   'P 1'
_cell_length_a   12.75940100
_cell_length_b   12.75940000
_cell_length_c   12.75939300
_cell_angle_alpha   90.03060900
_cell_angle_beta   90.02105700
_cell_angle_gamma   90.01463200
_symmetry_Int_Tables_number   1
_chemical_formula_structural   Zn4H12C30Cl6O13
_chemical_formula_sum   'Zn4 H12 C30 Cl6 O13'
_cell_volume   2077.25803674
_cell_formula_units_Z   1
loop_
 _symmetry_equiv_pos_site_id
 _symmetry_equiv_pos_as_xyz
  1  'x, y, z'
loop_
 _atom_site_type_symbol
 _atom_site_label
 _atom_site_symmetry_multiplicity
 _atom_site_fract_x
 _atom_site_fract_y
 _atom_site_fract_z
 _atom_site_occupancy
  Zn  Zn1  1  0.60625400  0.58178400  0.59405700  1
  Zn  Zn2  1  0.60614900  0.40606800  0.41837700  1
  Zn  Zn3  1  0.43055700  0.58173300  0.41838800  1
  Zn  Zn4  1  0.43054500  0.40614700  0.59401000  1
  H  H1  1  0.91947000  0.61568300  0.62834200  1
  H  H2  1  0.93412100  0.37118300  0.27989300  1
  H  H3  1  0.74460000  0.07918800  0.38343100  1
  H  H4  1  0.39655300  0.37218000  0.90717200  1
  H  H5  1  0.63422000  0.71621500  0.09568800  1
  H  H6  1  0.64153500  0.72022800  0.92215300  1
  H  H7  1  0.74062500  0.90566200  0.39082400  1
  H  H8  1  0.39660700  0.37224300  0.10623400  1
  H  H9  1  0.74470800  0.61712500  0.09142300  1
  H  H10  1  0.39643900  0.09399400  0.62802700  1
  H  H11  1  0.10344900  0.26793000  0.38284300  1
  H  H12  1  0.39654600  0.89492800  0.62807100  1
  C  C1  1  0.24540900  0.49395400  0.50618100  1
  C  C2  1  0.12863200  0.49393700  0.50619400  1
  C  C3  1  0.96399600  0.42680000  0.43893300  1
  C  C4  1  0.07372000  0.42681900  0.43890300  1
  C  C5  1  0.07381500  0.56104700  0.57351200  1
  C  C6  1  0.96409300  0.56103300  0.57353600  1
  C  C7  1  0.96394200  0.34930100  0.36122000  1
  C  C8  1  0.07366600  0.34932000  0.36119100  1
  C  C9  1  0.51831400  0.22096600  0.50618600  1
  C  C10  1  0.51838300  0.10418900  0.50621200  1
  C  C11  1  0.58563600  0.04933200  0.43909700  1
  C  C12  1  0.58570100  0.93960800  0.43912900  1
  C  C13  1  0.45125000  0.93960800  0.57339500  1
  C  C14  1  0.45119200  0.04933000  0.57336700  1
  C  C15  1  0.66325700  0.04933100  0.36157600  1
  C  C16  1  0.66332100  0.93960700  0.36160800  1
  C  C17  1  0.79240900  0.49391200  0.50623600  1
  C  C18  1  0.90918600  0.49390300  0.50624800  1
  C  C19  1  0.51844900  0.49403500  0.78024100  1
  C  C20  1  0.51848000  0.49407800  0.89701800  1
  C  C21  1  0.51846700  0.76796600  0.50625300  1
  C  C22  1  0.51850600  0.88474300  0.50627200  1
  C  C23  1  0.51836400  0.49390800  0.23324100  1
  C  C24  1  0.51853600  0.49416100  0.11646400  1
  C  C25  1  0.58573100  0.56132600  0.06162500  1
  C  C26  1  0.58570600  0.56128200  0.95190100  1
  C  C27  1  0.45128200  0.42690500  0.95186600  1
  C  C28  1  0.45131400  0.42694500  0.06158800  1
  C  C29  1  0.66333600  0.63891000  0.06164400  1
  C  C30  1  0.66331100  0.63886600  0.95192000  1
  Cl  Cl1  1  0.62976300  0.89349600  0.23596700  1
  Cl  Cl2  1  0.78262100  0.59384600  0.89937400  1
  Cl  Cl3  1  0.61826700  0.10175400  0.24220000  1
  Cl  Cl4  1  0.12615000  0.39447000  0.24192100  1
  Cl  Cl5  1  0.14284700  0.64543300  0.65809900  1
  Cl  Cl6  1  0.91140100  0.22991100  0.40603000  1
  O  O1  1  0.51837600  0.49393300  0.50620800  1
  O  O2  1  0.75326100  0.55846400  0.57076700  1
  O  O3  1  0.58281700  0.42931600  0.27135700  1
  O  O4  1  0.45391200  0.72876100  0.44171500  1
  O  O5  1  0.75318400  0.42936600  0.44169600  1
  O  O6  1  0.58299600  0.72879900  0.57077800  1
  O  O7  1  0.45381000  0.55837600  0.27136500  1
  O  O8  1  0.28353400  0.55845200  0.44167000  1
  O  O9  1  0.45389200  0.42950000  0.74103700  1
  O  O10  1  0.28352500  0.42945000  0.57069900  1
  O  O11  1  0.58298500  0.55854000  0.74107200  1
  O  O12  1  0.58280600  0.25905800  0.44165100  1
  O  O13  1  0.45379000  0.25911600  0.57068800  1
