# Generated by REPEAT Assigner based on pymatgen
data_DB5-hypotheticalMOF_16005_1_0_0_22_24_7
_audit_creation_date              2022-05-24
_audit_creation_method            REPEAT_Assigner
_cell_length_a                    17.639054
_cell_length_b                    19.077068
_cell_length_c                    19.076919
_cell_angle_alpha                 85.529249
_cell_angle_beta                  80.566498
_cell_angle_gamma                 76.080428
_cell_volume                      6141.660521
_symmetry_space_group_name_H-M    P1
_symmetry_Int_Tables_number       1
loop_
    _symmetry_equiv_pos_site_id
    _symmetry_equiv_pos_as_xyz
    1  x,y,z
loop_
    _atom_site_type_symbol
    _atom_site_label
    _atom_site_fract_x
    _atom_site_fract_y
    _atom_site_fract_z
    _atom_type_partial_charge
    Zn  Zn1  0.176637  0.093343  0.386055  1.196411
    Zn  Zn2  0.176539  0.206514  0.499228  1.184660
    Zn  Zn3  0.049976  0.110516  0.525896  1.215958
    Zn  Zn4  0.038865  0.235002  0.405265  1.196264
    O   O1   0.110504  0.161344  0.454111  -1.495787
    O   O2   0.287249  0.089246  0.381868  -0.522880
    O   O3   0.164359  0.189044  0.600613  -0.561202
    O   O4   0.071468  0.008778  0.510467  -0.546557
    O   O5   0.287177  0.172392  0.465016  -0.541072
    O   O6   0.164526  0.996161  0.407727  -0.549160
    O   O7   0.071373  0.118515  0.620206  -0.548321
    O   O8   0.937876  0.146139  0.529093  -0.566807
    O   O9   0.052531  0.220947  0.304869  -0.518610
    O   O10  0.929713  0.237599  0.440466  -0.578441
    O   O11  0.153752  0.116870  0.290756  -0.540586
    O   O12  0.153585  0.309753  0.483642  -0.522721
    O   O13  0.052436  0.330683  0.414608  -0.528747
    C   C1   0.905111  0.196824  0.489758  0.556438
    C   C2   0.817241  0.212021  0.504991  0.050461
    C   C3   0.693361  0.276652  0.569818  -0.042421
    C   C4   0.775928  0.262368  0.555499  0.013481
    C   C5   0.775997  0.175942  0.468777  -0.302955
    C   C6   0.693428  0.190222  0.483086  0.036083
    C   C7   0.652117  0.240578  0.533607  0.061905
    C   C8   0.652184  0.154148  0.446875  0.031177
    C   C9   0.569622  0.168424  0.461186  0.225848
    C   C10  0.528305  0.218775  0.511706  -0.261307
    C   C11  0.569555  0.254854  0.547918  -0.187496
    C   C12  0.693497  0.103789  0.396358  -0.131608
    C   C13  0.652253  0.067714  0.360147  -0.270736
    C   C14  0.569690  0.081994  0.374454  0.341165
    C   C15  0.528372  0.132345  0.424974  -0.272353
    C   C16  0.528440  0.045915  0.338243  -0.453446
    C   C17  0.445878  0.060192  0.352553  0.206567
    C   C18  0.445811  0.146622  0.439285  0.165510
    C   C19  0.101815  0.346004  0.448296  0.469209
    C   C20  0.098169  0.424991  0.445773  -0.113373
    C   C21  0.101913  0.170171  0.271732  0.423737
    C   C22  0.098252  0.173932  0.194013  0.173777
    C   C23  0.316699  0.125725  0.418324  0.465621
    C   C24  0.404567  0.110547  0.403074  -0.142583
    C   C25  0.119247  0.975960  0.459929  0.529649
    C   C26  0.122973  0.896960  0.462408  -0.089242
    C   C27  0.149157  0.451173  0.480486  0.169922
    C   C28  0.145732  0.525390  0.478108  -0.276086
    C   C29  0.091316  0.573423  0.441020  0.001067
    C   C30  0.040326  0.547236  0.406303  -0.071090
    C   C31  0.043755  0.473020  0.408677  0.070176
    C   C32  0.075413  0.796557  0.430065  -0.274479
    C   C33  0.071986  0.870778  0.427695  0.086745
    C   C34  0.177393  0.848926  0.499500  0.046392
    C   C35  0.180814  0.774710  0.501874  -0.163043
    C   C36  0.129827  0.748529  0.467154  0.221487
    N   N1   0.087812  0.649285  0.438590  0.159879
    N   N2   0.133335  0.672668  0.469580  -0.239491
    C   C37  0.149230  0.121515  0.150152  -0.398524
    C   C38  0.145780  0.125048  0.077129  0.190984
    C   C39  0.091357  0.181002  0.047967  -0.141771
    C   C40  0.040374  0.233422  0.091834  0.043608
    C   C41  0.043820  0.229885  0.164857  -0.093437
    C   C42  0.075396  0.197387  0.830362  -0.076118
    C   C43  0.071955  0.200921  0.757333  0.084753
    C   C44  0.177361  0.092546  0.742633  0.265595
    C   C45  0.180805  0.089017  0.815657  -0.375186
    C   C46  0.129820  0.141435  0.859518  0.096243
    N   N3   0.087831  0.184616  0.973325  0.079121
    N   N4   0.133342  0.137817  0.934159  -0.045687
    C   C47  0.119109  0.152492  0.635774  0.568016
    C   C48  0.122933  0.148504  0.713472  -0.186699
    H   H1   0.809644  0.134941  0.427644  0.166719
    H   H2   0.685900  0.026713  0.319015  0.130191
    C   C49  0.987670  0.444219  0.370492  -0.158913
    H   H3   0.954767  0.483455  0.348067  0.009309
    H   H4   0.017790  0.411488  0.335689  0.093969
    H   H5   0.955843  0.419957  0.404164  0.093298
    C   C50  0.209009  0.398340  0.521288  -0.162844
    H   H6   0.203744  0.350390  0.517738  0.103609
    H   H7   0.261073  0.401777  0.501416  0.030349
    H   H8   0.199122  0.410255  0.569889  0.033193
    C   C51  0.980468  0.600071  0.365509  0.001883
    H   H9   0.985721  0.648023  0.369073  -0.059477
    H   H10  0.990341  0.588164  0.316910  0.048604
    H   H11  0.928404  0.596629  0.385392  0.047551
    H   H12  0.193550  0.075953  0.173889  0.177620
    C   C52  0.987763  0.287558  0.213100  -0.039159
    H   H13  0.954867  0.321397  0.185274  -0.003235
    H   H14  0.955940  0.264956  0.248428  0.049017
    H   H15  0.017908  0.311918  0.235353  0.053583
    C   C53  0.647913  0.332047  0.625386  -0.045267
    H   H16  0.684300  0.351489  0.644906  0.033936
    H   H17  0.612998  0.369913  0.603291  0.034520
    H   H18  0.618411  0.308905  0.662253  0.034965
    H   H19  0.562088  0.004911  0.297113  0.178025
    C   C54  0.240641  0.721879  0.542702  0.105054
    H   H20  0.235366  0.673931  0.539160  -0.055704
    H   H21  0.292718  0.725298  0.522855  0.018884
    H   H22  0.230726  0.733812  0.591300  0.018552
    C   C55  0.233479  0.877723  0.537685  -0.045952
    H   H23  0.266374  0.838487  0.560116  0.021910
    H   H24  0.265302  0.901986  0.504015  0.031690
    H   H25  0.203359  0.910455  0.572494  0.038896
    C   C56  0.019321  0.255047  0.878602  -0.042504
    H   H26  0.029158  0.244927  0.926270  -0.005899
    H   H27  0.028074  0.301382  0.863127  0.029302
    H   H28  0.966129  0.254396  0.876180  0.027515
    C   C57  0.012132  0.923613  0.386890  -0.136144
    H   H29  0.982262  0.897392  0.366545  0.069698
    H   H30  0.977631  0.957256  0.418706  0.050720
    H   H31  0.039584  0.948781  0.350235  0.052913
    C   C58  0.201859  0.067392  0.028884  -0.041635
    H   H32  0.234772  0.033567  0.056709  0.014185
    H   H33  0.171740  0.043023  0.006619  0.003336
    H   H34  0.233677  0.090017  0.993565  0.002382
    H   H35  0.225125  0.043455  0.839394  0.158876
    H   H36  0.535917  0.295865  0.589051  0.112989
    C   C59  0.821293  0.302064  0.595325  -0.220707
    H   H37  0.784862  0.334102  0.627456  0.085401
    H   H38  0.856209  0.267794  0.621023  0.085118
    H   H39  0.850787  0.328798  0.562057  0.074829
    C   C60  0.400359  0.202014  0.494854  -0.159770
    H   H40  0.345282  0.205351  0.498185  0.096522
    H   H41  0.416579  0.186932  0.539806  0.066873
    H   H42  0.411168  0.247939  0.480842  0.072671
    C   C61  0.019316  0.767769  0.391889  0.318237
    H   H43  0.986410  0.807008  0.369472  -0.068854
    H   H44  0.049421  0.735035  0.357082  -0.057852
    H   H45  0.987492  0.743511  0.425570  -0.058475
    C   C62  0.012082  0.262468  0.725254  -0.018960
    H   H46  0.017340  0.257069  0.675482  0.010714
    H   H47  0.960023  0.260657  0.746767  0.026378
    H   H48  0.021962  0.307649  0.733714  0.024250
    H   H49  0.760724  0.092164  0.384711  0.107668
    C   C63  0.400506  0.020517  0.312717  -0.216579
    H   H50  0.436933  0.988490  0.280573  0.043566
    H   H51  0.371002  0.993786  0.345971  0.097653
    H   H52  0.365598  0.054804  0.287018  0.092355
    H   H53  0.187251  0.546703  0.506376  0.139463
    C   C64  0.233437  0.034887  0.694389  -0.316997
    H   H54  0.266346  0.001060  0.722215  0.103851
    H   H55  0.203315  0.010522  0.672123  0.100383
    H   H56  0.265260  0.057508  0.659071  0.090611
    C   C65  0.980510  0.294971  0.059758  -0.038411
    H   H57  0.985763  0.289575  0.009985  -0.019746
    H   H58  0.928449  0.293166  0.081272  0.052521
    H   H59  0.990398  0.340148  0.068220  0.050732
    H   H60  0.461080  0.230387  0.523368  0.158152
