# generated using pymatgen
data_Cu2H3C17N3O8
_symmetry_space_group_name_H-M   'P 1'
_cell_length_a   9.06521800
_cell_length_b   16.10930100
_cell_length_c   7.54032900
_cell_angle_alpha   89.99498700
_cell_angle_beta   89.99696200
_cell_angle_gamma   84.23868300
_symmetry_Int_Tables_number   1
_chemical_formula_structural   Cu2H3C17N3O8
_chemical_formula_sum   'Cu2 H3 C17 N3 O8'
_cell_volume   1095.58464115
_cell_formula_units_Z   1
loop_
 _symmetry_equiv_pos_site_id
 _symmetry_equiv_pos_as_xyz
  1  'x, y, z'
loop_
 _atom_site_type_symbol
 _atom_site_label
 _atom_site_symmetry_multiplicity
 _atom_site_fract_x
 _atom_site_fract_y
 _atom_site_fract_z
 _atom_site_occupancy
  Cu  Cu1  1  0.74267100  0.12690300  0.17440200  1
  Cu  Cu2  1  0.74268700  0.12690500  0.82557200  1
  H  H1  1  0.98897600  0.68943000  0.99998900  1
  H  H2  1  0.49638500  0.56437000  0.99996400  1
  H  H3  1  0.98406600  0.53207600  0.99995800  1
  C  C1  1  0.47295200  0.13094300  0.99998600  1
  C  C2  1  0.30917900  0.12806900  0.99998500  1
  C  C3  1  0.75352200  0.97498100  0.00000600  1
  C  C4  1  0.75065600  0.88266400  0.00000900  1
  C  C5  1  0.87843000  0.66137300  0.99998200  1
  C  C6  1  0.87572600  0.57463200  0.99996700  1
  C  C7  1  0.60691700  0.59244100  0.99997200  1
  C  C8  1  0.60962300  0.67918100  0.99997400  1
  C  C9  1  0.74538400  0.71364400  0.99998800  1
  C  C10  1  0.73997400  0.54016400  0.99997100  1
  C  C11  1  0.73704000  0.44611500  0.99995500  1
  C  C12  1  0.74831800  0.80769900  0.00000000  1
  C  C13  1  0.01240500  0.12286500  0.99998500  1
  C  C14  1  0.17617900  0.12573900  0.99997400  1
  C  C15  1  0.73183500  0.27882600  0.99996400  1
  C  C16  1  0.73470100  0.37114400  0.99995000  1
  C  C17  1  0.46325300  0.73668300  0.99997200  1
  N  N1  1  0.74267000  0.12690100  0.41975100  1
  N  N2  1  0.74269900  0.12690000  0.58022400  1
  N  N3  1  0.35301300  0.77999300  0.99996400  1
  O  O1  1  0.95744900  0.12190500  0.85250600  1
  O  O2  1  0.52792200  0.13190400  0.85250300  1
  O  O3  1  0.75448500  0.00596400  0.85252300  1
  O  O4  1  0.73088600  0.24784500  0.85248700  1
  O  O5  1  0.75447200  0.00596300  0.14748800  1
  O  O6  1  0.52790900  0.13190300  0.14746800  1
  O  O7  1  0.95743500  0.12190300  0.14747100  1
  O  O8  1  0.73087300  0.24784300  0.14745200  1
