data_DB5-hypotheticalMOF_16371_0_0_0_22_13_5_repeat
_audit_creation_date              2024-02-23
_audit_creation_method            'Materials Studio'
_symmetry_space_group_name_H-M    'P1'
_symmetry_Int_Tables_number       1
_symmetry_cell_setting            triclinic
loop_
_symmetry_equiv_pos_as_xyz
  x,y,z
_cell_length_a                    14.9088
_cell_length_b                    17.6377
_cell_length_c                    14.9083
_cell_angle_alpha                 81.3564
_cell_angle_beta                  89.7887
_cell_angle_gamma                 103.7622
loop_
_atom_site_label
_atom_site_type_symbol
_atom_site_fract_x
_atom_site_fract_y
_atom_site_fract_z
_atom_site_U_iso_or_equiv
_atom_site_adp_type
_atom_site_occupancy
Zn1    Zn    0.28551   0.72385   0.47941   0.00000  Uiso   1.00
Zn2    Zn    0.26724   0.59983   0.65997   0.00000  Uiso   1.00
Zn3    Zn    0.14401   0.72470   0.63823   0.00000  Uiso   1.00
Zn4    Zn    0.10499   0.58471   0.52203   0.00000  Uiso   1.00
O1     O     0.20044   0.65827   0.57491   0.00000  Uiso   1.00
O2     O     0.41021   0.71336   0.49462   0.00000  Uiso   1.00
O3     O     0.25957   0.62308   0.78128   0.00000  Uiso   1.00
O4     O     0.18676   0.83508   0.59023   0.00000  Uiso   1.00
O5     O     0.39678   0.62225   0.62728   0.00000  Uiso   1.00
O6     O     0.29072   0.83445   0.47355   0.00000  Uiso   1.00
O7     O     0.16904   0.71482   0.76531   0.00000  Uiso   1.00
O8     O     0.01171   0.70016   0.63156   0.00000  Uiso   1.00
O9     O     0.12025   0.59648   0.39218   0.00000  Uiso   1.00
O10    O     0.98304   0.59731   0.54618   0.00000  Uiso   1.00
O11    O     0.25288   0.69870   0.36087   0.00000  Uiso   1.00
O12    O     0.22173   0.48733   0.66860   0.00000  Uiso   1.00
O13    O     0.10253   0.47622   0.56726   0.00000  Uiso   1.00
C1     C     0.96442   0.64719   0.59113   0.00000  Uiso   1.00
C2     C     0.86344   0.64242   0.59806   0.00000  Uiso   1.00
C3     C     0.68764   0.72821   0.47280   0.00000  Uiso   1.00
C4     C     0.59276   0.72373   0.47930   0.00000  Uiso   1.00
C5     C     0.57882   0.62901   0.61757   0.00000  Uiso   1.00
C6     C     0.67369   0.63348   0.61107   0.00000  Uiso   1.00
C7     C     0.72810   0.68308   0.53868   0.00000  Uiso   1.00
C8     C     0.82297   0.68755   0.53217   0.00000  Uiso   1.00
C9     C     0.80903   0.59283   0.67044   0.00000  Uiso   1.00
C10    C     0.71415   0.58836   0.67695   0.00000  Uiso   1.00
C11    C     0.15594   0.45313   0.62489   0.00000  Uiso   1.00
C12    C     0.13698   0.36537   0.64624   0.00000  Uiso   1.00
C13    C     0.34501   0.07538   0.41242   0.00000  Uiso   1.00
C14    C     0.32717   0.99292   0.43249   0.00000  Uiso   1.00
C15    C     0.21900   0.99348   0.55410   0.00000  Uiso   1.00
C16    C     0.23684   0.07594   0.53404   0.00000  Uiso   1.00
C17    C     0.29984   0.11689   0.46319   0.00000  Uiso   1.00
C18    C     0.19167   0.11744   0.58481   0.00000  Uiso   1.00
C19    C     0.20950   0.19990   0.56475   0.00000  Uiso   1.00
C20    C     0.27250   0.24085   0.49391   0.00000  Uiso   1.00
C21    C     0.31767   0.19934   0.44313   0.00000  Uiso   1.00
C22    C     0.12866   0.07650   0.65565   0.00000  Uiso   1.00
C23    C     0.08349   0.11800   0.70643   0.00000  Uiso   1.00
C24    C     0.10132   0.20046   0.68637   0.00000  Uiso   1.00
C25    C     0.16432   0.24141   0.61553   0.00000  Uiso   1.00
C26    C     0.05615   0.24197   0.73715   0.00000  Uiso   1.00
C27    C     0.07398   0.32443   0.71708   0.00000  Uiso   1.00
C28    C     0.18215   0.32387   0.59546   0.00000  Uiso   1.00
C29    C     0.43738   0.66940   0.55862   0.00000  Uiso   1.00
C30    C     0.53835   0.67414   0.55168   0.00000  Uiso   1.00
C31    C     0.18425   0.64581   0.34342   0.00000  Uiso   1.00
C32    C     0.17736   0.64050   0.24478   0.00000  Uiso   1.00
C33    C     0.24513   0.86421   0.52471   0.00000  Uiso   1.00
C34    C     0.26418   0.95197   0.50332   0.00000  Uiso   1.00
C35    C     0.30251   0.73699   0.02680   0.00000  Uiso   1.00
C36    C     0.29603   0.73200   0.93411   0.00000  Uiso   1.00
C37    C     0.15792   0.62555   0.96671   0.00000  Uiso   1.00
C38    C     0.16440   0.63053   0.05940   0.00000  Uiso   1.00
C39    C     0.23670   0.68625   0.08944   0.00000  Uiso   1.00
C40    C     0.24317   0.69124   0.18213   0.00000  Uiso   1.00
C41    C     0.10507   0.58479   0.21472   0.00000  Uiso   1.00
C42    C     0.09859   0.57980   0.12204   0.00000  Uiso   1.00
C43    C     0.21662   0.67074   0.80548   0.00000  Uiso   1.00
C44    C     0.22374   0.67628   0.90406   0.00000  Uiso   1.00
H1     H     0.28701   0.30799   0.47757   0.00000  Uiso   1.00
H2     H     0.00484   0.20862   0.79483   0.00000  Uiso   1.00
H3     H     0.30204   0.73661   0.20659   0.00000  Uiso   1.00
H4     H     0.03973   0.53443   0.09756   0.00000  Uiso   1.00
N1     N     0.38564   0.24352   0.36673   0.00000  Uiso   1.00
H5     H     0.41156   0.20471   0.33761   0.00000  Uiso   1.00
H6     H     0.35316   0.27377   0.31991   0.00000  Uiso   1.00
N2     N     0.03408   0.53006   0.28229   0.00000  Uiso   1.00
H7     H     0.04915   0.54167   0.34556   0.00000  Uiso   1.00
H8     H     0.97073   0.53842   0.26755   0.00000  Uiso   1.00
H9     H     0.86727   0.72793   0.47323   0.00000  Uiso   1.00
N3     N     0.52013   0.57554   0.69565   0.00000  Uiso   1.00
H10    H     0.45389   0.57956   0.68977   0.00000  Uiso   1.00
H11    H     0.52352   0.51917   0.69456   0.00000  Uiso   1.00
N4     N     0.74632   0.78168   0.39471   0.00000  Uiso   1.00
H12    H     0.81256   0.77766   0.40058   0.00000  Uiso   1.00
H13    H     0.72262   0.76509   0.33551   0.00000  Uiso   1.00
N5     N     0.54912   0.77241   0.40825   0.00000  Uiso   1.00
H14    H     0.59799   0.80451   0.36141   0.00000  Uiso   1.00
H15    H     0.49992   0.73616   0.37777   0.00000  Uiso   1.00
H16    H     0.66984   0.54798   0.73589   0.00000  Uiso   1.00
H17    H     0.84198   0.55608   0.72408   0.00000  Uiso   1.00
H18    H     0.16770   0.96013   0.61178   0.00000  Uiso   1.00
N6     N     0.37591   0.94815   0.37773   0.00000  Uiso   1.00
H19    H     0.32869   0.90998   0.34750   0.00000  Uiso   1.00
H20    H     0.41853   0.98666   0.32986   0.00000  Uiso   1.00
N7     N     0.25011   0.36805   0.51906   0.00000  Uiso   1.00
H21    H     0.31290   0.35753   0.53181   0.00000  Uiso   1.00
H22    H     0.22834   0.34962   0.46015   0.00000  Uiso   1.00
H23    H     0.39633   0.10872   0.35473   0.00000  Uiso   1.00
N8     N     0.10941   0.98756   0.67730   0.00000  Uiso   1.00
H24    H     0.08412   0.96364   0.62241   0.00000  Uiso   1.00
H25    H     0.16862   0.97159   0.69414   0.00000  Uiso   1.00
H26    H     0.03719   0.35822   0.75843   0.00000  Uiso   1.00
N9     N     0.01554   0.07384   0.78284   0.00000  Uiso   1.00
H27    H     0.01110   0.01530   0.78785   0.00000  Uiso   1.00
H28    H     0.03729   0.09232   0.84173   0.00000  Uiso   1.00
N10    N     0.38048   0.79707   0.05921   0.00000  Uiso   1.00
H29    H     0.42120   0.82845   0.00546   0.00000  Uiso   1.00
H30    H     0.35413   0.83394   0.09130   0.00000  Uiso   1.00
N11    N     0.36701   0.78672   0.86655   0.00000  Uiso   1.00
H31    H     0.41378   0.82278   0.89965   0.00000  Uiso   1.00
H32    H     0.39939   0.75450   0.83303   0.00000  Uiso   1.00
H33    H     0.09907   0.58018   0.94223   0.00000  Uiso   1.00
