# Generated by REPEAT Assigner based on pymatgen
data_DB5-hypotheticalMOF_21996_1_0_1_11_24_9
_audit_creation_date              2022-05-24
_audit_creation_method            REPEAT_Assigner
_cell_length_a                    16.974885
_cell_length_b                    11.026607
_cell_length_c                    16.053811
_cell_angle_alpha                 93.134322
_cell_angle_beta                  91.068968
_cell_angle_gamma                 95.963696
_cell_volume                      2983.248787
_symmetry_space_group_name_H-M    P1
_symmetry_Int_Tables_number       1
loop_
    _symmetry_equiv_pos_site_id
    _symmetry_equiv_pos_as_xyz
    1  x,y,z
loop_
    _atom_site_type_symbol
    _atom_site_label
    _atom_site_fract_x
    _atom_site_fract_y
    _atom_site_fract_z
    _atom_type_partial_charge
    O   O1   0.071029  0.154796  0.002873  -0.624311
    O   O2   0.844206  0.173374  0.987560  -0.600022
    O   O3   0.938818  0.987371  0.993950  -0.692462
    O   O4   0.976417  0.340799  0.996483  -0.666235
    O   O5   0.933604  0.997568  0.132457  -0.736683
    O   O6   0.838991  0.183570  0.126067  -0.601761
    O   O7   0.065815  0.164993  0.141380  -0.644139
    Zn  Zn1  0.951575  0.175901  0.155714  1.034476
    Zn  Zn2  0.958445  0.162466  0.973226  0.967667
    O   O8   0.971202  0.350996  0.134989  -0.711082
    C   C1   0.812109  0.177577  0.054822  0.788898
    C   C2   0.724237  0.174897  0.048890  -0.136004
    C   C3   0.229915  0.159170  0.007335  -0.238184
    C   C4   0.312480  0.161689  0.012920  0.379017
    C   C5   0.350913  0.168516  0.091214  0.117954
    C   C6   0.306775  0.172812  0.163927  -0.231214
    C   C7   0.224211  0.170284  0.158340  -0.081346
    C   C8   0.597535  0.176665  0.116017  0.401187
    C   C9   0.680105  0.179196  0.121597  -0.258967
    C   C10  0.685805  0.168071  0.970590  -0.059436
    C   C11  0.603239  0.165551  0.965011  -0.242224
    C   C12  0.559109  0.169841  0.037724  0.110624
    N   N1   0.435307  0.171095  0.096925  -0.112398
    N   N2   0.474715  0.167253  0.032012  -0.110361
    C   C13  0.929275  0.947236  0.062734  0.816759
    C   C14  0.908598  0.812454  0.061336  0.177681
    C   C15  0.965691  0.738834  0.065189  -0.217976
    C   C16  0.944322  0.599530  0.063743  -0.281966
    C   C17  0.097912  0.160789  0.074115  0.835942
    C   C18  0.185784  0.163469  0.080042  -0.145586
    C   C19  0.980745  0.391131  0.066203  0.781615
    C   C20  0.001422  0.525912  0.067597  0.199703
    N   N3   0.946892  0.185069  0.280258  -0.209672
    C   C21  0.987172  0.105953  0.326673  0.267848
    C   C22  0.983905  0.112378  0.413859  -0.165588
    C   C23  0.940362  0.197925  0.454629  0.430264
    C   C24  0.900077  0.277044  0.408208  -0.397328
    C   C25  0.903340  0.270613  0.321023  0.076980
    C   C26  0.926105  0.225983  0.715076  -0.078446
    C   C27  0.922848  0.232411  0.802267  -0.056573
    C   C28  0.006675  0.067742  0.807912  0.110617
    C   C29  0.009938  0.061323  0.720725  -0.339188
    C   C30  0.969649  0.140438  0.674312  0.378447
    N   N4   0.937024  0.204497  0.543747  -0.237360
    N   N5   0.972984  0.133860  0.585195  -0.184971
    N   N6   0.963128  0.153295  0.848681  -0.121454
    H   H1   0.198630  0.153619  0.943580  0.130211
    H   H2   0.045395  0.991664  0.687532  0.138994
    H   H3   0.879619  0.559433  0.059369  0.133440
    H   H4   0.016704  0.047955  0.451649  -0.001766
    O   O9   0.029480  0.022744  0.287202  -0.057684
    C   C31  0.064346  0.954312  0.346870  -0.193486
    H   H5   0.029494  0.957394  0.406830  0.137482
    H   H6   0.063566  0.855546  0.321572  0.094669
    H   H7   0.128170  0.994660  0.360458  0.105305
    H   H8   0.030390  0.778937  0.069562  0.124450
    O   O10  0.078591  0.573866  0.072696  -0.279874
    C   C32  0.096654  0.640984  0.001989  0.032345
    H   H9   0.039848  0.670442  0.974178  0.026198
    H   H10  0.139179  0.725271  0.021035  0.046850
    H   H11  0.125542  0.581516  0.953581  0.025082
    O   O11  0.355232  0.157555  0.942210  -0.265758
    C   C33  0.303605  0.150961  0.871909  -0.065073
    H   H12  0.246102  0.189201  0.890208  0.060738
    H   H13  0.332806  0.206684  0.820938  0.073761
    H   H14  0.290161  0.051671  0.847733  0.062463
    O   O12  0.554797  0.180908  0.186730  -0.278303
    C   C34  0.606425  0.187453  0.257028  -0.041164
    H   H15  0.668298  0.226023  0.239014  0.047547
    H   H16  0.583928  0.249507  0.308442  0.069570
    H   H17  0.608797  0.092124  0.280472  0.062477
    H   H18  0.039476  0.003329  0.845709  0.113629
    H   H19  0.887388  0.302079  0.835458  0.147337
    H   H20  0.721744  0.164578  0.911392  0.099117
    H   H21  0.338073  0.178363  0.227675  0.138535
    H   H22  0.893302  0.290404  0.677292  0.056370
    O   O13  0.831444  0.764474  0.056013  -0.276413
    C   C35  0.818787  0.686803  0.983229  0.015657
    H   H23  0.877396  0.653833  0.963209  0.035607
    H   H24  0.775050  0.604886  0.996447  0.050862
    H   H25  0.793680  0.738881  0.931177  0.029965
    H   H26  0.864618  0.346695  0.441408  0.152062
    H   H27  0.188281  0.173797  0.217547  0.117316
    H   H28  0.870538  0.335036  0.283233  0.158773
    H   H29  0.571954  0.159991  0.901256  0.142546
    H   H30  0.711395  0.184764  0.185357  0.137422
