# generated using pymatgen
data_Cu2H18C23(NO4)2
_symmetry_space_group_name_H-M   'P 1'
_cell_length_a   10.65454800
_cell_length_b   10.65454300
_cell_length_c   9.13031300
_cell_angle_alpha   90.00093100
_cell_angle_beta   90.00119800
_cell_angle_gamma   84.48327300
_symmetry_Int_Tables_number   1
_chemical_formula_structural   Cu2H18C23(NO4)2
_chemical_formula_sum   'Cu2 H18 C23 N2 O8'
_cell_volume   1031.66636907
_cell_formula_units_Z   1
loop_
 _symmetry_equiv_pos_site_id
 _symmetry_equiv_pos_as_xyz
  1  'x, y, z'
loop_
 _atom_site_type_symbol
 _atom_site_label
 _atom_site_symmetry_multiplicity
 _atom_site_fract_x
 _atom_site_fract_y
 _atom_site_fract_z
 _atom_site_occupancy
  Cu  Cu1  1  0.81523700  0.51491100  0.85580400  1
  Cu  Cu2  1  0.81523700  0.51489400  0.14388700  1
  H  H1  1  0.60473200  0.92142400  0.99988400  1
  H  H2  1  0.39504600  0.51694900  0.35780000  1
  H  H3  1  0.49500100  0.59296100  0.28426800  1
  H  H4  1  0.51286600  0.44673300  0.28420500  1
  H  H5  1  0.67576200  0.37549800  0.36078000  1
  H  H6  1  0.12117800  0.89741700  0.99988200  1
  H  H7  1  0.05497300  0.79626900  0.91493100  1
  H  H8  1  0.05497200  0.79628600  0.08483900  1
  H  H9  1  0.19641500  0.51172800  0.24078500  1
  H  H10  1  0.61103600  0.15910500  0.99984900  1
  H  H11  1  0.04482100  0.21252400  0.99985500  1
  H  H12  1  0.10525800  0.09588900  0.91490200  1
  H  H13  1  0.10525100  0.09589600  0.08481000  1
  H  H14  1  0.19637000  0.51175100  0.75895400  1
  H  H15  1  0.43407600  0.51805500  0.75892700  1
  H  H16  1  0.95474000  0.65425600  0.36073500  1
  H  H17  1  0.95474500  0.65429500  0.63892700  1
  H  H18  1  0.67574300  0.37553600  0.63894400  1
  C  C1  1  0.80806200  0.74444100  0.99986800  1
  C  C2  1  0.81175100  0.88388400  0.99988300  1
  C  C3  1  0.04477400  0.50773300  0.99985500  1
  C  C4  1  0.18421800  0.51142400  0.99986900  1
  C  C5  1  0.69920700  0.96337100  0.99987800  1
  C  C6  1  0.70268100  0.09439200  0.99985600  1
  C  C7  1  0.93125100  0.06642800  0.99985100  1
  C  C8  1  0.92777600  0.93540900  0.99986200  1
  C  C9  1  0.38075800  0.51663200  0.13265000  1
  C  C10  1  0.24973800  0.51315100  0.13265500  1
  C  C11  1  0.24972600  0.51316600  0.86707000  1
  C  C12  1  0.38074500  0.51663800  0.86706600  1
  C  C13  1  0.58569900  0.52207200  0.99984500  1
  C  C14  1  0.44625700  0.51837700  0.99986000  1
  C  C15  1  0.82240500  0.28536600  0.99983300  1
  C  C16  1  0.81869900  0.14592400  0.99985000  1
  C  C17  1  0.73835700  0.43808300  0.57652400  1
  C  C18  1  0.73836400  0.43806300  0.42318700  1
  C  C19  1  0.89213500  0.59171600  0.42317700  1
  C  C20  1  0.89213400  0.59172800  0.57651100  1
  C  C21  1  0.45282200  0.51850700  0.27871600  1
  C  C22  1  0.05158000  0.84796800  0.99987400  1
  C  C23  1  0.05886800  0.12311000  0.99984700  1
  N  N1  1  0.81523700  0.51491400  0.65318100  1
  N  N2  1  0.81524600  0.51488200  0.34651000  1
  O  O1  1  0.82364400  0.33215600  0.12162700  1
  O  O2  1  0.80682900  0.69763500  0.12166300  1
  O  O3  1  0.99797600  0.50649200  0.12165000  1
  O  O4  1  0.63249700  0.52330000  0.12164000  1
  O  O5  1  0.99797600  0.50650600  0.87805100  1
  O  O6  1  0.80682900  0.69765000  0.87806400  1
  O  O7  1  0.82364400  0.33217000  0.87802800  1
  O  O8  1  0.63249700  0.52331400  0.87804100  1
