# Generated by REPEAT Assigner based on pymatgen
data_DB5-hypotheticalMOF_2814_2_1_0_25_21_3
_audit_creation_date              2022-05-24
_audit_creation_method            REPEAT_Assigner
_cell_length_a                    19.805399
_cell_length_b                    18.215407
_cell_length_c                    18.215405
_cell_angle_alpha                 89.974667
_cell_angle_beta                  89.969351
_cell_angle_gamma                 90.016085
_cell_volume                      6571.449664
_symmetry_space_group_name_H-M    P1
_symmetry_Int_Tables_number       1
loop_
    _symmetry_equiv_pos_site_id
    _symmetry_equiv_pos_as_xyz
    1  x,y,z
loop_
    _atom_site_type_symbol
    _atom_site_label
    _atom_site_fract_x
    _atom_site_fract_y
    _atom_site_fract_z
    _atom_type_partial_charge
    Zn  Zn1   0.617303  0.874955  0.707018  1.300445
    Zn  Zn2   0.117303  0.374955  0.207018  1.300453
    Zn  Zn3   0.730494  0.875039  0.583946  1.277748
    Zn  Zn4   0.230494  0.375039  0.083946  1.277740
    Zn  Zn5   0.730476  0.998015  0.706993  1.249922
    Zn  Zn6   0.230476  0.498015  0.206993  1.249912
    Zn  Zn7   0.617346  0.998057  0.583987  1.277196
    Zn  Zn8   0.117346  0.498057  0.083987  1.277201
    O   O1    0.673905  0.936516  0.645486  -1.591695
    O   O2    0.173905  0.436516  0.145486  -1.591691
    O   O3    0.632307  0.771982  0.690685  -0.573115
    O   O4    0.132307  0.271982  0.190685  -0.573114
    O   O5    0.825208  0.891369  0.600241  -0.541215
    O   O6    0.325208  0.391369  0.100241  -0.541190
    O   O7    0.715438  0.981638  0.809981  -0.530708
    O   O8    0.215438  0.481638  0.309981  -0.530713
    O   O9    0.715468  0.772043  0.600265  -0.563797
    O   O10   0.215468  0.272043  0.100265  -0.563797
    O   O11   0.632290  0.891227  0.809999  -0.557102
    O   O12   0.132290  0.391227  0.309999  -0.557104
    O   O13   0.825195  0.981719  0.690644  -0.483272
    O   O14   0.325195  0.481719  0.190644  -0.483239
    O   O15   0.715480  0.101004  0.690683  -0.504387
    O   O16   0.215480  0.601004  0.190683  -0.504386
    O   O17   0.522623  0.981710  0.600335  -0.591630
    O   O18   0.022623  0.481710  0.100335  -0.591659
    O   O19   0.632364  0.101035  0.600311  -0.518302
    O   O20   0.132364  0.601035  0.100311  -0.518304
    O   O21   0.522592  0.891268  0.690725  -0.607996
    O   O22   0.022592  0.391268  0.190725  -0.608015
    O   O23   0.715510  0.891410  0.480967  -0.535486
    O   O24   0.215510  0.391410  0.980967  -0.535482
    O   O25   0.632381  0.981791  0.480998  -0.537331
    O   O26   0.132381  0.481791  0.980998  -0.537332
    C   C1    0.673924  0.127723  0.645499  0.446047
    C   C2    0.173924  0.627723  0.145499  0.446052
    C   C3    0.673916  0.209522  0.645486  0.108699
    C   C4    0.173916  0.709522  0.145486  0.108693
    C   C5    0.673937  0.936594  0.454280  0.487179
    C   C6    0.173937  0.436594  0.954280  0.487183
    C   C7    0.673929  0.936560  0.372481  0.104222
    C   C8    0.173929  0.436560  0.872481  0.104214
    C   C9    0.497362  0.936484  0.645537  0.558394
    C   C10   0.997362  0.436484  0.145537  0.558416
    C   C11   0.422130  0.936470  0.645559  0.111475
    C   C12   0.922130  0.436470  0.145559  0.111514
    C   C13   0.386780  0.983502  0.692636  -0.047328
    C   C14   0.886780  0.483502  0.192636  -0.047350
    C   C15   0.316091  0.983492  0.692650  -0.333003
    C   C16   0.816091  0.483492  0.192650  -0.332997
    C   C17   0.280754  0.936446  0.645591  0.646243
    C   C18   0.780754  0.436446  0.145591  0.646251
    C   C19   0.316110  0.889412  0.598509  -0.348058
    C   C20   0.816110  0.389412  0.098509  -0.348058
    C   C21   0.386797  0.889426  0.598491  -0.047048
    C   C22   0.886797  0.389426  0.098491  -0.047069
    C   C23   0.031036  0.889354  0.598578  -0.253776
    C   C24   0.531036  0.389354  0.098578  -0.253763
    C   C25   0.960344  0.889341  0.598600  -0.122905
    C   C26   0.460344  0.389341  0.098600  -0.122903
    C   C27   0.960330  0.983419  0.692737  -0.019535
    C   C28   0.460330  0.483419  0.192737  -0.019540
    C   C29   0.031018  0.983434  0.692719  -0.265360
    C   C30   0.531018  0.483434  0.192719  -0.265346
    C   C31   0.066367  0.936403  0.645635  0.553611
    C   C32   0.566367  0.436403  0.145635  0.553585
    C   C33   0.143015  0.936415  0.645619  -0.212449
    C   C34   0.643015  0.436415  0.145619  -0.212423
    C   C35   0.204107  0.936429  0.645610  -0.269374
    C   C36   0.704107  0.436429  0.145610  -0.269399
    C   C37   0.849761  0.936506  0.645488  0.344159
    C   C38   0.349761  0.436506  0.145488  0.344122
    C   C39   0.924992  0.936377  0.645674  0.235075
    C   C40   0.424992  0.436377  0.145674  0.235076
    C   C41   0.673885  0.744563  0.645473  0.556525
    C   C42   0.173885  0.244563  0.145473  0.556520
    C   C43   0.673876  0.662765  0.645467  0.094826
    C   C44   0.173876  0.162765  0.145467  0.094832
    C   C45   0.630692  0.397712  0.598356  -0.206431
    C   C46   0.130692  0.897712  0.098356  -0.206433
    C   C47   0.630684  0.474571  0.598353  -0.112547
    C   C48   0.130684  0.974571  0.098353  -0.112546
    C   C49   0.717103  0.474568  0.692603  -0.187538
    C   C50   0.217103  0.974568  0.192603  -0.187532
    C   C51   0.717107  0.397711  0.692609  -0.141249
    C   C52   0.217107  0.897711  0.192609  -0.141253
    C   C53   0.673903  0.359285  0.645481  0.517792
    C   C54   0.173903  0.859285  0.145481  0.517794
    C   C55   0.673890  0.513001  0.645473  0.490138
    C   C56   0.173890  0.013001  0.145473  0.490135
    C   C57   0.673881  0.596335  0.645471  -0.368312
    C   C58   0.173881  0.096335  0.145471  -0.368314
    C   C59   0.673911  0.275946  0.645484  -0.376591
    C   C60   0.173911  0.775946  0.145484  -0.376586
    C   C61   0.717135  0.889388  0.184296  -0.241433
    C   C62   0.217135  0.389388  0.684296  -0.241429
    C   C63   0.717118  0.889355  0.107437  -0.123748
    C   C64   0.217118  0.389355  0.607437  -0.123752
    C   C65   0.630626  0.983550  0.107429  -0.041643
    C   C66   0.130626  0.483550  0.607429  -0.041657
    C   C67   0.630640  0.983579  0.184286  -0.331272
    C   C68   0.130640  0.483579  0.684286  -0.331264
    C   C69   0.673898  0.936499  0.222718  0.646742
    C   C70   0.173898  0.436499  0.722718  0.646734
    C   C71   0.673868  0.936437  0.069001  0.206769
    C   C72   0.173868  0.436437  0.569001  0.206781
    C   C73   0.673850  0.936402  0.985668  -0.200599
    C   C74   0.173850  0.436402  0.485668  -0.200607
    C   C75   0.673915  0.936533  0.306056  -0.396719
    C   C76   0.173915  0.436533  0.806056  -0.396713
    C   C77   0.673857  0.936418  0.837439  0.526785
    C   C78   0.173857  0.436418  0.337439  0.526785
    C   C79   0.673837  0.936377  0.919238  0.024739
    C   C80   0.173837  0.436377  0.419238  0.024745
    H   H1    0.415546  0.021808  0.730961  0.107817
    H   H2    0.915546  0.521808  0.230961  0.107819
    Br  Br1   0.571951  0.047514  0.236435  0.052088
    Br  Br2   0.071951  0.547514  0.736435  0.052087
    H   H3    0.415578  0.851123  0.560162  0.115344
    H   H4    0.915578  0.351123  0.060162  0.115346
    H   H5    0.752325  0.850992  0.076157  0.140539
    H   H6    0.252325  0.350992  0.576157  0.140537
    H   H7    0.595408  0.021882  0.076128  0.113923
    H   H8    0.095408  0.521882  0.576128  0.113929
    Br  Br3   0.775841  0.825494  0.236451  0.020015
    Br  Br4   0.275841  0.325494  0.736451  0.020016
    Br  Br5   0.079001  0.825522  0.534682  0.022352
    Br  Br6   0.579001  0.325522  0.034682  0.022350
    Br  Br7   0.268118  0.047364  0.756503  0.060372
    Br  Br8   0.768118  0.547364  0.256503  0.060373
    Br  Br9   0.078971  0.047280  0.756592  0.034326
    Br  Br10  0.578971  0.547280  0.256592  0.034323
    Br  Br11  0.572034  0.526720  0.534399  0.022772
    Br  Br12  0.072034  0.026720  0.034399  0.022771
    Br  Br13  0.572056  0.345565  0.534399  0.046695
    Br  Br14  0.072056  0.845565  0.034399  0.046694
    Br  Br15  0.912353  0.047249  0.756637  -0.001607
    Br  Br16  0.412353  0.547249  0.256637  -0.001610
    Br  Br17  0.268153  0.825569  0.534635  0.072035
    Br  Br18  0.768153  0.325569  0.034635  0.072038
    Br  Br19  0.775735  0.526723  0.756559  0.044747
    Br  Br20  0.275735  0.026723  0.256559  0.044745
    H   H9    0.931575  0.851029  0.560276  0.136912
    H   H10   0.431575  0.351029  0.060276  0.136907
    Br  Br21  0.775749  0.345555  0.756576  0.029894
    Br  Br22  0.275749  0.845555  0.256576  0.029895
