data_DB5-hypotheticalMOF_8812_0_0_0_13_9_5_repeat
_audit_creation_date              2024-02-23
_audit_creation_method            'Materials Studio'
_symmetry_space_group_name_H-M    'P1'
_symmetry_Int_Tables_number       1
_symmetry_cell_setting            triclinic
loop_
_symmetry_equiv_pos_as_xyz
  x,y,z
_cell_length_a                    14.9088
_cell_length_b                    14.9085
_cell_length_c                    12.7594
_cell_angle_alpha                 93.2636
_cell_angle_beta                  93.2791
_cell_angle_gamma                 89.8378
loop_
_atom_site_label
_atom_site_type_symbol
_atom_site_fract_x
_atom_site_fract_y
_atom_site_fract_z
_atom_site_U_iso_or_equiv
_atom_site_adp_type
_atom_site_occupancy
Zn1    Zn    0.35393   0.56281   0.46775   0.00000  Uiso   1.00
Zn2    Zn    0.34514   0.41243   0.63275   0.00000  Uiso   1.00
Zn3    Zn    0.20356   0.57144   0.63388   0.00000  Uiso   1.00
Zn4    Zn    0.19487   0.42117   0.44758   0.00000  Uiso   1.00
O1     O     0.27437   0.49196   0.54549   0.00000  Uiso   1.00
O2     O     0.47858   0.53560   0.49761   0.00000  Uiso   1.00
O3     O     0.32632   0.43348   0.77991   0.00000  Uiso   1.00
O4     O     0.23083   0.69611   0.62075   0.00000  Uiso   1.00
O5     O     0.47212   0.42512   0.61883   0.00000  Uiso   1.00
O6     O     0.34130   0.68978   0.49870   0.00000  Uiso   1.00
O7     O     0.22231   0.55030   0.78074   0.00000  Uiso   1.00
O8     O     0.07659   0.55877   0.60120   0.00000  Uiso   1.00
O9     O     0.21600   0.44000   0.30324   0.00000  Uiso   1.00
O10    O     0.07020   0.44836   0.46433   0.00000  Uiso   1.00
O11    O     0.33287   0.54406   0.31806   0.00000  Uiso   1.00
O12    O     0.31789   0.28777   0.59927   0.00000  Uiso   1.00
O13    O     0.20748   0.29419   0.46323   0.00000  Uiso   1.00
C1     C     0.04077   0.50545   0.53070   0.00000  Uiso   1.00
C2     C     0.94083   0.51120   0.52434   0.00000  Uiso   1.00
C3     C     0.26081   0.25835   0.52892   0.00000  Uiso   1.00
C4     C     0.25509   0.15841   0.52180   0.00000  Uiso   1.00
C5     C     0.74632   0.40711   0.63884   0.00000  Uiso   1.00
C6     C     0.65242   0.41251   0.63287   0.00000  Uiso   1.00
C7     C     0.65913   0.52739   0.50643   0.00000  Uiso   1.00
C8     C     0.75303   0.52199   0.51240   0.00000  Uiso   1.00
C9     C     0.79663   0.46185   0.57861   0.00000  Uiso   1.00
C10    C     0.89053   0.45646   0.58458   0.00000  Uiso   1.00
C11    C     0.89723   0.57133   0.45813   0.00000  Uiso   1.00
C12    C     0.80333   0.57673   0.45216   0.00000  Uiso   1.00
C13    C     0.35942   0.96398   0.64998   0.00000  Uiso   1.00
C14    C     0.35405   0.87007   0.64330   0.00000  Uiso   1.00
C15    C     0.23898   0.87669   0.50174   0.00000  Uiso   1.00
C16    C     0.24435   0.97059   0.50843   0.00000  Uiso   1.00
C17    C     0.30457   0.01423   0.58255   0.00000  Uiso   1.00
C18    C     0.30994   0.10814   0.58924   0.00000  Uiso   1.00
C19    C     0.19487   0.11476   0.44768   0.00000  Uiso   1.00
C20    C     0.18950   0.02085   0.44100   0.00000  Uiso   1.00
C21    C     0.50889   0.47842   0.56034   0.00000  Uiso   1.00
C22    C     0.60882   0.47265   0.56667   0.00000  Uiso   1.00
C23    C     0.27445   0.49204   0.27147   0.00000  Uiso   1.00
C24    C     0.27448   0.49208   0.15470   0.00000  Uiso   1.00
C25    C     0.28802   0.72648   0.56210   0.00000  Uiso   1.00
C26    C     0.29383   0.82642   0.56918   0.00000  Uiso   1.00
C27    C     0.33533   0.54627   0.10755   0.00000  Uiso   1.00
C28    C     0.33535   0.54631   0.99783   0.00000  Uiso   1.00
C29    C     0.21365   0.43795   0.98241   0.00000  Uiso   1.00
C30    C     0.21363   0.43792   0.09213   0.00000  Uiso   1.00
C31    C     0.27436   0.49194   0.81846   0.00000  Uiso   1.00
C32    C     0.27452   0.49215   0.93526   0.00000  Uiso   1.00
H1     H     0.92602   0.40749   0.63850   0.00000  Uiso   1.00
N1     N     0.40100   0.60476   0.94698   0.00000  Uiso   1.00
H2     H     0.39178   0.59657   0.86798   0.00000  Uiso   1.00
H3     H     0.39074   0.66978   0.96982   0.00000  Uiso   1.00
N2     N     0.41321   0.81586   0.71602   0.00000  Uiso   1.00
H4     H     0.45217   0.85776   0.76399   0.00000  Uiso   1.00
H5     H     0.37441   0.77894   0.75959   0.00000  Uiso   1.00
N3     N     0.61211   0.59224   0.43501   0.00000  Uiso   1.00
H6     H     0.54499   0.58735   0.44037   0.00000  Uiso   1.00
H7     H     0.63223   0.65553   0.45684   0.00000  Uiso   1.00
H8     H     0.76783   0.62569   0.39825   0.00000  Uiso   1.00
N4     N     0.42438   0.01104   0.72993   0.00000  Uiso   1.00
H9     H     0.46825   0.04767   0.69261   0.00000  Uiso   1.00
H10    H     0.39002   0.05200   0.77909   0.00000  Uiso   1.00
H11    H     0.18995   0.84114   0.44139   0.00000  Uiso   1.00
N5     N     0.59816   0.35348   0.69784   0.00000  Uiso   1.00
H12    H     0.61079   0.28828   0.67813   0.00000  Uiso   1.00
H13    H     0.61531   0.36666   0.77489   0.00000  Uiso   1.00
H14    H     0.78182   0.35815   0.69276   0.00000  Uiso   1.00
N6     N     0.12455   0.97378   0.36105   0.00000  Uiso   1.00
H15    H     0.12947   0.90666   0.36705   0.00000  Uiso   1.00
H16    H     0.06128   0.99383   0.37458   0.00000  Uiso   1.00
H17    H     0.16412   0.39385   0.93146   0.00000  Uiso   1.00
N7     N     0.13570   0.16896   0.37495   0.00000  Uiso   1.00
H18    H     0.14824   0.23508   0.39043   0.00000  Uiso   1.00
H19    H     0.14872   0.15181   0.29962   0.00000  Uiso   1.00
H20    H     0.38487   0.59038   0.15849   0.00000  Uiso   1.00
H21    H     0.93820   0.61590   0.40909   0.00000  Uiso   1.00
N8     N     0.14797   0.37947   0.14297   0.00000  Uiso   1.00
H22    H     0.15819   0.31442   0.12022   0.00000  Uiso   1.00
H23    H     0.15721   0.38774   0.22196   0.00000  Uiso   1.00
N9     N     0.37489   0.15522   0.66919   0.00000  Uiso   1.00
H24    H     0.40882   0.10912   0.71088   0.00000  Uiso   1.00
H25    H     0.41871   0.19184   0.63178   0.00000  Uiso   1.00
