# generated using pymatgen
data_Zn2H30C35(NO4)2
_symmetry_space_group_name_H-M   'P 1'
_cell_length_a   16.10930100
_cell_length_b   10.72302400
_cell_length_c   15.18622900
_cell_angle_alpha   89.99742200
_cell_angle_beta   89.99936200
_cell_angle_gamma   83.96467500
_symmetry_Int_Tables_number   1
_chemical_formula_structural   Zn2H30C35(NO4)2
_chemical_formula_sum   'Zn2 H30 C35 N2 O8'
_cell_volume   2608.73545899
_cell_formula_units_Z   1
loop_
 _symmetry_equiv_pos_site_id
 _symmetry_equiv_pos_as_xyz
  1  'x, y, z'
loop_
 _atom_site_type_symbol
 _atom_site_label
 _atom_site_symmetry_multiplicity
 _atom_site_fract_x
 _atom_site_fract_y
 _atom_site_fract_z
 _atom_site_occupancy
  Zn  Zn1  1  0.98309200  0.17036800  0.09653300  1
  Zn  Zn2  1  0.98310300  0.17037100  0.90356900  1
  H  H1  1  0.54495800  0.37869100  0.00004600  1
  H  H2  1  0.92295300  0.76271400  0.00004100  1
  H  H3  1  0.42123100  0.96205000  0.00006300  1
  H  H4  1  0.13351100  0.94308900  0.55574200  1
  H  H5  1  0.06987300  0.94169900  0.63231400  1
  H  H6  1  0.18148200  0.11205400  0.61322100  1
  H  H7  1  0.11787000  0.11068200  0.68980700  1
  H  H8  1  0.17723500  0.92357500  0.73147400  1
  H  H9  1  0.24086700  0.92496900  0.65489600  1
  H  H10  1  0.24219100  0.02062000  0.73138700  1
  H  H11  1  0.14376300  0.83234100  0.05106700  1
  H  H12  1  0.14368800  0.83232500  0.94891400  1
  H  H13  1  0.20046100  0.63429100  0.05107700  1
  H  H14  1  0.20041200  0.63424600  0.94893300  1
  H  H15  1  0.28537600  0.78460100  0.94883700  1
  H  H16  1  0.28544200  0.78461600  0.05099100  1
  H  H17  1  0.32534500  0.66812700  0.99990900  1
  H  H18  1  0.11435900  0.51938100  0.00005600  1
  H  H19  1  0.08478900  0.01646700  0.41642700  1
  H  H20  1  0.38761700  0.37453900  0.00005300  1
  H  H21  1  0.62698100  0.93149600  0.05106600  1
  H  H22  1  0.62695400  0.93161200  0.94891300  1
  H  H23  1  0.51013000  0.83834800  0.05106900  1
  H  H24  1  0.51009000  0.83842500  0.94892600  1
  H  H25  1  0.63102100  0.71786600  0.94883800  1
  H  H26  1  0.63104600  0.71776300  0.05099200  1
  H  H27  1  0.56396600  0.65318400  0.99990600  1
  H  H28  1  0.88139500  0.32426500  0.41642500  1
  H  H29  1  0.88141100  0.32425900  0.58368000  1
  H  H30  1  0.92013500  0.60225900  0.00004800  1
  C  C1  1  0.83114600  0.17954100  0.00004300  1
  C  C2  1  0.73883600  0.17711700  0.00003700  1
  C  C3  1  0.51720000  0.28519000  0.00004500  1
  C  C4  1  0.43046600  0.28290300  0.00005100  1
  C  C5  1  0.44900300  0.05554000  0.00005200  1
  C  C6  1  0.53573500  0.05782900  0.00005200  1
  C  C7  1  0.56983100  0.17265700  0.00004500  1
  C  C8  1  0.39636500  0.16808100  0.00005000  1
  C  C9  1  0.30232400  0.16560000  0.00005600  1
  C  C10  1  0.66387700  0.17513900  0.00004000  1
  C  C11  1  0.98786600  0.94223000  0.00005400  1
  C  C12  1  0.98543600  0.80370800  0.00005000  1
  C  C13  1  0.05624900  0.72778700  0.00005300  1
  C  C14  1  0.05373900  0.58461700  0.00005000  1
  C  C15  1  0.13505000  0.16119800  0.00005800  1
  C  C16  1  0.22735900  0.16362200  0.00005700  1
  C  C17  1  0.97832900  0.39850800  0.00004700  1
  C  C18  1  0.98076000  0.53703100  0.00004400  1
  C  C19  1  0.03914800  0.08553900  0.45395300  1
  C  C20  1  0.03915000  0.08553600  0.54614300  1
  C  C21  1  0.92704900  0.25519400  0.54614300  1
  C  C22  1  0.92704300  0.25519000  0.45395500  1
  C  C23  1  0.98309700  0.17036400  0.40786200  1
  C  C24  1  0.98310500  0.17036500  0.59224000  1
  C  C25  1  0.98310800  0.17036200  0.69219600  1
  C  C26  1  0.98309400  0.17036500  0.30790000  1
  C  C27  1  0.10005000  0.99364100  0.59629700  1
  C  C28  1  0.15130700  0.06013400  0.64923500  1
  C  C29  1  0.20741200  0.97551700  0.69545800  1
  C  C30  1  0.13965200  0.78219100  0.00000900  1
  C  C31  1  0.20449500  0.68440300  0.99998700  1
  C  C32  1  0.28134000  0.73446800  0.99993200  1
  C  C33  1  0.59274500  0.93550700  0.00000600  1
  C  C34  1  0.54432400  0.83445500  0.99998200  1
  C  C35  1  0.59681200  0.72176100  0.99993100  1
  N  N1  1  0.98309100  0.17036400  0.22822600  1
  N  N2  1  0.98311200  0.17036500  0.77187700  1
  O  O1  1  0.10407400  0.16039100  0.92682900  1
  O  O2  1  0.86213000  0.18035100  0.92681600  1
  O  O3  1  0.98868300  0.98872100  0.92682600  1
  O  O4  1  0.97752100  0.35202100  0.92681900  1
  O  O5  1  0.98867400  0.98871800  0.07328300  1
  O  O6  1  0.86212100  0.18034800  0.07327300  1
  O  O7  1  0.10406600  0.16038800  0.07328700  1
  O  O8  1  0.97751300  0.35201800  0.07327600  1
