# Generated by REPEAT Assigner based on pymatgen
data_DB5-hypotheticalMOF_7951_1_1_0_0_17_0
_audit_creation_date              2022-05-24
_audit_creation_method            REPEAT_Assigner
_cell_length_a                    8.497374
_cell_length_b                    17.077402
_cell_length_c                    17.077404
_cell_angle_alpha                 90.023108
_cell_angle_beta                  89.996537
_cell_angle_gamma                 89.987778
_cell_volume                      2478.154289
_symmetry_space_group_name_H-M    P1
_symmetry_Int_Tables_number       1
loop_
    _symmetry_equiv_pos_site_id
    _symmetry_equiv_pos_as_xyz
    1  x,y,z
loop_
    _atom_site_type_symbol
    _atom_site_label
    _atom_site_fract_x
    _atom_site_fract_y
    _atom_site_fract_z
    _atom_type_partial_charge
    Zn  Zn1  0.891988  0.312640  0.800070  1.327090
    Zn  Zn2  0.391988  0.812640  0.300070  1.327103
    Zn  Zn3  0.628173  0.443874  0.800126  1.304777
    Zn  Zn4  0.128173  0.943874  0.300126  1.304789
    Zn  Zn5  0.628207  0.312627  0.931301  1.304846
    Zn  Zn6  0.128207  0.812627  0.431301  1.304848
    Zn  Zn7  0.891897  0.443868  0.931370  1.308492
    Zn  Zn8  0.391897  0.943868  0.431370  1.308493
    O   O1   0.760066  0.378252  0.865717  -1.616412
    O   O2   0.260066  0.878252  0.365717  -1.616423
    O   O3   0.857016  0.330056  0.690230  -0.616188
    O   O4   0.357016  0.830056  0.190230  -0.616220
    O   O5   0.407415  0.426461  0.817521  -0.606808
    O   O6   0.907415  0.926461  0.317521  -0.606815
    O   O7   0.663251  0.202782  0.913841  -0.623680
    O   O8   0.163251  0.702782  0.413841  -0.623684
    O   O9   0.663193  0.426474  0.690271  -0.623386
    O   O10  0.163193  0.926474  0.190271  -0.623411
    O   O11  0.857049  0.202791  0.817426  -0.617007
    O   O12  0.357049  0.702791  0.317426  -0.617009
    O   O13  0.407440  0.330034  0.913895  -0.607098
    O   O14  0.907440  0.830034  0.413895  -0.607100
    O   O15  0.663162  0.330028  0.041157  -0.542536
    O   O16  0.163162  0.830028  0.541157  -0.542540
    O   O17  0.112671  0.426463  0.913958  -0.624353
    O   O18  0.612671  0.926463  0.413958  -0.624353
    O   O19  0.856894  0.426450  0.041208  -0.570127
    O   O20  0.356894  0.926450  0.541208  -0.570122
    O   O21  0.112738  0.330050  0.817492  -0.609238
    O   O22  0.612738  0.830050  0.317492  -0.609237
    O   O23  0.663104  0.553720  0.817588  -0.541805
    O   O24  0.163104  0.053720  0.317588  -0.541804
    O   O25  0.856861  0.553716  0.914012  -0.571343
    O   O26  0.356861  0.053716  0.414012  -0.571326
    C   C1   0.760003  0.582200  0.865792  0.392131
    C   C2   0.260003  0.082200  0.365792  0.392115
    C   C3   0.760029  0.669450  0.865753  0.247961
    C   C4   0.260029  0.169450  0.365753  0.247954
    C   C5   0.760023  0.378238  0.069664  0.388253
    C   C6   0.260023  0.878238  0.569664  0.388254
    C   C7   0.760042  0.378251  0.156914  0.256695
    C   C8   0.260042  0.878251  0.656914  0.256692
    C   C9   0.760111  0.378267  0.660972  0.526584
    C   C10  0.260111  0.878267  0.160972  0.526622
    C   C11  0.760130  0.378273  0.573723  0.300203
    C   C12  0.260130  0.878273  0.073723  0.300230
    C   C13  0.171547  0.378253  0.865722  0.609800
    C   C14  0.671547  0.878253  0.365722  0.609799
    C   C15  0.350191  0.378262  0.865721  0.600272
    C   C16  0.850191  0.878262  0.365721  0.600277
    C   C17  0.760164  0.173508  0.865619  0.531465
    C   C18  0.260164  0.673508  0.365619  0.531459
    C   C19  0.760206  0.086258  0.865578  0.292480
    C   C20  0.260206  0.586258  0.365578  0.292504
    C   C21  0.659248  0.710416  0.815494  -0.234954
    C   C22  0.159248  0.210416  0.315494  -0.234944
    C   C23  0.659289  0.792397  0.815455  -0.134701
    C   C24  0.159289  0.292397  0.315455  -0.134701
    C   C25  0.760103  0.833409  0.865681  0.093750
    C   C26  0.260103  0.333409  0.365681  0.093758
    C   C27  0.860895  0.792437  0.915942  -0.113273
    C   C28  0.360895  0.292437  0.415942  -0.113280
    C   C29  0.860861  0.710458  0.915976  -0.240352
    C   C30  0.360861  0.210458  0.415976  -0.240340
    C   C31  0.860955  0.963307  0.915870  -0.116727
    C   C32  0.360955  0.463307  0.415870  -0.116693
    C   C33  0.860986  0.045291  0.915837  -0.269452
    C   C34  0.360986  0.545291  0.415837  -0.269474
    C   C35  0.659382  0.045246  0.815349  -0.286181
    C   C36  0.159382  0.545246  0.315349  -0.286189
    C   C37  0.659349  0.963267  0.815382  -0.082812
    C   C38  0.159349  0.463267  0.315382  -0.082808
    C   C39  0.760139  0.922300  0.865645  0.055408
    C   C40  0.260139  0.422300  0.365645  0.055377
    C   C41  0.860756  0.428533  0.197910  -0.248767
    C   C42  0.360756  0.928533  0.697910  -0.248765
    C   C43  0.860781  0.428535  0.279891  -0.107059
    C   C44  0.360781  0.928535  0.779891  -0.107049
    C   C45  0.760083  0.378257  0.320874  0.094972
    C   C46  0.260083  0.878257  0.820874  0.094947
    C   C47  0.659364  0.327969  0.279872  -0.134001
    C   C48  0.159364  0.827969  0.779872  -0.134013
    C   C49  0.659348  0.327964  0.197893  -0.239407
    C   C50  0.159348  0.827964  0.697893  -0.239399
    C   C51  0.659402  0.327985  0.450742  -0.073261
    C   C52  0.159402  0.827985  0.950742  -0.073311
    C   C53  0.659416  0.327991  0.532727  -0.292526
    C   C54  0.159416  0.827991  0.032727  -0.292532
    C   C55  0.860835  0.428556  0.532740  -0.274310
    C   C56  0.360835  0.928556  0.032740  -0.274315
    C   C57  0.860819  0.428551  0.450761  -0.110834
    C   C58  0.360819  0.928551  0.950761  -0.110907
    C   C59  0.760098  0.378263  0.409765  0.046218
    C   C60  0.260098  0.878263  0.909765  0.046316
    H   H1   0.577147  0.677029  0.774597  0.143024
    H   H2   0.077147  0.177029  0.274597  0.143019
    H   H3   0.942751  0.469478  0.164548  0.162007
    H   H4   0.442751  0.969478  0.664548  0.162008
    H   H5   0.943034  0.929955  0.956797  0.135183
    H   H6   0.443034  0.429955  0.456797  0.135180
    H   H7   0.942807  0.469495  0.417394  0.134316
    H   H8   0.442807  0.969495  0.917394  0.134327
    H   H9   0.577381  0.287029  0.313247  0.128370
    H   H10  0.077381  0.787029  0.813247  0.128372
    H   H11  0.577320  0.078605  0.774420  0.147510
    H   H12  0.077320  0.578605  0.274420  0.147513
    H   H13  0.942929  0.677104  0.956902  0.160610
    H   H14  0.442929  0.177104  0.456902  0.160601
    H   H15  0.942850  0.469499  0.566122  0.139894
    H   H16  0.442850  0.969499  0.066122  0.139913
    H   H17  0.942986  0.825836  0.956834  0.084102
    H   H18  0.442986  0.325836  0.456834  0.084100
    H   H19  0.577398  0.287028  0.417366  0.083279
    H   H20  0.077398  0.787028  0.917366  0.083292
    H   H21  0.577345  0.287015  0.164515  0.144351
    H   H22  0.077345  0.787015  0.664515  0.144354
    H   H23  0.942791  0.469481  0.313266  0.081551
    H   H24  0.442791  0.969481  0.813266  0.081549
    H   H25  0.577437  0.287041  0.566093  0.148667
    H   H26  0.077437  0.787041  0.066093  0.148666
    H   H27  0.577222  0.825748  0.774529  0.127980
    H   H28  0.077222  0.325748  0.274529  0.127979
    H   H29  0.577251  0.929875  0.774489  0.087313
    H   H30  0.077251  0.429875  0.274489  0.087319
    H   H31  0.943108  0.078682  0.956721  0.139041
    H   H32  0.443108  0.578682  0.456721  0.139043
