# generated using pymatgen
data_Zn2H42C47(NO4)2
_symmetry_space_group_name_H-M   'P 1'
_cell_length_a   16.10930100
_cell_length_b   16.10930100
_cell_length_c   15.18622900
_cell_angle_alpha   89.99483300
_cell_angle_beta   89.99936200
_cell_angle_gamma   83.46148100
_symmetry_Int_Tables_number   1
_chemical_formula_structural   Zn2H42C47(NO4)2
_chemical_formula_sum   'Zn2 H42 C47 N2 O8'
_cell_volume   3915.33792687
_cell_formula_units_Z   1
loop_
 _symmetry_equiv_pos_site_id
 _symmetry_equiv_pos_as_xyz
  1  'x, y, z'
loop_
 _atom_site_type_symbol
 _atom_site_label
 _atom_site_symmetry_multiplicity
 _atom_site_fract_x
 _atom_site_fract_y
 _atom_site_fract_z
 _atom_site_occupancy
  Zn  Zn1  1  0.98209000  0.11351400  0.09652800  1
  Zn  Zn2  1  0.98210100  0.11351600  0.90356400  1
  H  H1  1  0.42145400  0.97471500  0.00006500  1
  H  H2  1  0.08469200  0.01097200  0.41642600  1
  H  H3  1  0.12089700  0.67414900  0.00005400  1
  H  H4  1  0.08469400  0.01096900  0.58366700  1
  H  H5  1  0.82942500  0.20166500  0.36809600  1
  H  H6  1  0.89397700  0.26615100  0.36810200  1
  H  H7  1  0.78472500  0.24634900  0.50008300  1
  H  H8  1  0.84925300  0.31084800  0.50010700  1
  H  H9  1  0.78787400  0.37229500  0.38226600  1
  H  H10  1  0.72332700  0.30780200  0.38226200  1
  H  H11  1  0.72440900  0.37124200  0.45898400  1
  H  H12  1  0.83738400  0.78104400  0.99985100  1
  H  H13  1  0.79421600  0.71444100  0.05094300  1
  H  H14  1  0.81097400  0.71962600  0.87352600  1
  H  H15  1  0.76779000  0.65302600  0.92458900  1
  H  H16  1  0.67308100  0.75252700  0.97544900  1
  H  H17  1  0.71625800  0.81912700  0.92435900  1
  H  H18  1  0.67322700  0.75242200  0.87329100  1
  H  H19  1  0.14124900  0.46824300  0.94902800  1
  H  H20  1  0.14116900  0.46826100  0.05118000  1
  H  H21  1  0.20330100  0.58455300  0.94903300  1
  H  H22  1  0.20324700  0.58458400  0.05117600  1
  H  H23  1  0.28358400  0.46294900  0.05126700  1
  H  H24  1  0.28365600  0.46293400  0.94911400  1
  H  H25  1  0.32667600  0.52963300  0.00020400  1
  H  H26  1  0.87950300  0.21604900  0.58367000  1
  H  H27  1  0.54273000  0.25231700  0.00003400  1
  H  H28  1  0.57878800  0.97747000  0.00005600  1
  H  H29  1  0.79167100  0.56185200  0.94901800  1
  H  H30  1  0.79172900  0.56189200  0.05117000  1
  H  H31  1  0.86818300  0.43805700  0.94901400  1
  H  H32  1  0.86824100  0.43806600  0.05115800  1
  H  H33  1  0.73001700  0.44093800  0.05125100  1
  H  H34  1  0.72996600  0.44090400  0.94909700  1
  H  H35  1  0.77086600  0.36342200  0.00018300  1
  H  H36  1  0.33657800  0.27250800  0.94920100  1
  H  H37  1  0.40319600  0.31568000  0.00025400  1
  H  H38  1  0.28825400  0.22764400  0.07552600  1
  H  H39  1  0.35484700  0.27081900  0.12660000  1
  H  H40  1  0.29950300  0.39420600  0.07580900  1
  H  H41  1  0.23289000  0.35102700  0.02475300  1
  H  H42  1  0.23304200  0.35083100  0.12690400  1
  C  C1  1  0.83009000  0.11962600  0.00003700  1
  C  C2  1  0.73779400  0.11801100  0.00003200  1
  C  C3  1  0.51552200  0.19001800  0.00003600  1
  C  C4  1  0.42880100  0.18849400  0.00004200  1
  C  C5  1  0.44867600  0.03700600  0.00005000  1
  C  C6  1  0.53539400  0.03853000  0.00005100  1
  C  C7  1  0.56881500  0.11503900  0.00003900  1
  C  C8  1  0.39537600  0.11199000  0.00004500  1
  C  C9  1  0.30135000  0.11033700  0.00005100  1
  C  C10  1  0.66284700  0.11669300  0.00003500  1
  C  C11  1  0.98820600  0.96150900  0.00005600  1
  C  C12  1  0.98659100  0.86921400  0.00005700  1
  C  C13  1  0.05859900  0.64694100  0.00004700  1
  C  C14  1  0.05707500  0.56022100  0.00004000  1
  C  C15  1  0.90558600  0.58009500  0.00003400  1
  C  C16  1  0.90711100  0.66681400  0.00003500  1
  C  C17  1  0.98362000  0.70023400  0.00004600  1
  C  C18  1  0.98057100  0.52679500  0.00003800  1
  C  C19  1  0.97891800  0.43276900  0.00003000  1
  C  C20  1  0.98527300  0.79426600  0.00005200  1
  C  C21  1  0.13410100  0.10740400  0.00005300  1
  C  C22  1  0.22639700  0.10901900  0.00005200  1
  C  C23  1  0.97598400  0.26552100  0.00003400  1
  C  C24  1  0.97760000  0.35781600  0.00002700  1
  C  C25  1  0.03864400  0.05699400  0.45395000  1
  C  C26  1  0.03864700  0.05699200  0.54614000  1
  C  C27  1  0.92554700  0.17003200  0.54613500  1
  C  C28  1  0.92554100  0.17003000  0.45394700  1
  C  C29  1  0.98209400  0.11351100  0.40785700  1
  C  C30  1  0.98210300  0.11351200  0.59223500  1
  C  C31  1  0.98210500  0.11351000  0.69219100  1
  C  C32  1  0.98209100  0.11351200  0.30789400  1
  C  C33  1  0.86410300  0.23148900  0.40405400  1
  C  C34  1  0.81459700  0.28100600  0.46414700  1
  C  C35  1  0.75800000  0.33763400  0.41821800  1
  C  C36  1  0.82563600  0.72458400  0.99989700  1
  C  C37  1  0.77956100  0.70947700  0.92455800  1
  C  C38  1  0.70450100  0.76267000  0.92440300  1
  C  C39  1  0.13857200  0.50249800  0.00008900  1
  C  C40  1  0.20589600  0.55033100  0.00012000  1
  C  C41  1  0.28098700  0.49718600  0.00017500  1
  C  C42  1  0.82260700  0.54364600  0.00007700  1
  C  C43  1  0.83731800  0.45629500  0.00010300  1
  C  C44  1  0.76089600  0.42269200  0.00015700  1
  C  C45  1  0.37089900  0.26987500  0.00021400  1
  C  C46  1  0.32054800  0.27343700  0.07557500  1
  C  C47  1  0.26720600  0.34840000  0.07576900  1
  N  N1  1  0.98208800  0.11351100  0.22822000  1
  N  N2  1  0.98210900  0.11351200  0.77187100  1
  O  O1  1  0.10313100  0.10686600  0.92682400  1
  O  O2  1  0.86106900  0.12016500  0.92681000  1
  O  O3  1  0.98874900  0.99248500  0.92682600  1
  O  O4  1  0.97545000  0.23454700  0.92680800  1
  O  O5  1  0.98874100  0.99248300  0.07328400  1
  O  O6  1  0.86106000  0.12016400  0.07326700  1
  O  O7  1  0.10312200  0.10686400  0.07328200  1
  O  O8  1  0.97544100  0.23454500  0.07326500  1
