data_DB5-hypotheticalMOF_12597_1_0_0_14_9_5_repeat
_audit_creation_date              2024-02-23
_audit_creation_method            'Materials Studio'
_symmetry_space_group_name_H-M    'P1'
_symmetry_Int_Tables_number       1
_symmetry_cell_setting            triclinic
loop_
_symmetry_equiv_pos_as_xyz
  x,y,z
_cell_length_a                    12.7594
_cell_length_b                    15.2998
_cell_length_c                    12.7594
_cell_angle_alpha                 99.6510
_cell_angle_beta                  89.9804
_cell_angle_gamma                 80.3506
loop_
_atom_site_label
_atom_site_type_symbol
_atom_site_fract_x
_atom_site_fract_y
_atom_site_fract_z
_atom_site_U_iso_or_equiv
_atom_site_adp_type
_atom_site_occupancy
Zn1    Zn    0.67856   0.64100   0.33360   0.00000  Uiso   1.00
Zn2    Zn    0.70882   0.49015   0.47885   0.00000  Uiso   1.00
Zn3    Zn    0.50286   0.64095   0.50925   0.00000  Uiso   1.00
Zn4    Zn    0.53321   0.49022   0.30323   0.00000  Uiso   1.00
O1     O     0.60586   0.56558   0.40623   0.00000  Uiso   1.00
O2     O     0.82960   0.62098   0.35286   0.00000  Uiso   1.00
O3     O     0.68147   0.51011   0.62990   0.00000  Uiso   1.00
O4     O     0.50081   0.76716   0.51139   0.00000  Uiso   1.00
O5     O     0.85183   0.51015   0.45958   0.00000  Uiso   1.00
O6     O     0.62989   0.76720   0.38234   0.00000  Uiso   1.00
O7     O     0.53015   0.62090   0.65223   0.00000  Uiso   1.00
O8     O     0.35987   0.62097   0.48193   0.00000  Uiso   1.00
O9     O     0.55252   0.51027   0.16024   0.00000  Uiso   1.00
O10    O     0.38216   0.51022   0.33057   0.00000  Uiso   1.00
O11    O     0.65931   0.62104   0.18256   0.00000  Uiso   1.00
O12    O     0.71089   0.36395   0.43012   0.00000  Uiso   1.00
O13    O     0.58187   0.36400   0.30109   0.00000  Uiso   1.00
C1     C     0.33289   0.56560   0.40625   0.00000  Uiso   1.00
C2     C     0.21612   0.56558   0.40623   0.00000  Uiso   1.00
C3     C     0.65299   0.33125   0.35899   0.00000  Uiso   1.00
C4     C     0.67324   0.23101   0.33874   0.00000  Uiso   1.00
C5     C     0.06318   0.50782   0.32749   0.00000  Uiso   1.00
C6     C     0.17290   0.50783   0.32750   0.00000  Uiso   1.00
C7     C     0.14961   0.62332   0.48495   0.00000  Uiso   1.00
C8     C     0.03989   0.62331   0.48494   0.00000  Uiso   1.00
C9     C     0.46178   0.94807   0.55058   0.00000  Uiso   1.00
C10    C     0.44275   0.04225   0.56960   0.00000  Uiso   1.00
C11    C     0.50037   0.08945   0.51189   0.00000  Uiso   1.00
C12    C     0.57703   0.04244   0.43515   0.00000  Uiso   1.00
C13    C     0.59606   0.94825   0.41612   0.00000  Uiso   1.00
C14    C     0.63465   0.08963   0.37743   0.00000  Uiso   1.00
C15    C     0.71131   0.04263   0.30069   0.00000  Uiso   1.00
C16    C     0.73034   0.94844   0.28167   0.00000  Uiso   1.00
C17    C     0.67272   0.90125   0.33938   0.00000  Uiso   1.00
C18    C     0.61562   0.18382   0.39646   0.00000  Uiso   1.00
C19    C     0.74990   0.18401   0.26200   0.00000  Uiso   1.00
C20    C     0.76893   0.08982   0.24298   0.00000  Uiso   1.00
C21    C     0.87990   0.56556   0.40621   0.00000  Uiso   1.00
C22    C     0.99668   0.56556   0.40621   0.00000  Uiso   1.00
C23    C     0.60593   0.56567   0.13222   0.00000  Uiso   1.00
C24    C     0.60595   0.56570   0.01545   0.00000  Uiso   1.00
C25    C     0.55859   0.80082   0.45364   0.00000  Uiso   1.00
C26    C     0.53844   0.90107   0.47384   0.00000  Uiso   1.00
C27    C     0.66156   0.62339   0.97221   0.00000  Uiso   1.00
C28    C     0.66157   0.62343   0.86249   0.00000  Uiso   1.00
C29    C     0.55036   0.50808   0.83927   0.00000  Uiso   1.00
C30    C     0.55035   0.50805   0.94898   0.00000  Uiso   1.00
C31    C     0.60585   0.56556   0.67920   0.00000  Uiso   1.00
C32    C     0.60598   0.56578   0.79602   0.00000  Uiso   1.00
H1     H     0.22705   0.46081   0.26341   0.00000  Uiso   1.00
H2     H     0.18480   0.67034   0.54906   0.00000  Uiso   1.00
N1     N     0.96815   0.68558   0.56986   0.00000  Uiso   1.00
H3     H     0.97428   0.75001   0.56641   0.00000  Uiso   1.00
H4     H     0.89213   0.67673   0.55786   0.00000  Uiso   1.00
N2     N     0.85160   0.03913   0.16020   0.00000  Uiso   1.00
H5     H     0.92336   0.05556   0.17977   0.00000  Uiso   1.00
H6     H     0.85482   0.97232   0.15694   0.00000  Uiso   1.00
H7     H     0.79681   0.22243   0.21500   0.00000  Uiso   1.00
H8     H     0.79276   0.91018   0.21918   0.00000  Uiso   1.00
N3     N     0.72153   0.68557   0.04389   0.00000  Uiso   1.00
H9     H     0.77758   0.64890   0.08201   0.00000  Uiso   1.00
H10    H     0.75669   0.72211   0.99977   0.00000  Uiso   1.00
H11    H     0.70685   0.67041   0.82729   0.00000  Uiso   1.00
H12    H     0.55320   0.22208   0.45894   0.00000  Uiso   1.00
H13    H     0.48487   0.16614   0.52738   0.00000  Uiso   1.00
H14    H     0.38033   0.08052   0.63208   0.00000  Uiso   1.00
H15    H     0.50509   0.46114   0.78514   0.00000  Uiso   1.00
H16    H     0.41487   0.90963   0.59756   0.00000  Uiso   1.00
H17    H     0.50506   0.46107   0.98419   0.00000  Uiso   1.00
H18    H     0.02800   0.46079   0.26338   0.00000  Uiso   1.00
H19    H     0.68822   0.82456   0.32391   0.00000  Uiso   1.00
