# Generated by REPEAT Assigner based on pymatgen
data_DB5-hypotheticalMOF_13096_1_0_0_14_25_7
_audit_creation_date              2022-05-24
_audit_creation_method            REPEAT_Assigner
_cell_length_a                    15.297327
_cell_length_b                    19.805407
_cell_length_c                    19.805399
_cell_angle_alpha                 89.984884
_cell_angle_beta                  99.647572
_cell_angle_gamma                 99.704146
_cell_volume                      5828.511958
_symmetry_space_group_name_H-M    P1
_symmetry_Int_Tables_number       1
loop_
    _symmetry_equiv_pos_site_id
    _symmetry_equiv_pos_as_xyz
    1  x,y,z
loop_
    _atom_site_type_symbol
    _atom_site_label
    _atom_site_fract_x
    _atom_site_fract_y
    _atom_site_fract_z
    _atom_type_partial_charge
    Zn  Zn1  0.640763  0.988071  0.570688  1.231117
    Zn  Zn2  0.489892  0.968401  0.664295  1.237415
    Zn  Zn3  0.640742  0.874889  0.683857  1.263345
    Zn  Zn4  0.489951  0.855267  0.551153  1.246538
    O   O1   0.565337  0.921657  0.617498  -1.545263
    O   O2   0.620734  0.080177  0.583094  -0.552199
    O   O3   0.509869  0.955976  0.761603  -0.577486
    O   O4   0.766991  0.906346  0.685208  -0.596890
    O   O5   0.509890  0.065725  0.651867  -0.537306
    O   O6   0.767007  0.989501  0.602063  -0.591356
    O   O7   0.620697  0.887273  0.775975  -0.562213
    O   O8   0.620754  0.777571  0.666265  -0.592316
    O   O9   0.509990  0.872904  0.459032  -0.558251
    O   O10  0.509969  0.763155  0.568767  -0.593625
    O   O11  0.620791  0.970475  0.473384  -0.550708
    O   O12  0.363653  0.936950  0.632924  -0.577908
    O   O13  0.363697  0.853831  0.549799  -0.557890
    C   C1   0.565365  0.745805  0.617518  0.549962
    C   C2   0.565355  0.670571  0.617508  0.089808
    C   C3   0.622970  0.642740  0.581619  0.111575
    C   C4   0.622965  0.572051  0.581616  -0.333951
    C   C5   0.565341  0.529194  0.617498  0.296889
    C   C6   0.507724  0.557030  0.653392  -0.226031
    C   C7   0.507734  0.627719  0.653399  -0.196861
    C   C8   0.507683  0.271952  0.653366  0.019739
    C   C9   0.507676  0.201259  0.653354  -0.012929
    C   C10  0.622915  0.216284  0.581583  -0.215802
    C   C11  0.622925  0.286972  0.581590  -0.174359
    C   C12  0.565311  0.314803  0.617486  0.075212
    C   C13  0.565318  0.391452  0.617490  -0.049655
    C   C14  0.565329  0.452545  0.617490  -0.215318
    C   C15  0.330941  0.891145  0.587104  0.499736
    C   C16  0.230665  0.878154  0.574079  0.016640
    C   C17  0.948040  0.014787  0.710362  -0.056591
    C   C18  0.042254  0.026992  0.722603  0.061063
    C   C19  0.089361  0.989784  0.685473  -0.377437
    C   C20  0.042245  0.940367  0.636100  0.239486
    C   C21  0.948022  0.928157  0.623861  -0.101470
    C   C22  0.089344  0.903154  0.598972  -0.167960
    C   C23  0.042228  0.853737  0.549599  0.166852
    C   C24  0.948014  0.841530  0.537362  -0.330369
    C   C25  0.900906  0.878738  0.574492  0.041573
    C   C26  0.183567  0.915365  0.611211  0.082633
    C   C27  0.183549  0.828735  0.524710  -0.288543
    C   C28  0.089335  0.816529  0.512469  0.029903
    C   C29  0.800648  0.952307  0.647996  0.618709
    C   C30  0.900924  0.965368  0.660993  -0.029411
    C   C31  0.565399  0.921695  0.440964  0.513340
    C   C32  0.565426  0.921711  0.365735  -0.050145
    C   C33  0.565308  0.098196  0.617478  0.447688
    C   C34  0.565296  0.173426  0.617469  0.095427
    C   C35  0.623140  0.885950  0.337876  0.099382
    C   C36  0.623158  0.885962  0.267190  -0.331109
    C   C37  0.565465  0.921739  0.224365  0.107732
    C   C38  0.507745  0.957500  0.252228  -0.052273
    C   C39  0.507724  0.957484  0.322912  0.011638
    C   C40  0.507829  0.957565  0.967166  0.239847
    C   C41  0.507857  0.957580  0.896477  -0.392867
    C   C42  0.623263  0.886042  0.911443  -0.409039
    C   C43  0.623242  0.886026  0.982127  0.234771
    C   C44  0.565519  0.921785  0.009984  -0.156420
    C   C45  0.565499  0.921771  0.086630  -0.071511
    C   C46  0.565489  0.921757  0.147720  -0.093344
    C   C47  0.565340  0.921667  0.793355  0.469805
    C   C48  0.565567  0.921815  0.868616  0.243436
    H   H1   0.669830  0.193616  0.552357  0.157029
    C   C49  0.444292  0.154118  0.692832  -0.203821
    H   H2   0.409987  0.180817  0.714218  0.054348
    H   H3   0.404933  0.121432  0.661886  0.090140
    H   H4   0.478862  0.131030  0.726759  0.089710
    C   C50  0.235388  0.969715  0.665519  -0.178769
    H   H5   0.298248  0.971655  0.667498  0.110172
    H   H6   0.220003  0.013194  0.653581  0.061282
    H   H7   0.219892  0.957818  0.708992  0.063218
    C   C51  0.094075  0.081350  0.776904  -0.066323
    H   H8   0.052528  0.101766  0.797260  0.037334
    H   H9   0.130779  0.060234  0.811186  0.028981
    H   H10  0.130880  0.115596  0.755762  0.028573
    C   C52  0.896222  0.055711  0.751196  0.038325
    H   H11  0.833362  0.041363  0.736832  -0.011504
    H   H12  0.911611  0.047831  0.798682  0.023018
    H   H13  0.911715  0.103192  0.743256  0.021426
    C   C53  0.444308  0.302557  0.692847  -0.063540
    H   H14  0.409984  0.266906  0.714209  0.045133
    H   H15  0.478873  0.334616  0.726781  0.038874
    H   H16  0.404954  0.325022  0.661902  0.038955
    H   H17  0.166075  0.999724  0.695444  0.219009
    H   H18  0.909655  0.801283  0.497167  0.150950
    H   H19  0.669879  0.549394  0.552390  0.171016
    H   H20  0.824190  0.868804  0.564526  0.044475
    C   C54  0.037502  0.762170  0.458166  -0.067262
    H   H21  0.974644  0.760226  0.456201  0.027625
    H   H22  0.052989  0.774051  0.414691  0.040237
    H   H23  0.052885  0.718689  0.470115  0.039046
    H   H24  0.221903  0.798435  0.494477  0.171129
    C   C55  0.444286  0.996855  0.205123  -0.027154
    H   H25  0.452571  0.991750  0.159036  0.014632
    H   H26  0.383667  0.979054  0.208851  0.039985
    H   H27  0.457486  0.044051  0.218416  0.040841
    C   C56  0.686701  0.846673  0.029234  -0.123973
    H   H28  0.678427  0.851789  0.075322  0.047328
    H   H29  0.673509  0.799480  0.015944  0.047271
    H   H30  0.747323  0.864480  0.025505  0.049083
    H   H31  0.460809  0.522131  0.682611  0.148671
    C   C57  0.686595  0.846589  0.384976  -0.145258
    H   H32  0.720961  0.825286  0.358257  0.049675
    H   H33  0.725894  0.877587  0.417645  0.063421
    H   H34  0.652068  0.812594  0.408075  0.068615
    H   H35  0.670151  0.856839  0.244510  0.179610
    C   C58  0.444238  0.996821  0.353558  -0.016897
    H   H36  0.409886  0.018135  0.317931  0.023342
    H   H37  0.404927  0.965802  0.376040  0.028281
    H   H38  0.478738  0.030804  0.385602  0.026532
    H   H39  0.460819  0.650378  0.682624  0.142419
    H   H40  0.670262  0.856924  0.888753  0.185202
    H   H41  0.460874  0.986715  0.861610  0.170993
    C   C59  0.444341  0.996899  0.997804  -0.172791
    H   H42  0.452579  0.991762  0.046033  0.077299
    H   H43  0.457538  0.044098  0.987926  0.054270
    H   H44  0.383730  0.979094  0.978361  0.059435
    C   C60  0.686358  0.689876  0.542148  -0.218931
    H   H45  0.720676  0.663174  0.520779  0.078059
    H   H46  0.651803  0.712967  0.508220  0.082332
    H   H47  0.725718  0.722561  0.573102  0.078970
    H   H48  0.669846  0.321863  0.552368  0.135502
