# Generated by REPEAT Assigner based on pymatgen
data_DB5-hypotheticalMOF_18105_1_0_1_21_2_11
_audit_creation_date              2022-05-24
_audit_creation_method            REPEAT_Assigner
_cell_length_a                    9.065218
_cell_length_b                    15.186229
_cell_length_c                    9.065218
_cell_angle_alpha                 89.997568
_cell_angle_beta                  94.984115
_cell_angle_gamma                 90.004035
_cell_volume                      1243.257797
_symmetry_space_group_name_H-M    P1
_symmetry_Int_Tables_number       1
loop_
    _symmetry_equiv_pos_site_id
    _symmetry_equiv_pos_as_xyz
    1  x,y,z
loop_
    _atom_site_type_symbol
    _atom_site_label
    _atom_site_fract_x
    _atom_site_fract_y
    _atom_site_fract_z
    _atom_type_partial_charge
    O   O1   0.960400  0.073227  0.783644  -0.641643
    O   O2   0.531116  0.073228  0.765898  -0.624123
    O   O3   0.754631  0.073226  0.989413  -0.642987
    O   O4   0.736885  0.073229  0.560128  -0.624895
    O   O5   0.754614  0.926768  0.989419  -0.658416
    O   O6   0.531098  0.926771  0.765903  -0.618888
    O   O7   0.960383  0.926770  0.783650  -0.656792
    Zn  Zn1  0.745738  0.903517  0.774777  0.952663
    Zn  Zn2  0.745761  0.096481  0.774770  0.976038
    O   O8   0.736867  0.926772  0.560134  -0.619709
    C   C1   0.476120  0.999999  0.767606  0.881492
    C   C2   0.312277  0.000000  0.772706  -0.225783
    N   N1   0.745733  0.771824  0.774783  -0.160633
    C   C3   0.844747  0.453905  0.873722  -0.244324
    C   C4   0.844742  0.546094  0.873721  -0.128521
    C   C5   0.646759  0.546086  0.675826  0.268017
    C   C6   0.646771  0.453898  0.675821  -0.301032
    C   C7   0.745763  0.407810  0.774777  0.276520
    C   C8   0.745747  0.592188  0.774782  0.074411
    C   C9   0.745742  0.692144  0.774781  0.044855
    C   C10  0.745771  0.307847  0.774777  0.062212
    C   C11  0.015378  0.000000  0.781941  0.939148
    C   C12  0.179221  0.000005  0.776842  -0.237424
    C   C13  0.752917  0.999998  0.044403  0.942748
    C   C14  0.747817  0.000003  0.208245  -0.238460
    N   N2   0.745777  0.228173  0.774776  -0.101597
    C   C15  0.738582  0.000001  0.505145  0.884979
    C   C16  0.743681  0.000003  0.341302  -0.226945
    H   H1   0.925354  0.416382  0.954296  0.178880
    O   O9   0.550646  0.590995  0.579858  -0.327616
    C   C17  0.462932  0.733011  0.492110  -0.447290
    C   C18  0.571841  0.682265  0.600893  0.354537
    H   H2   0.480050  0.806812  0.509057  0.159338
    H   H3   0.344466  0.714937  0.512982  0.120230
    H   H4   0.483722  0.714843  0.373670  0.120722
    H   H5   0.551185  0.700407  0.719374  0.059063
    H   H6   0.690269  0.700344  0.579892  0.058689
    H   H7   0.925345  0.583622  0.954289  0.169493
    H   H8   0.566167  0.416365  0.595241  0.203042
