# generated using pymatgen
data_Zn2H40C53(NO4)2
_symmetry_space_group_name_H-M   'P 1'
_cell_length_a   14.85356700
_cell_length_b   13.93027700
_cell_length_c   12.83794200
_cell_angle_alpha   90.00365800
_cell_angle_beta   89.23193500
_cell_angle_gamma   90.00424500
_symmetry_Int_Tables_number   1
_chemical_formula_structural   Zn2H40C53(NO4)2
_chemical_formula_sum   'Zn2 H40 C53 N2 O8'
_cell_volume   2656.11513386
_cell_formula_units_Z   1
loop_
 _symmetry_equiv_pos_site_id
 _symmetry_equiv_pos_as_xyz
  1  'x, y, z'
loop_
 _atom_site_type_symbol
 _atom_site_label
 _atom_site_symmetry_multiplicity
 _atom_site_fract_x
 _atom_site_fract_y
 _atom_site_fract_z
 _atom_site_occupancy
  Zn  Zn1  1  0.07728100  0.89476000  0.14341400  1
  Zn  Zn2  1  0.07730600  0.10512200  0.14341900  1
  H  H1  1  0.79929400  0.99996600  0.31969100  1
  H  H2  1  0.24677700  0.99995700  0.43590700  1
  H  H3  1  0.90781400  0.99993500  0.85094000  1
  H  H4  1  0.65533700  0.99997100  0.41105200  1
  H  H5  1  0.95258200  0.99996500  0.48028000  1
  H  H6  1  0.97706300  0.25800900  0.27107700  1
  H  H7  1  0.26665400  0.99993800  0.63208800  1
  H  H8  1  0.74686500  0.99993600  0.86773900  1
  H  H9  1  0.67003100  0.05560500  0.81369200  1
  H  H10  1  0.67003700  0.94424300  0.81370000  1
  H  H11  1  0.88554800  0.99995200  0.96524600  1
  H  H12  1  0.80870900  0.05562300  0.91121200  1
  H  H13  1  0.80871200  0.94426100  0.91122000  1
  H  H14  1  0.86750600  0.99994000  0.56888000  1
  H  H15  1  0.83168500  0.05561700  0.66553800  1
  H  H16  1  0.83169100  0.94425500  0.66552500  1
  H  H17  1  0.48441700  0.99996700  0.40729800  1
  H  H18  1  0.42330400  0.99993600  0.86067500  1
  H  H19  1  0.50305100  0.94425100  0.81004900  1
  H  H20  1  0.50306000  0.05561300  0.81006200  1
  H  H21  1  0.26904900  0.99992900  0.32157300  1
  H  H22  1  0.34588600  0.05561500  0.37561400  1
  H  H23  1  0.34588200  0.94425300  0.37559900  1
  H  H24  1  0.18545300  0.17663300  0.00572100  1
  H  H25  1  0.25450400  0.26016900  0.00702600  1
  H  H26  1  0.17761900  0.26014500  0.92642800  1
  H  H27  1  0.35528500  0.99991800  0.96714300  1
  H  H28  1  0.97700900  0.74184400  0.27108500  1
  H  H29  1  0.91389100  0.67250400  0.35147400  1
  H  H30  1  0.92170900  0.58899000  0.43077400  1
  H  H31  1  0.84483300  0.58898000  0.35016300  1
  H  H32  1  0.92178800  0.40875600  0.34144600  1
  H  H33  1  0.17753200  0.74186500  0.01575000  1
  H  H34  1  0.24069400  0.32738700  0.93535100  1
  H  H35  1  0.30975300  0.41091600  0.93666700  1
  H  H36  1  0.23287400  0.41090300  0.85606000  1
  H  H37  1  0.23281300  0.59112000  0.94537100  1
  H  H38  1  0.27019600  0.99995000  0.76350900  1
  H  H39  1  0.23438800  0.94426100  0.86016100  1
  H  H40  1  0.23438800  0.05562300  0.86017000  1
  C  C1  1  0.91309700  0.99995100  0.15074800  1
  C  C2  1  0.81282700  0.99995700  0.14855900  1
  C  C3  1  0.39149900  0.99993200  0.04487000  1
  C  C4  1  0.38623700  0.99994000  0.23373400  1
  C  C5  1  0.48044500  0.99994300  0.23579300  1
  C  C6  1  0.53018500  0.99994200  0.14238900  1
  C  C7  1  0.48571600  0.99993800  0.04692600  1
  C  C8  1  0.52492100  0.99995700  0.33125400  1
  C  C9  1  0.61913500  0.99996100  0.33333333  1
  C  C10  1  0.66887700  0.99995300  0.23991100  1
  C  C11  1  0.62440200  0.99994800  0.14444500  1
  C  C12  1  0.67414100  0.99994700  0.05104100  1
  C  C13  1  0.62966900  0.99993500  0.95557300  1
  C  C14  1  0.53545700  0.99993000  0.95352100  1
  C  C15  1  0.76308800  0.99995800  0.24196300  1
  C  C16  1  0.76835900  0.99995300  0.05309600  1
  C  C17  1  0.02205900  0.29893100  0.21378500  1
  C  C18  1  0.13257700  0.29894900  0.07304500  1
  C  C19  1  0.13256600  0.39944500  0.07304200  1
  C  C20  1  0.07730200  0.44968800  0.14341200  1
  C  C21  1  0.02204900  0.39943600  0.21378600  1
  C  C22  1  0.18782500  0.44970500  0.00267700  1
  C  C23  1  0.18781700  0.55020700  0.00267100  1
  C  C24  1  0.13254800  0.60045200  0.07303800  1
  C  C25  1  0.07729100  0.55019300  0.14341300  1
  C  C26  1  0.02202700  0.60043700  0.21378300  1
  C  C27  1  0.96676500  0.55018000  0.28415500  1
  C  C28  1  0.96677900  0.44968100  0.28415200  1
  C  C29  1  0.13253400  0.70095100  0.07304100  1
  C  C30  1  0.02201600  0.70094200  0.21378400  1
  C  C31  1  0.24149000  0.99993300  0.13608500  1
  C  C32  1  0.34175900  0.99993300  0.13827500  1
  C  C33  1  0.06759300  0.99993600  0.95387900  1
  C  C34  1  0.05592700  0.99993800  0.83878500  1
  C  C35  1  0.19617300  0.99995000  0.59802900  1
  C  C36  1  0.18521600  0.99995200  0.48988700  1
  C  C37  1  0.02305600  0.99995200  0.51435900  1
  C  C38  1  0.03401300  0.99995000  0.62250000  1
  C  C39  1  0.12057400  0.99994700  0.66433100  1
  C  C40  1  0.13153100  0.99993800  0.77247500  1
  C  C41  1  0.96937200  0.99994500  0.79694400  1
  C  C42  1  0.95841500  0.99994700  0.68880200  1
  C  C43  1  0.08699400  0.99994800  0.33295400  1
  C  C44  1  0.09866000  0.99995200  0.44804800  1
  C  C45  1  0.68438800  0.99993400  0.85283500  1
  C  C46  1  0.82306900  0.99995100  0.95035200  1
  C  C47  1  0.86320500  0.99994400  0.64278200  1
  C  C48  1  0.48653600  0.99992700  0.84851900  1
  C  C49  1  0.33152700  0.99993900  0.33647000  1
  C  C50  1  0.19336300  0.24368500  0.99564500  1
  C  C51  1  0.90598000  0.60545400  0.36155900  1
  C  C52  1  0.24861200  0.39443800  0.92527900  1
  C  C53  1  0.22674200  0.99993800  0.81848900  1
  N  N1  1  0.07727000  0.75119400  0.14341100  1
  N  N2  1  0.07732400  0.24868800  0.14341400  1
  O  O1  1  0.20784900  0.07976400  0.13535600  1
  O  O2  1  0.94675700  0.07978000  0.15148100  1
  O  O3  1  0.07151400  0.07976600  0.99250700  1
  O  O4  1  0.08309300  0.07977700  0.29433000  1
  O  O5  1  0.07149400  0.92010400  0.99250400  1
  O  O6  1  0.94673800  0.92011800  0.15147700  1
  O  O7  1  0.20783000  0.92010200  0.13535300  1
  O  O8  1  0.08307300  0.92011500  0.29432600  1
