# Generated by REPEAT Assigner based on pymatgen
data_DB5-hypotheticalMOF_33002_0_0_2_0_21_7
_audit_creation_date              2022-05-24
_audit_creation_method            REPEAT_Assigner
_cell_length_a                    6.394989
_cell_length_b                    16.109301
_cell_length_c                    14.586319
_cell_angle_alpha                 90.000787
_cell_angle_beta                  90.000822
_cell_angle_gamma                 84.979596
_cell_volume                      1496.900290
_symmetry_space_group_name_H-M    P1
_symmetry_Int_Tables_number       1
loop_
    _symmetry_equiv_pos_site_id
    _symmetry_equiv_pos_as_xyz
    1  x,y,z
loop_
    _atom_site_type_symbol
    _atom_site_label
    _atom_site_fract_x
    _atom_site_fract_y
    _atom_site_fract_z
    _atom_type_partial_charge
    O   O1   0.731520  0.894027  0.923824  -0.604233
    O   O2   0.698108  0.135735  0.923810  -0.604429
    O   O3   0.018881  0.011450  0.923816  -0.556920
    O   O4   0.410747  0.018312  0.923817  -0.559283
    O   O5   0.018885  0.011459  0.076297  -0.558024
    O   O6   0.698113  0.135744  0.076291  -0.609487
    O   O7   0.731525  0.894036  0.076305  -0.607043
    Cu  Cu1  0.714819  0.014891  0.090220  0.932003
    Cu  Cu2  0.714814  0.014880  0.909894  0.920214
    O   O8   0.410752  0.018321  0.076298  -0.559748
    C   C1   0.699464  0.166729  0.000048  0.918789
    C   C2   0.703521  0.259067  0.000043  -0.288824
    C   C3   0.730169  0.863042  0.000064  0.911725
    C   C4   0.726111  0.770704  0.000063  -0.287484
    N   N1   0.714824  0.014892  0.217052  -0.215681
    C   C5   0.096703  0.012811  0.000053  0.616503
    C   C6   0.332935  0.016958  0.000052  0.619350
    N   N2   0.714825  0.014873  0.783062  -0.180691
    C   C7   0.522616  0.479425  0.000054  -0.420385
    C   C8   0.526445  0.566186  0.000060  0.103914
    C   C9   0.907031  0.550340  0.000055  -0.421014
    C   C10  0.903200  0.463581  0.000056  0.102747
    C   C11  0.710986  0.428126  0.000051  0.134989
    C   C12  0.718646  0.601646  0.000056  0.133105
    C   C13  0.722799  0.695716  0.000062  -0.071575
    C   C14  0.706832  0.334050  0.000046  -0.073112
    C   C15  0.856815  0.959840  0.452061  0.151915
    C   C16  0.856820  0.959837  0.548043  -0.307280
    C   C17  0.572828  0.069931  0.548046  -0.232960
    C   C18  0.572834  0.069937  0.452067  -0.092572
    C   C19  0.714825  0.014887  0.404077  0.035213
    C   C20  0.714824  0.014878  0.596038  0.259240
    C   C21  0.714828  0.014876  0.700105  0.072187
    C   C22  0.714824  0.014890  0.300003  0.145430
    H   H1   0.366104  0.450560  0.000056  0.315322
    C   C23  0.319244  0.622615  0.000059  -0.109211
    H   H2   0.349046  0.679364  0.000068  0.069886
    H   H3   0.240427  0.611652  0.946885  0.023735
    H   H4   0.240435  0.611649  0.053239  0.022220
    C   C24  0.110411  0.407144  0.000052  -0.104164
    H   H5   0.080596  0.350397  0.000061  0.070723
    H   H6   0.189227  0.418103  0.946878  0.021439
    H   H7   0.189227  0.418108  0.053231  0.020456
    C   C25  0.013016  0.899295  0.399275  -0.197746
    H   H8   0.097593  0.866517  0.441603  0.078335
    H   H9   0.937867  0.863901  0.361827  0.093351
    H   H10  0.099994  0.930122  0.361841  0.084725
    H   H11  0.457218  0.114751  0.587129  0.165891
    H   H12  0.972443  0.915014  0.587109  0.180773
    H   H13  0.457208  0.114767  0.412995  0.144009
    H   H14  0.063525  0.579219  0.000065  0.313678
