# generated using pymatgen
data_ZnH14C18NO4
_symmetry_space_group_name_H-M   'P 1'
_cell_length_a   10.65455000
_cell_length_b   19.28885700
_cell_length_c   9.73022300
_cell_angle_alpha   89.99345500
_cell_angle_beta   89.99995700
_cell_angle_gamma   83.80902000
_symmetry_Int_Tables_number   1
_chemical_formula_structural   ZnH14C18NO4
_chemical_formula_sum   'Zn4 H56 C72 N4 O16'
_cell_volume   1988.03559470
_cell_formula_units_Z   4
loop_
 _symmetry_equiv_pos_site_id
 _symmetry_equiv_pos_as_xyz
  1  'x, y, z'
loop_
 _atom_site_type_symbol
 _atom_site_label
 _atom_site_symmetry_multiplicity
 _atom_site_fract_x
 _atom_site_fract_y
 _atom_site_fract_z
 _atom_site_occupancy
  Zn  Zn1  1  0.48289300  0.10219900  0.15066400  1
  Zn  Zn2  1  0.98289300  0.60219900  0.65066400  1
  Zn  Zn3  1  0.48290900  0.10220300  0.84950000  1
  Zn  Zn4  1  0.98290900  0.60220300  0.34950000  1
  H  H1  1  0.83627800  0.21512200  0.00007200  1
  H  H2  1  0.33627800  0.71512200  0.50007200  1
  H  H3  1  0.23783200  0.98182900  0.00009900  1
  H  H4  1  0.73783200  0.48182900  0.50009900  1
  H  H5  1  0.13748000  0.94520500  0.92039700  1
  H  H6  1  0.63748000  0.44520500  0.42039700  1
  H  H7  1  0.13749000  0.94521000  0.07982900  1
  H  H8  1  0.63749000  0.44521000  0.57982900  1
  H  H9  1  0.63833300  0.01730800  0.63059200  1
  H  H10  1  0.13833300  0.51730800  0.13059200  1
  H  H11  1  0.02132000  0.27373500  0.00003800  1
  H  H12  1  0.52132000  0.77373500  0.50003800  1
  H  H13  1  0.13866800  0.24032400  0.92031000  1
  H  H14  1  0.63866800  0.74032400  0.42031000  1
  H  H15  1  0.13868000  0.24032000  0.07974200  1
  H  H16  1  0.63868000  0.74032000  0.57974200  1
  H  H17  1  0.32749400  0.18708700  0.63059700  1
  H  H18  1  0.82749400  0.68708700  0.13059700  1
  H  H19  1  0.89190700  0.98579100  0.00014300  1
  H  H20  1  0.39190700  0.48579100  0.50014300  1
  H  H21  1  0.49060800  0.89142300  0.77403900  1
  H  H22  1  0.99060800  0.39142300  0.27403900  1
  H  H23  1  0.49053700  0.89139400  0.22618000  1
  H  H24  1  0.99053700  0.39139400  0.72618000  1
  H  H25  1  0.47520400  0.31297300  0.22611400  1
  H  H26  1  0.97520400  0.81297300  0.72611400  1
  H  H27  1  0.63831500  0.01730700  0.36957500  1
  H  H28  1  0.13831500  0.51730700  0.86957500  1
  H  H29  1  0.32745400  0.18708700  0.36955700  1
  H  H30  1  0.82745400  0.68708700  0.86955700  1
  H  H31  1  0.34771400  0.54550200  0.82687600  1
  H  H32  1  0.84771400  0.04550200  0.32687600  1
  H  H33  1  0.48777100  0.78157400  0.66422200  1
  H  H34  1  0.98777100  0.28157400  0.16422200  1
  H  H35  1  0.41294500  0.72628600  0.73320500  1
  H  H36  1  0.91294500  0.22628600  0.23320500  1
  H  H37  1  0.55938400  0.71641700  0.73330000  1
  H  H38  1  0.05938400  0.21641700  0.23330000  1
  H  H39  1  0.61810900  0.65889600  0.17328700  1
  H  H40  1  0.11810900  0.15889600  0.67328700  1
  H  H41  1  0.48706700  0.75993600  0.22615300  1
  H  H42  1  0.98706700  0.25993600  0.72615300  1
  H  H43  1  0.47874300  0.44446000  0.77399200  1
  H  H44  1  0.97874300  0.94446000  0.27399200  1
  H  H45  1  0.34229500  0.73636500  0.81329100  1
  H  H46  1  0.84229500  0.23636500  0.31329100  1
  H  H47  1  0.24383700  0.68269400  0.81162100  1
  H  H48  1  0.74383700  0.18269400  0.31162100  1
  H  H49  1  0.35602800  0.67512400  0.70915700  1
  H  H50  1  0.85602800  0.17512400  0.20915700  1
  H  H51  1  0.47523500  0.31301300  0.77398300  1
  H  H52  1  0.97523500  0.81301300  0.27398300  1
  H  H53  1  0.47870400  0.44442500  0.22613000  1
  H  H54  1  0.97870400  0.94442500  0.72613000  1
  H  H55  1  0.61462800  0.52744900  0.17326300  1
  H  H56  1  0.11462800  0.02744900  0.67326300  1
  C  C1  1  0.25327900  0.10616500  0.00006600  1
  C  C2  1  0.75327900  0.60616500  0.50006600  1
  C  C3  1  0.11387900  0.10412400  0.00005700  1
  C  C4  1  0.61387900  0.60412400  0.50005700  1
  C  C5  1  0.49279400  0.97525800  0.00010100  1
  C  C6  1  0.99279400  0.47525800  0.50010100  1
  C  C7  1  0.49075600  0.89814100  0.00010500  1
  C  C8  1  0.99075600  0.39814100  0.50010500  1
  C  C9  1  0.03305800  0.16636300  0.00005000  1
  C  C10  1  0.53305800  0.66636300  0.50005000  1
  C  C11  1  0.90207900  0.16444100  0.00007500  1
  C  C12  1  0.40207900  0.66444100  0.50007500  1
  C  C13  1  0.93275400  0.03803300  0.00010600  1
  C  C14  1  0.43275400  0.53803300  0.50010600  1
  C  C15  1  0.06373100  0.03995700  0.00009200  1
  C  C16  1  0.56373100  0.53995700  0.50009200  1
  C  C17  1  0.48981200  0.86192600  0.87550500  1
  C  C18  1  0.98981200  0.36192600  0.37550500  1
  C  C19  1  0.48788000  0.78946700  0.87549500  1
  C  C20  1  0.98788000  0.28946700  0.37549500  1
  C  C21  1  0.48691700  0.75322500  0.00009100  1
  C  C22  1  0.98691700  0.25322500  0.50009100  1
  C  C23  1  0.48785400  0.78944900  0.12470700  1
  C  C24  1  0.98785400  0.28944900  0.62470700  1
  C  C25  1  0.48977400  0.86190700  0.12471300  1
  C  C26  1  0.98977400  0.36190700  0.62471300  1
  C  C27  1  0.55742500  0.63345400  0.09554400  1
  C  C28  1  0.05742500  0.13345400  0.59554400  1
  C  C29  1  0.55551300  0.56099600  0.09553200  1
  C  C30  1  0.05551300  0.06099600  0.59553200  1
  C  C31  1  0.48099100  0.52974000  0.00007500  1
  C  C32  1  0.98099100  0.02974000  0.50007500  1
  C  C33  1  0.40839700  0.57094900  0.90460700  1
  C  C34  1  0.90839700  0.07094900  0.40460700  1
  C  C35  1  0.41031700  0.64340700  0.90461400  1
  C  C36  1  0.91031700  0.14340700  0.40461400  1
  C  C37  1  0.48483500  0.67465600  0.00009700  1
  C  C38  1  0.98483500  0.17465600  0.50009700  1
  C  C39  1  0.47795000  0.41495700  0.87545600  1
  C  C40  1  0.97795000  0.91495700  0.37545600  1
  C  C41  1  0.47601000  0.34249700  0.87545100  1
  C  C42  1  0.97601000  0.84249700  0.37545100  1
  C  C43  1  0.47599700  0.34248000  0.12466600  1
  C  C44  1  0.97599700  0.84248000  0.62466600  1
  C  C45  1  0.47792500  0.41493900  0.12466800  1
  C  C46  1  0.97792500  0.91493900  0.62466800  1
  C  C47  1  0.47890700  0.45117300  0.00005900  1
  C  C48  1  0.97890700  0.95117300  0.50005900  1
  C  C49  1  0.71252300  0.09823600  0.00009500  1
  C  C50  1  0.21252300  0.59823600  0.50009500  1
  C  C51  1  0.85192300  0.10027800  0.00009600  1
  C  C52  1  0.35192300  0.60027800  0.50009600  1
  C  C53  1  0.47300800  0.22914300  0.00006100  1
  C  C54  1  0.97300800  0.72914300  0.50006100  1
  C  C55  1  0.47504500  0.30626000  0.00004800  1
  C  C56  1  0.97504500  0.80626000  0.50004800  1
  C  C57  1  0.56856200  0.05540800  0.42814000  1
  C  C58  1  0.06856200  0.55540800  0.92814000  1
  C  C59  1  0.56857400  0.05540800  0.57202300  1
  C  C60  1  0.06857400  0.55540800  0.07202300  1
  C  C61  1  0.39724100  0.14899000  0.57201500  1
  C  C62  1  0.89724100  0.64899000  0.07201500  1
  C  C63  1  0.39722300  0.14898600  0.42813400  1
  C  C64  1  0.89722300  0.64898600  0.92813400  1
  C  C65  1  0.15264500  0.97149200  0.00009800  1
  C  C66  1  0.65264500  0.47149200  0.50009800  1
  C  C67  1  0.08821800  0.23694300  0.00002600  1
  C  C68  1  0.58821800  0.73694300  0.50002600  1
  C  C69  1  0.48689100  0.74961800  0.73843100  1
  C  C70  1  0.98689100  0.24961800  0.23843100  1
  C  C71  1  0.33046700  0.68873700  0.79961800  1
  C  C72  1  0.83046700  0.18873700  0.29961800  1
  N  N1  1  0.48289100  0.10219600  0.35620100  1
  N  N2  1  0.98289100  0.60219600  0.85620100  1
  N  N3  1  0.48292100  0.10220000  0.64396400  1
  N  N4  1  0.98292100  0.60220000  0.14396400  1
  O  O1  1  0.66574600  0.09755500  0.88580500  1
  O  O2  1  0.16574600  0.59755500  0.38580500  1
  O  O3  1  0.30006800  0.10684900  0.88577900  1
  O  O4  1  0.80006800  0.60684900  0.38577900  1
  O  O5  1  0.49347800  0.00114100  0.88581000  1
  O  O6  1  0.99347800  0.50114100  0.38581000  1
  O  O7  1  0.47233600  0.20326400  0.88577500  1
  O  O8  1  0.97233600  0.70326400  0.38577500  1
  O  O9  1  0.49346600  0.00113800  0.11439000  1
  O  O10  1  0.99346600  0.50113800  0.61439000  1
  O  O11  1  0.30005600  0.10684600  0.11435900  1
  O  O12  1  0.80005600  0.60684600  0.61435900  1
  O  O13  1  0.66573400  0.09755200  0.11438500  1
  O  O14  1  0.16573400  0.59755200  0.61438500  1
  O  O15  1  0.47232300  0.20326100  0.11435500  1
  O  O16  1  0.97232300  0.70326100  0.61435500  1
