# Generated by REPEAT Assigner based on pymatgen
data_DB5-hypotheticalMOF_6876_2_0_0_11_26_5
_audit_creation_date              2022-05-24
_audit_creation_method            REPEAT_Assigner
_cell_length_a                    21.395362
_cell_length_b                    13.033304
_cell_length_c                    21.395355
_cell_angle_alpha                 97.216878
_cell_angle_beta                  89.979451
_cell_angle_gamma                 82.802461
_cell_volume                      5871.451928
_symmetry_space_group_name_H-M    P1
_symmetry_Int_Tables_number       1
loop_
    _symmetry_equiv_pos_site_id
    _symmetry_equiv_pos_as_xyz
    1  x,y,z
loop_
    _atom_site_type_symbol
    _atom_site_label
    _atom_site_fract_x
    _atom_site_fract_y
    _atom_site_fract_z
    _atom_type_partial_charge
    Zn  Zn1  0.871981  0.402221  0.523842  1.227224
    Zn  Zn2  0.767209  0.402381  0.628635  1.321282
    Zn  Zn3  0.858691  0.577010  0.641941  1.267858
    Zn  Zn4  0.753943  0.577058  0.537222  1.277912
    O   O1   0.812956  0.489668  0.582910  -1.592204
    O   O2   0.869197  0.255990  0.526574  -0.498366
    O   O3   0.779334  0.425593  0.718082  -0.619243
    O   O4   0.948138  0.553736  0.626243  -0.576009
    O   O5   0.792222  0.256108  0.603566  -0.559780
    O   O6   0.957903  0.425320  0.539476  -0.550877
    O   O7   0.846545  0.553891  0.727857  -0.557532
    O   O8   0.833682  0.723269  0.639218  -0.612880
    O   O9   0.769612  0.553819  0.447766  -0.636435
    O   O10  0.756724  0.723304  0.562282  -0.582490
    O   O11  0.856334  0.425367  0.437935  -0.550657
    O   O12  0.677765  0.425640  0.616540  -0.626119
    O   O13  0.668019  0.553974  0.549380  -0.602282
    C   C1   0.792321  0.761208  0.603645  0.576696
    C   C2   0.783478  0.877374  0.612501  -0.090762
    C   C3   0.817562  0.929107  0.578297  -0.065300
    C   C4   0.808423  0.049171  0.587449  -0.415391
    C   C5   0.650158  0.489801  0.582952  0.534311
    C   C6   0.580520  0.489763  0.582942  0.239576
    C   C7   0.552945  0.422935  0.537737  -0.202037
    C   C8   0.487513  0.422898  0.537719  -0.299434
    C   C9   0.449658  0.489678  0.582916  0.373406
    C   C10  0.477240  0.556519  0.628125  -0.218135
    C   C11  0.542671  0.556562  0.628138  -0.267871
    C   C12  0.345339  0.497814  0.639976  -0.062235
    C   C13  0.279910  0.497764  0.639963  -0.276809
    C   C14  0.247847  0.489554  0.582877  0.109904
    C   C15  0.281223  0.481372  0.525799  0.072518
    C   C16  0.346653  0.481414  0.525812  0.422045
    C   C17  0.378709  0.489641  0.582907  -0.321719
    C   C18  0.149323  0.422683  0.537648  -0.238706
    C   C19  0.083889  0.422654  0.537629  -0.219301
    C   C20  0.073617  0.556269  0.628041  0.363584
    C   C21  0.139050  0.556304  0.628054  0.107797
    C   C22  0.176899  0.489505  0.582858  0.001458
    C   C23  0.976392  0.489505  0.582852  0.476484
    C   C24  0.046038  0.489436  0.582827  -0.052731
    C   C25  0.812975  0.489581  0.419480  0.604020
    C   C26  0.812984  0.489544  0.349836  -0.270503
    C   C27  0.833675  0.217067  0.562098  0.363947
    C   C28  0.842512  0.100901  0.553239  0.424692
    C   C29  0.858141  0.422662  0.312003  0.290881
    C   C30  0.858168  0.422663  0.246568  -0.363023
    C   C31  0.813027  0.489536  0.218967  -0.136789
    C   C32  0.767865  0.556431  0.256808  0.270817
    C   C33  0.767844  0.556435  0.322243  0.355423
    C   C34  0.755981  0.497834  0.115937  -0.002750
    C   C35  0.756002  0.497823  0.050503  -0.301312
    C   C36  0.813094  0.489529  0.017146  0.252210
    C   C37  0.870168  0.481225  0.049229  -0.240439
    C   C38  0.870146  0.481229  0.114663  -0.213960
    C   C39  0.813046  0.489539  0.148015  0.261323
    C   C40  0.858284  0.422645  0.908360  0.310307
    C   C41  0.858311  0.422654  0.842924  -0.370199
    C   C42  0.768004  0.556416  0.853166  0.255136
    C   C43  0.767981  0.556413  0.918601  -0.274873
    C   C44  0.813121  0.489522  0.946194  -0.130958
    C   C45  0.812987  0.489694  0.745700  0.535831
    C   C46  0.813170  0.489528  0.815328  0.085425
    H   H1   0.583760  0.368546  0.500934  0.135695
    N   N1   0.890130  0.041852  0.505466  -0.777469
    H   H2   0.933481  0.060776  0.516547  0.289309
    H   H3   0.889857  0.964472  0.505717  0.333956
    H   H4   0.747532  0.921971  0.648562  0.127510
    H   H5   0.252741  0.504420  0.686439  0.156151
    H   H6   0.465056  0.368488  0.500901  0.178471
    H   H7   0.061439  0.368234  0.500815  0.172341
    N   N2   0.168797  0.628375  0.676816  -0.659569
    H   H8   0.134889  0.670674  0.705448  0.288332
    H   H9   0.199189  0.585821  0.702544  0.276212
    N   N3   0.032802  0.628305  0.676791  -0.922788
    H   H10  0.001958  0.676742  0.655047  0.390256
    H   H11  0.008934  0.585721  0.702543  0.355498
    H   H12  0.853511  0.884510  0.542240  0.108431
    N   N4   0.382655  0.472604  0.464258  -0.749423
    H   H13  0.376461  0.404979  0.437734  0.306739
    H   H14  0.366635  0.533106  0.440916  0.299316
    N   N5   0.246652  0.472509  0.464220  -0.834501
    H   H15  0.200137  0.473728  0.472870  0.349405
    H   H16  0.253476  0.532976  0.440857  0.324964
    H   H17  0.916618  0.474470  0.140783  0.130347
    N   N6   0.719129  0.628578  0.363043  -0.950911
    H   H18  0.693307  0.586139  0.386944  0.395292
    H   H19  0.740948  0.676974  0.393860  0.402409
    H   H20  0.916657  0.474470  0.022071  0.148714
    H   H21  0.180141  0.368294  0.500845  0.181574
    H   H22  0.772475  0.093763  0.623512  0.202512
    H   H23  0.371439  0.504503  0.686466  0.102522
    H   H24  0.446414  0.610895  0.664924  0.138268
    H   H25  0.565122  0.610982  0.664950  0.143930
    N   N7   0.906826  0.350521  0.341764  -0.609396
    H   H26  0.935438  0.308152  0.307864  0.255305
    H   H27  0.932584  0.393034  0.372165  0.259461
    H   H28  0.894944  0.368202  0.215759  0.173782
    H   H29  0.709529  0.504579  0.024385  0.155003
    N   N8   0.906969  0.350507  0.938127  -0.691398
    H   H30  0.935584  0.308142  0.904229  0.297810
    H   H31  0.932723  0.393021  0.968532  0.255861
    H   H32  0.895088  0.368192  0.812121  0.169587
    N   N9   0.719319  0.628554  0.823407  -0.767488
    H   H33  0.726185  0.618406  0.776213  0.309974
    H   H34  0.675799  0.612335  0.833602  0.317283
    H   H35  0.731206  0.610869  0.949405  0.177199
    N   N10  0.694399  0.506766  0.151911  -0.370910
    H   H36  0.658249  0.512010  0.121658  0.199776
    H   H37  0.693421  0.443087  0.174182  0.206878
    N   N11  0.719186  0.628576  0.227045  -0.926926
    H   H38  0.726052  0.618427  0.179851  0.405985
    H   H39  0.675663  0.612370  0.237241  0.356763
