# Generated by REPEAT Assigner based on pymatgen
data_DB5-hypotheticalMOF_31878_1_0_2_11_9_2
_audit_creation_date              2022-05-24
_audit_creation_method            REPEAT_Assigner
_cell_length_a                    10.654549
_cell_length_b                    11.026607
_cell_length_c                    9.130313
_cell_angle_alpha                 89.997484
_cell_angle_beta                  89.997498
_cell_angle_gamma                 96.535397
_cell_volume                      1065.690906
_symmetry_space_group_name_H-M    P1
_symmetry_Int_Tables_number       1
loop_
    _symmetry_equiv_pos_site_id
    _symmetry_equiv_pos_as_xyz
    1  x,y,z
loop_
    _atom_site_type_symbol
    _atom_site_label
    _atom_site_fract_x
    _atom_site_fract_y
    _atom_site_fract_z
    _atom_type_partial_charge
    O   O1   0.704908  0.170765  0.878240  -0.524473
    O   O2   0.342961  0.187035  0.878230  -0.635560
    O   O3   0.493936  0.001995  0.878239  -0.522684
    O   O4   0.553932  0.355806  0.878230  -0.598017
    O   O5   0.493922  0.001989  0.121838  -0.608601
    O   O6   0.342947  0.187030  0.121829  -0.654159
    O   O7   0.704893  0.170760  0.121838  -0.610677
    Cu  Cu1  0.523919  0.178894  0.144076  0.931588
    Cu  Cu2  0.523936  0.178901  0.855992  0.677062
    O   O8   0.553918  0.355800  0.121829  -0.620567
    C   C1   0.295896  0.185838  0.000028  0.873443
    C   C2   0.155677  0.182264  0.000024  -0.103576
    C   C3   0.968081  0.287846  0.000027  -0.255142
    C   C4   0.099833  0.291213  0.000018  0.208140
    C   C5   0.079763  0.069940  0.000024  -0.147979
    C   C6   0.948014  0.066575  0.000022  -0.247363
    C   C7   0.482861  0.956688  0.000037  0.857743
    C   C8   0.449867  0.821696  0.000030  -0.560203
    C   C9   0.540970  0.748657  0.000031  0.297990
    C   C10  0.506871  0.609136  0.000024  -0.294102
    C   C11  0.751958  0.171957  0.000037  0.662630
    C   C12  0.892177  0.175531  0.000031  0.129745
    C   C13  0.564993  0.401107  0.000028  0.855071
    C   C14  0.597988  0.536099  0.000025  -0.104331
    N   N1   0.523916  0.178889  0.346699  -0.038925
    N   N2   0.523946  0.178896  0.653369  0.122407
    C   C15  0.590804  0.096988  0.423355  0.061083
    C   C16  0.590816  0.096988  0.576691  0.023569
    C   C17  0.457050  0.260801  0.576703  -0.115340
    C   C18  0.457031  0.260794  0.423369  -0.053632
    H   H1   0.125242  0.981233  0.000019  0.129781
    H   H2   0.886209  0.975109  0.000020  0.198911
    Cl  Cl1  0.700372  0.811577  0.000026  -0.019551
    H   H3   0.403623  0.568382  0.000012  0.226233
    Cl  Cl2  0.757397  0.599009  0.000022  -0.028256
    H   H4   0.402557  0.327489  0.360951  0.143855
    H   H5   0.645263  0.030294  0.360933  0.063941
    H   H6   0.346625  0.780936  0.000018  0.234784
    H   H7   0.922623  0.376565  0.000034  0.107089
    Cl  Cl3  0.195251  0.432416  0.000007  -0.165872
    Cl  Cl4  0.674905  0.994020  0.673055  -0.058118
    H   H8   0.402596  0.327489  0.639143  0.162062
