# generated using pymatgen
data_Zn4H12C44N8O13
_symmetry_space_group_name_H-M   'P 1'
_cell_length_a   12.75940100
_cell_length_b   21.39536100
_cell_length_c   12.75939300
_cell_angle_alpha   89.96184500
_cell_angle_beta   89.97906200
_cell_angle_gamma   90.03223300
_symmetry_Int_Tables_number   1
_chemical_formula_structural   Zn4H12C44N8O13
_chemical_formula_sum   'Zn8 H24 C88 N16 O26'
_cell_volume   3483.21053654
_cell_formula_units_Z   2
loop_
 _symmetry_equiv_pos_site_id
 _symmetry_equiv_pos_as_xyz
  1  'x, y, z'
loop_
 _atom_site_type_symbol
 _atom_site_label
 _atom_site_symmetry_multiplicity
 _atom_site_fract_x
 _atom_site_fract_y
 _atom_site_fract_z
 _atom_site_occupancy
  Zn  Zn1  1  0.60615000  0.75061700  0.40603600  1
  Zn  Zn2  1  0.10615000  0.25061700  0.90603600  1
  Zn  Zn3  1  0.60599200  0.64582700  0.58173900  1
  Zn  Zn4  1  0.10599200  0.14582700  0.08173900  1
  Zn  Zn5  1  0.43044800  0.75058400  0.58170100  1
  Zn  Zn6  1  0.93044800  0.25058400  0.08170100  1
  Zn  Zn7  1  0.43039100  0.64587100  0.40610200  1
  Zn  Zn8  1  0.93039100  0.14587100  0.90610200  1
  H  H1  1  0.91926100  0.62543000  0.37219100  1
  H  H2  1  0.41926100  0.12543000  0.87219100  1
  H  H3  1  0.64018400  0.34101400  0.61570000  1
  H  H4  1  0.14018400  0.84101400  0.11570000  1
  H  H5  1  0.39641200  0.62567100  0.89388100  1
  H  H6  1  0.89641200  0.12567100  0.39388100  1
  H  H7  1  0.39643700  0.05607200  0.37202200  1
  H  H8  1  0.89643700  0.55607200  0.87202200  1
  H  H9  1  0.64010200  0.45972300  0.61574300  1
  H  H10  1  0.14010200  0.95972300  0.11574300  1
  H  H11  1  0.64036300  0.05608500  0.61562300  1
  H  H12  1  0.14036300  0.55608500  0.11562300  1
  H  H13  1  0.64044900  0.93737800  0.61557200  1
  H  H14  1  0.14044900  0.43737800  0.11557200  1
  H  H15  1  0.11830900  0.62543300  0.37222700  1
  H  H16  1  0.61830900  0.12543300  0.87222700  1
  H  H17  1  0.34651600  0.25780800  0.47900100  1
  H  H18  1  0.84651600  0.75780800  0.97900100  1
  H  H19  1  0.69009200  0.13927500  0.50872800  1
  H  H20  1  0.19009200  0.63927500  0.00872800  1
  H  H21  1  0.39651700  0.93736000  0.37198300  1
  H  H22  1  0.89651700  0.43736000  0.87198300  1
  H  H23  1  0.34659300  0.13910400  0.47897900  1
  H  H24  1  0.84659300  0.63910400  0.97897900  1
  C  C1  1  0.24527800  0.69823200  0.49391500  1
  C  C2  1  0.74527800  0.19823200  0.99391500  1
  C  C3  1  0.12850100  0.69822100  0.49389900  1
  C  C4  1  0.62850100  0.19822100  0.99389900  1
  C  C5  1  0.07364500  0.65810100  0.42682900  1
  C  C6  1  0.57364500  0.15810100  0.92682900  1
  C  C7  1  0.96392100  0.65809900  0.42680800  1
  C  C8  1  0.46392100  0.15809900  0.92680800  1
  C  C9  1  0.96391900  0.73833700  0.56093700  1
  C  C10  1  0.46391900  0.23833700  0.06093700  1
  C  C11  1  0.07364100  0.73834200  0.56095200  1
  C  C12  1  0.57364100  0.23834200  0.06095200  1
  C  C13  1  0.51810600  0.53543700  0.49395300  1
  C  C14  1  0.01810600  0.03543700  0.99395300  1
  C  C15  1  0.51814300  0.46579600  0.49394300  1
  C  C16  1  0.01814300  0.96579600  0.99394300  1
  C  C17  1  0.58538000  0.43308700  0.56106500  1
  C  C18  1  0.08538000  0.93308700  0.06106500  1
  C  C19  1  0.58542900  0.36765100  0.56104200  1
  C  C20  1  0.08542900  0.86765100  0.06104200  1
  C  C21  1  0.51822200  0.33492800  0.49390700  1
  C  C22  1  0.01822200  0.83492800  0.99390700  1
  C  C23  1  0.45098100  0.36764500  0.42677100  1
  C  C24  1  0.95098100  0.86764500  0.92677100  1
  C  C25  1  0.45094100  0.43307900  0.42678900  1
  C  C26  1  0.95094100  0.93307900  0.92678900  1
  C  C27  1  0.42362400  0.23121200  0.48567100  1
  C  C28  1  0.92362400  0.73121200  0.98567100  1
  C  C29  1  0.42366200  0.16577900  0.48566000  1
  C  C30  1  0.92366200  0.66577900  0.98566000  1
  C  C31  1  0.51834500  0.13310700  0.49384500  1
  C  C32  1  0.01834500  0.63310700  0.99384500  1
  C  C33  1  0.61299300  0.16587500  0.50206300  1
  C  C34  1  0.11299300  0.66587500  0.00206300  1
  C  C35  1  0.61295300  0.23130900  0.50208100  1
  C  C36  1  0.11295300  0.73130900  0.00208100  1
  C  C37  1  0.51825800  0.26397500  0.49387900  1
  C  C38  1  0.01825800  0.76397500  0.99387900  1
  C  C39  1  0.58564000  0.02944500  0.56094600  1
  C  C40  1  0.08564000  0.52944500  0.06094600  1
  C  C41  1  0.58569000  0.96400900  0.56091500  1
  C  C42  1  0.08569000  0.46400900  0.06091500  1
  C  C43  1  0.45123300  0.96400300  0.42665000  1
  C  C44  1  0.95123300  0.46400300  0.92665000  1
  C  C45  1  0.45119200  0.02943800  0.42667500  1
  C  C46  1  0.95119200  0.52943800  0.92667500  1
  C  C47  1  0.51839400  0.06215600  0.49382900  1
  C  C48  1  0.01839400  0.56215600  0.99382900  1
  C  C49  1  0.79227800  0.69821700  0.49387300  1
  C  C50  1  0.29227800  0.19821700  0.99387300  1
  C  C51  1  0.90905500  0.69821300  0.49386400  1
  C  C52  1  0.40905500  0.19821300  0.99386400  1
  C  C53  1  0.51832400  0.69828500  0.21986100  1
  C  C54  1  0.01832400  0.19828500  0.71986100  1
  C  C55  1  0.51835700  0.69831100  0.10308400  1
  C  C56  1  0.01835700  0.19831100  0.60308400  1
  C  C57  1  0.51841300  0.86164800  0.49381300  1
  C  C58  1  0.01841300  0.36164800  0.99381300  1
  C  C59  1  0.51848400  0.93128900  0.49377800  1
  C  C60  1  0.01848400  0.43128900  0.99377800  1
  C  C61  1  0.58560000  0.73838800  0.04819500  1
  C  C62  1  0.08560000  0.23838800  0.54819500  1
  C  C63  1  0.58561700  0.73841500  0.93847100  1
  C  C64  1  0.08561700  0.23841500  0.43847100  1
  C  C65  1  0.45114700  0.65828100  0.93853500  1
  C  C66  1  0.95114700  0.15828100  0.43853500  1
  C  C67  1  0.45112500  0.65825800  0.04825700  1
  C  C68  1  0.95112500  0.15825800  0.54825700  1
  C  C69  1  0.51822700  0.69821000  0.76686200  1
  C  C70  1  0.01822700  0.19821000  0.26686200  1
  C  C71  1  0.51839700  0.69836100  0.88363800  1
  C  C72  1  0.01839700  0.19836100  0.38363800  1
  C  C73  1  0.90356300  0.78246500  0.63469700  1
  C  C74  1  0.40356300  0.28246500  0.13469700  1
  C  C75  1  0.37698600  0.46906000  0.35293300  1
  C  C76  1  0.87698600  0.96906000  0.85293300  1
  C  C77  1  0.13398700  0.78247900  0.63473900  1
  C  C78  1  0.63398700  0.28247900  0.13473900  1
  C  C79  1  0.71706300  0.26735200  0.51112100  1
  C  C80  1  0.21706300  0.76735200  0.01112100  1
  C  C81  1  0.37705000  0.33164700  0.35292700  1
  C  C82  1  0.87705000  0.83164700  0.85292700  1
  C  C83  1  0.65954800  0.78245300  0.10850200  1
  C  C84  1  0.15954800  0.28245300  0.60850200  1
  C  C85  1  0.65959200  0.78250300  0.87809800  1
  C  C86  1  0.15959200  0.28250300  0.37809800  1
  C  C87  1  0.37714600  0.61416900  0.10863800  1
  C  C88  1  0.87714600  0.11416900  0.60863800  1
  N  N1  1  0.85810300  0.81570200  0.69025700  1
  N  N2  1  0.35810300  0.31570200  0.19025700  1
  N  N3  1  0.32128500  0.49616200  0.29729900  1
  N  N4  1  0.82128500  0.99616200  0.79729900  1
  N  N5  1  0.17943900  0.81572200  0.69031200  1
  N  N6  1  0.67943900  0.31572200  0.19031200  1
  N  N7  1  0.79548100  0.29450000  0.51792800  1
  N  N8  1  0.29548100  0.79450000  0.01792800  1
  N  N9  1  0.32136400  0.30453400  0.29730400  1
  N  N10  1  0.82136400  0.80453400  0.79730400  1
  N  N11  1  0.71524400  0.81564600  0.15392100  1
  N  N12  1  0.21524400  0.31564600  0.65392100  1
  N  N13  1  0.71531300  0.81571100  0.83262600  1
  N  N14  1  0.21531300  0.31571100  0.33262600  1
  N  N15  1  0.32142500  0.58096400  0.15411700  1
  N  N16  1  0.82142500  0.08096400  0.65411700  1
  O  O1  1  0.51824500  0.69822500  0.49389400  1
  O  O2  1  0.01824500  0.19822500  0.99389400  1
  O  O3  1  0.75315000  0.73671200  0.42933200  1
  O  O4  1  0.25315000  0.23671200  0.92933200  1
  O  O5  1  0.58266300  0.65969100  0.72875500  1
  O  O6  1  0.08266300  0.15969100  0.22875500  1
  O  O7  1  0.45384500  0.83826600  0.55835500  1
  O  O8  1  0.95384500  0.33826600  0.05835500  1
  O  O9  1  0.75303300  0.65972300  0.55842000  1
  O  O10  1  0.25303300  0.15972300  0.05842000  1
  O  O11  1  0.58293200  0.83829100  0.42929400  1
  O  O12  1  0.08293200  0.33829100  0.92929400  1
  O  O13  1  0.45369200  0.73665500  0.72872700  1
  O  O14  1  0.95369200  0.23665500  0.22872700  1
  O  O15  1  0.28342000  0.73669800  0.55841900  1
  O  O16  1  0.78342000  0.23669800  0.05841900  1
  O  O17  1  0.45374800  0.65979800  0.25907200  1
  O  O18  1  0.95374800  0.15979800  0.75907200  1
  O  O19  1  0.28337800  0.65976600  0.42940700  1
  O  O20  1  0.78337800  0.15976600  0.92940700  1
  O  O21  1  0.58287700  0.73675500  0.25902300  1
  O  O22  1  0.08287700  0.23675500  0.75902300  1
  O  O23  1  0.58260800  0.55815500  0.55848400  1
  O  O24  1  0.08260800  0.05815500  0.05848400  1
  O  O25  1  0.45359500  0.55818700  0.42944400  1
  O  O26  1  0.95359500  0.05818700  0.92944400  1
