# generated using pymatgen
data_ZnH12C13(NO)4
_symmetry_space_group_name_H-M   'P 1'
_cell_length_a   10.65456200
_cell_length_b   10.65455100
_cell_length_c   9.73022300
_cell_angle_alpha   90.00146900
_cell_angle_beta   89.99696100
_cell_angle_gamma   84.48773300
_symmetry_Int_Tables_number   1
_chemical_formula_structural   ZnH12C13(NO)4
_chemical_formula_sum   'Zn2 H24 C26 N8 O8'
_cell_volume   1099.46285357
_cell_formula_units_Z   2
loop_
 _symmetry_equiv_pos_site_id
 _symmetry_equiv_pos_as_xyz
  1  'x, y, z'
loop_
 _atom_site_type_symbol
 _atom_site_label
 _atom_site_symmetry_multiplicity
 _atom_site_fract_x
 _atom_site_fract_y
 _atom_site_fract_z
 _atom_site_occupancy
  Zn  Zn1  1  0.48508500  0.18486900  0.15051000  1
  Zn  Zn2  1  0.48508800  0.18486300  0.84934600  1
  H  H1  1  0.10398000  0.18796400  0.77387300  1
  H  H2  1  0.08011800  0.27821500  0.31305800  1
  H  H3  1  0.21985300  0.34540200  0.62443900  1
  H  H4  1  0.32205900  0.34781600  0.75151700  1
  H  H5  1  0.86228400  0.25956500  0.68642600  1
  H  H6  1  0.88130700  0.10408100  0.68654300  1
  H  H7  1  0.88993200  0.09156000  0.31303600  1
  H  H8  1  0.48821200  0.80372800  0.22598600  1
  H  H9  1  0.35246900  0.61059000  0.57423300  1
  H  H10  1  0.36395400  0.48523800  0.67458900  1
  H  H11  1  0.62643400  0.81765500  0.45689200  1
  H  H12  1  0.55997800  0.88420400  0.31850700  1
  H  H13  1  0.48190800  0.56602800  0.22599000  1
  H  H14  1  0.75869700  0.03317500  0.38332300  1
  H  H15  1  0.40005500  0.79663400  0.67619300  1
  H  H16  1  0.76402100  0.02408900  0.61088300  1
  H  H17  1  0.63699700  0.91134300  0.61645300  1
  H  H18  1  0.92533100  0.35192900  0.37420200  1
  H  H19  1  0.79933700  0.34848800  0.27627500  1
  H  H20  1  0.09680300  0.09982500  0.32366600  1
  H  H21  1  0.65279700  0.83749000  0.74395700  1
  H  H22  1  0.66413500  0.71206700  0.64370000  1
  H  H23  1  0.57015400  0.57304900  0.67619800  1
  H  H24  1  0.33147400  0.33834800  0.36944000  1
  C  C1  1  0.25555000  0.19202500  0.99993900  1
  C  C2  1  0.11610800  0.18832700  0.99994600  1
  C  C3  1  0.49225400  0.95533000  0.99992400  1
  C  C4  1  0.48856200  0.81588600  0.99991500  1
  C  C5  1  0.05057600  0.18660400  0.12453400  1
  C  C6  1  0.91955400  0.18313900  0.12451100  1
  C  C7  1  0.91960600  0.18312500  0.87530000  1
  C  C8  1  0.05062700  0.18658100  0.87532500  1
  C  C9  1  0.05054400  0.18661800  0.26841400  1
  C  C10  1  0.91952100  0.18315300  0.26839100  1
  C  C11  1  0.48683100  0.75037100  0.87531800  1
  C  C12  1  0.48335100  0.61935100  0.87532500  1
  C  C13  1  0.48333800  0.61937100  0.12453500  1
  C  C14  1  0.48680900  0.75039000  0.12452700  1
  C  C15  1  0.48684400  0.75035800  0.73143800  1
  C  C16  1  0.48336300  0.61933800  0.73144500  1
  C  C17  1  0.71462200  0.17770800  0.99991400  1
  C  C18  1  0.85406400  0.18140600  0.99989800  1
  C  C19  1  0.47791800  0.41440300  0.99992900  1
  C  C20  1  0.48161000  0.55384600  0.99992900  1
  C  C21  1  0.56975100  0.10026800  0.42796800  1
  C  C22  1  0.56974700  0.10025300  0.57185100  1
  C  C23  1  0.40042200  0.26945900  0.57187800  1
  C  C24  1  0.40042000  0.26946700  0.42799800  1
  C  C25  1  0.66751300  0.00258200  0.42795300  1
  C  C26  1  0.66751000  0.00256700  0.57183600  1
  N  N1  1  0.48509200  0.18487300  0.35604600  1
  N  N2  1  0.48509000  0.18485000  0.64381000  1
  N  N3  1  0.30910800  0.36070400  0.64947900  1
  N  N4  1  0.84896700  0.18125000  0.74090100  1
  N  N5  1  0.36202300  0.58017300  0.67232600  1
  N  N6  1  0.63911500  0.87471900  0.37620500  1
  N  N7  1  0.85819500  0.29812100  0.34154700  1
  N  N8  1  0.60815900  0.78955300  0.67228400  1
  O  O1  1  0.66782500  0.17646900  0.88562900  1
  O  O2  1  0.30234900  0.19325900  0.88564700  1
  O  O3  1  0.49348900  0.00212500  0.88563700  1
  O  O4  1  0.47668500  0.36760300  0.88563900  1
  O  O5  1  0.49348700  0.00213000  0.11421700  1
  O  O6  1  0.30234700  0.19326300  0.11422700  1
  O  O7  1  0.66782300  0.17647400  0.11420900  1
  O  O8  1  0.47668300  0.36760700  0.11421900  1
