# Generated by REPEAT Assigner based on pymatgen
data_DB5-hypotheticalMOF_1747_1_1_0_21_7_7
_audit_creation_date              2022-05-24
_audit_creation_method            REPEAT_Assigner
_cell_length_a                    18.215407
_cell_length_b                    18.215405
_cell_length_c                    12.759393
_cell_angle_alpha                 89.966397
_cell_angle_beta                  89.980320
_cell_angle_gamma                 90.017245
_cell_volume                      4233.578388
_symmetry_space_group_name_H-M    P1
_symmetry_Int_Tables_number       1
loop_
    _symmetry_equiv_pos_site_id
    _symmetry_equiv_pos_as_xyz
    1  x,y,z
loop_
    _atom_site_type_symbol
    _atom_site_label
    _atom_site_fract_x
    _atom_site_fract_y
    _atom_site_fract_z
    _atom_type_partial_charge
    Zn  Zn1  0.125096  0.706944  0.406004  1.269077
    Zn  Zn2  0.625096  0.206944  0.906004  1.269066
    Zn  Zn3  0.125006  0.583860  0.581693  1.275941
    Zn  Zn4  0.625006  0.083860  0.081693  1.275938
    Zn  Zn5  0.002025  0.706920  0.581668  1.268907
    Zn  Zn6  0.502025  0.206920  0.081668  1.268904
    Zn  Zn7  0.002000  0.583927  0.406055  1.269630
    Zn  Zn8  0.502000  0.083927  0.906055  1.269641
    O   O1   0.063532  0.645413  0.493855  -1.593666
    O   O2   0.563532  0.145413  0.993855  -1.593661
    O   O3   0.228069  0.690599  0.429298  -0.553723
    O   O4   0.728069  0.190599  0.929298  -0.553724
    O   O5   0.108664  0.600146  0.728711  -0.605126
    O   O6   0.608664  0.100146  0.228711  -0.605121
    O   O7   0.018399  0.809908  0.558334  -0.545836
    O   O8   0.518399  0.309908  0.058334  -0.545840
    O   O9   0.228002  0.600170  0.558376  -0.545549
    O   O10  0.728002  0.100170  0.058376  -0.545562
    O   O11  0.108820  0.809925  0.429274  -0.575613
    O   O12  0.608820  0.309925  0.929274  -0.575608
    O   O13  0.018311  0.690558  0.728693  -0.597096
    O   O14  0.518311  0.190558  0.228693  -0.597094
    O   O15  0.899037  0.690623  0.558384  -0.567190
    O   O16  0.399037  0.190623  0.058384  -0.567181
    O   O17  0.018356  0.600284  0.259027  -0.570542
    O   O18  0.518356  0.100284  0.759027  -0.570562
    O   O19  0.899019  0.600260  0.429362  -0.574243
    O   O20  0.399019  0.100260  0.929362  -0.574237
    O   O21  0.108795  0.690664  0.258989  -0.574357
    O   O22  0.608795  0.190664  0.758989  -0.574353
    O   O23  0.108640  0.480885  0.558426  -0.568121
    O   O24  0.608640  0.980885  0.058426  -0.568117
    O   O25  0.018268  0.480934  0.429386  -0.578909
    O   O26  0.518268  0.980934  0.929386  -0.578909
    C   C1   0.872325  0.645445  0.493876  0.580384
    C   C2   0.372325  0.145445  0.993876  0.580393
    C   C3   0.790527  0.645441  0.493859  -0.013799
    C   C4   0.290527  0.145441  0.993859  -0.013841
    C   C5   0.525498  0.692409  0.426537  0.234438
    C   C6   0.025498  0.192409  0.926537  0.234381
    C   C7   0.602357  0.692421  0.426540  -0.446344
    C   C8   0.102357  0.192421  0.926540  -0.446266
    C   C9   0.602306  0.598393  0.561150  -0.385134
    C   C10  0.102306  0.098393  0.061150  -0.385008
    C   C11  0.525449  0.598378  0.561141  0.188215
    C   C12  0.025449  0.098378  0.061141  0.188235
    C   C13  0.487047  0.645390  0.493836  -0.079271
    C   C14  0.987047  0.145390  0.993836  -0.079237
    C   C15  0.640763  0.645417  0.493848  0.398303
    C   C16  0.140763  0.145417  0.993848  0.398174
    C   C17  0.724097  0.645430  0.493853  -0.230534
    C   C18  0.224097  0.145430  0.993853  -0.230476
    C   C19  0.403708  0.645377  0.493830  -0.078789
    C   C20  0.903708  0.145377  0.993830  -0.078781
    C   C21  0.063461  0.454207  0.493891  0.581020
    C   C22  0.563461  0.954207  0.993891  0.581025
    C   C23  0.063498  0.372408  0.493872  -0.029030
    C   C24  0.563498  0.872408  0.993872  -0.029045
    C   C25  0.110602  0.184284  0.426579  -0.093968
    C   C26  0.610602  0.684284  0.926579  -0.093960
    C   C27  0.110629  0.107425  0.426559  0.100432
    C   C28  0.610629  0.607425  0.926559  0.100432
    C   C29  0.016552  0.107294  0.561066  0.125216
    C   C30  0.516552  0.607294  0.061066  0.125199
    C   C31  0.016522  0.184151  0.561080  -0.328407
    C   C32  0.516522  0.684151  0.061080  -0.328391
    C   C33  0.063551  0.222644  0.493838  0.179707
    C   C34  0.563551  0.722644  0.993838  0.179695
    C   C35  0.063608  0.068928  0.493804  -0.084849
    C   C36  0.563608  0.568928  0.993804  -0.084829
    C   C37  0.063637  0.985595  0.493783  -0.061484
    C   C38  0.563637  0.485595  0.993783  -0.061496
    C   C39  0.063522  0.305983  0.493857  -0.157444
    C   C40  0.563522  0.805983  0.993857  -0.157431
    C   C41  0.255485  0.645380  0.493834  0.538470
    C   C42  0.755485  0.145380  0.993834  0.538470
    C   C43  0.337283  0.645366  0.493825  -0.069971
    C   C44  0.837283  0.145366  0.993825  -0.069967
    C   C45  0.063583  0.645484  0.219822  0.503454
    C   C46  0.563583  0.145484  0.719822  0.503461
    C   C47  0.063605  0.645514  0.103045  -0.023122
    C   C48  0.563605  0.145514  0.603045  -0.023123
    C   C49  0.063623  0.837366  0.493796  0.555609
    C   C50  0.563623  0.337366  0.993796  0.555603
    C   C51  0.063661  0.919165  0.493770  -0.077879
    C   C52  0.563661  0.419165  0.993770  -0.077866
    C   C53  0.110719  0.692615  0.938436  0.110681
    C   C54  0.610719  0.192615  0.438436  0.110684
    C   C55  0.110701  0.692584  0.048161  -0.221199
    C   C56  0.610701  0.192584  0.548161  -0.221206
    C   C57  0.016528  0.598466  0.048199  0.118176
    C   C58  0.516528  0.098466  0.548199  0.118187
    C   C59  0.016550  0.598494  0.938477  -0.314559
    C   C60  0.516550  0.098494  0.438477  -0.314578
    C   C61  0.165087  0.746956  0.938415  -0.234462
    C   C62  0.665087  0.246956  0.438415  -0.234466
    C   C63  0.165069  0.746925  0.048139  0.434637
    C   C64  0.665069  0.246925  0.548139  0.434646
    C   C65  0.063523  0.645395  0.766822  0.592862
    C   C66  0.563523  0.145395  0.266822  0.592856
    C   C67  0.063644  0.645572  0.883599  0.047539
    C   C68  0.563644  0.145572  0.383599  0.047549
    H   H1   0.633583  0.560119  0.615949  0.173059
    H   H2   0.133583  0.060119  0.115949  0.173036
    C   C69  0.964832  0.064949  0.635036  -0.034249
    C   C70  0.464832  0.564949  0.135036  -0.034232
    H   H3   0.971593  0.013681  0.625405  0.032406
    H   H4   0.471593  0.513681  0.125405  0.032402
    H   H5   0.915372  0.077516  0.619734  0.028078
    H   H6   0.415372  0.577516  0.119734  0.028075
    H   H7   0.975634  0.077520  0.705617  0.025932
    H   H8   0.475634  0.577520  0.205617  0.025925
    H   H9   0.978204  0.215386  0.615850  0.183189
    H   H10  0.478204  0.715386  0.115850  0.183183
    C   C71  0.162389  0.065232  0.352580  -0.090994
    C   C72  0.662389  0.565232  0.852580  -0.091053
    H   H11  0.190395  0.099168  0.312544  0.045247
    H   H12  0.690395  0.599168  0.812544  0.045267
    H   H13  0.134233  0.035254  0.306831  0.050197
    H   H14  0.634233  0.535254  0.806831  0.050219
    H   H15  0.194483  0.035253  0.392731  0.048525
    H   H16  0.694483  0.535253  0.892731  0.048538
    H   H17  0.149824  0.803918  0.077901  -0.043515
    H   H18  0.649824  0.303918  0.577901  -0.043519
    H   H19  0.978224  0.560180  0.893832  0.160346
    H   H20  0.478224  0.060180  0.393832  0.160350
    C   C73  0.964724  0.546689  0.108569  -0.130769
    C   C74  0.464724  0.046689  0.608569  -0.130761
    H   H21  0.971450  0.553412  0.181770  0.123166
    H   H22  0.471450  0.053412  0.681770  0.123169
    H   H23  0.975472  0.497245  0.090600  0.028108
    H   H24  0.475472  0.997245  0.590600  0.028104
    H   H25  0.915283  0.557478  0.090590  0.030944
    H   H26  0.415283  0.057478  0.590590  0.030939
    C   C75  0.483150  0.546656  0.635175  -0.169746
    C   C76  0.983150  0.046656  0.135175  -0.170248
    H   H27  0.517027  0.518668  0.675272  0.073483
    H   H28  0.017027  0.018668  0.175272  0.073618
    H   H29  0.453176  0.514555  0.595059  0.069930
    H   H30  0.953176  0.014555  0.095059  0.070071
    H   H31  0.453158  0.574844  0.680882  0.063840
    H   H32  0.953158  0.074844  0.180882  0.063992
    H   H33  0.222083  0.731691  0.908639  0.053561
    H   H34  0.722083  0.231691  0.408639  0.053560
    C   C77  0.162326  0.226628  0.352612  -0.031542
    C   C78  0.662326  0.726628  0.852612  -0.031555
    H   H35  0.155576  0.277896  0.362257  0.039604
    H   H36  0.655576  0.777896  0.862257  0.039605
    H   H37  0.151531  0.214060  0.282034  0.034760
    H   H38  0.651531  0.714060  0.782034  0.034764
    H   H39  0.211787  0.214057  0.367926  0.044157
    H   H40  0.711787  0.714057  0.867926  0.044161
    H   H41  0.144699  0.801108  0.904366  0.051254
    H   H42  0.644699  0.301108  0.404366  0.051255
    C   C79  0.238183  0.719315  0.094127  -0.320346
    C   C80  0.738183  0.219315  0.594127  -0.320343
    H   H43  0.235672  0.720225  0.168487  0.083434
    H   H44  0.735672  0.220225  0.668487  0.083434
    H   H45  0.277038  0.750172  0.071132  0.047840
    H   H46  0.777038  0.250172  0.571132  0.047840
    H   H47  0.246934  0.670496  0.071145  0.116517
    H   H48  0.746934  0.170496  0.571145  0.116514
    C   C81  0.483258  0.744111  0.352493  -0.128167
    C   C82  0.983258  0.244111  0.852493  -0.128154
    H   H49  0.517169  0.772109  0.312405  0.047785
    H   H50  0.017169  0.272109  0.812405  0.047783
    H   H51  0.453265  0.776204  0.392593  0.052511
    H   H52  0.953265  0.276204  0.892593  0.052509
    H   H53  0.453290  0.715909  0.306779  0.053225
    H   H54  0.953290  0.215909  0.806779  0.053221
    H   H55  0.633660  0.730708  0.371738  0.195743
    H   H56  0.133660  0.230708  0.871738  0.195732
