data_DB5-hypotheticalMOF_26378_1_0_1_16_16_5_repeat
_audit_creation_date              2024-02-20
_audit_creation_method            'Materials Studio'
_symmetry_space_group_name_H-M    'P1'
_symmetry_Int_Tables_number       1
_symmetry_cell_setting            triclinic
loop_
_symmetry_equiv_pos_as_xyz
  x,y,z
_cell_length_a                    14.8536
_cell_length_b                    14.8536
_cell_length_c                    13.9303
_cell_angle_alpha                 90.0008
_cell_angle_beta                  89.9956
_cell_angle_gamma                 96.3653
loop_
_atom_site_label
_atom_site_type_symbol
_atom_site_fract_x
_atom_site_fract_y
_atom_site_fract_z
_atom_site_U_iso_or_equiv
_atom_site_adp_type
_atom_site_occupancy
O1     O     0.19637   0.88230   0.92024   0.00000  Uiso   1.00
O2     O     0.93391   0.86828   0.92023   0.00000  Uiso   1.00
O3     O     0.07215   0.00652   0.92023   0.00000  Uiso   1.00
O4     O     0.05813   0.74406   0.92024   0.00000  Uiso   1.00
O5     O     0.07213   0.00652   0.07989   0.00000  Uiso   1.00
O6     O     0.93389   0.86828   0.07989   0.00000  Uiso   1.00
O7     O     0.19635   0.88231   0.07990   0.00000  Uiso   1.00
Zn1    Zn    0.06512   0.87529   0.10525   0.00000  Uiso   1.00
Zn2    Zn    0.06514   0.87529   0.89488   0.00000  Uiso   1.00
O8     O     0.05811   0.74406   0.07990   0.00000  Uiso   1.00
C1     C     0.90031   0.86892   0.00006   0.00000  Uiso   1.00
C2     C     0.80023   0.87082   0.00005   0.00000  Uiso   1.00
C3     C     0.37705   0.87887   0.91303   0.00000  Uiso   1.00
C4     C     0.37705   0.87887   0.08710   0.00000  Uiso   1.00
C5     C     0.47109   0.87708   0.08710   0.00000  Uiso   1.00
C6     C     0.51811   0.87619   0.00006   0.00000  Uiso   1.00
C7     C     0.47110   0.87708   0.91303   0.00000  Uiso   1.00
C8     C     0.51811   0.87618   0.17413   0.00000  Uiso   1.00
C9     C     0.61215   0.87440   0.17413   0.00000  Uiso   1.00
C10    C     0.65917   0.87351   0.08710   0.00000  Uiso   1.00
C11    C     0.61215   0.87440   0.00006   0.00000  Uiso   1.00
C12    C     0.65917   0.87350   0.91302   0.00000  Uiso   1.00
C13    C     0.61216   0.87440   0.82598   0.00000  Uiso   1.00
C14    C     0.51812   0.87619   0.82599   0.00000  Uiso   1.00
C15    C     0.75321   0.87172   0.08709   0.00000  Uiso   1.00
C16    C     0.75321   0.87171   0.91301   0.00000  Uiso   1.00
C17    C     0.07151   0.04011   0.00006   0.00000  Uiso   1.00
C18    C     0.06960   0.14019   0.00005   0.00000  Uiso   1.00
C19    C     0.22995   0.88167   0.00007   0.00000  Uiso   1.00
C20    C     0.33003   0.87977   0.00007   0.00000  Uiso   1.00
C21    C     0.05875   0.71047   0.00007   0.00000  Uiso   1.00
C22    C     0.06066   0.61039   0.00007   0.00000  Uiso   1.00
N1     N     0.06511   0.87530   0.24881   0.00000  Uiso   1.00
C23    C     0.97943   0.55273   0.00006   0.00000  Uiso   1.00
C24    C     0.14367   0.57401   0.00007   0.00000  Uiso   1.00
C25    C     0.14546   0.47998   0.00007   0.00000  Uiso   1.00
C26    C     0.06424   0.42231   0.00006   0.00000  Uiso   1.00
C27    C     0.98122   0.45869   0.00006   0.00000  Uiso   1.00
C28    C     0.22847   0.44360   0.00008   0.00000  Uiso   1.00
C29    C     0.23026   0.34956   0.00007   0.00000  Uiso   1.00
C30    C     0.14904   0.29189   0.00006   0.00000  Uiso   1.00
C31    C     0.06602   0.32827   0.00006   0.00000  Uiso   1.00
C32    C     0.98480   0.27061   0.00005   0.00000  Uiso   1.00
C33    C     0.90178   0.30698   0.00004   0.00000  Uiso   1.00
C34    C     0.90000   0.40102   0.00005   0.00000  Uiso   1.00
C35    C     0.15082   0.19786   0.00006   0.00000  Uiso   1.00
C36    C     0.98659   0.17657   0.00005   0.00000  Uiso   1.00
N2     N     0.06516   0.87529   0.75132   0.00000  Uiso   1.00
C37    C     0.00393   0.81410   0.70108   0.00000  Uiso   1.00
C38    C     0.12638   0.93649   0.70105   0.00000  Uiso   1.00
C39    C     0.12637   0.93649   0.60056   0.00000  Uiso   1.00
C40    C     0.06514   0.87530   0.55032   0.00000  Uiso   1.00
C41    C     0.00392   0.81410   0.60057   0.00000  Uiso   1.00
C42    C     0.18760   0.99768   0.55029   0.00000  Uiso   1.00
C43    C     0.18759   0.99768   0.44979   0.00000  Uiso   1.00
C44    C     0.12635   0.93649   0.39955   0.00000  Uiso   1.00
C45    C     0.06513   0.87530   0.44981   0.00000  Uiso   1.00
C46    C     0.00390   0.81410   0.39957   0.00000  Uiso   1.00
C47    C     0.94266   0.75291   0.44983   0.00000  Uiso   1.00
C48    C     0.94268   0.75291   0.55033   0.00000  Uiso   1.00
C49    C     0.12634   0.93649   0.29905   0.00000  Uiso   1.00
C50    C     0.00388   0.81410   0.29907   0.00000  Uiso   1.00
H1     H     0.47981   0.87691   0.24500   0.00000  Uiso   1.00
H2     H     0.65042   0.87367   0.24501   0.00000  Uiso   1.00
H3     H     0.92045   0.12962   0.00004   0.00000  Uiso   1.00
H4     H     0.20980   0.62096   0.00009   0.00000  Uiso   1.00
N3     N     0.80392   0.87074   0.18095   0.00000  Uiso   1.00
H5     H     0.75986   0.87157   0.23609   0.00000  Uiso   1.00
H6     H     0.85017   0.92584   0.18475   0.00000  Uiso   1.00
H7     H     0.29786   0.31995   0.00008   0.00000  Uiso   1.00
N4     N     0.19238   0.00248   0.24484   0.00000  Uiso   1.00
H8     H     0.23117   0.04124   0.29192   0.00000  Uiso   1.00
H9     H     0.15782   0.04240   0.20315   0.00000  Uiso   1.00
H10    H     0.17624   0.98630   0.74196   0.00000  Uiso   1.00
H11    H     0.95402   0.76427   0.25817   0.00000  Uiso   1.00
H12    H     0.29460   0.49055   0.00009   0.00000  Uiso   1.00
H13    H     0.95407   0.76428   0.74200   0.00000  Uiso   1.00
N5     N     0.81047   0.44026   0.00005   0.00000  Uiso   1.00
H14    H     0.77488   0.41924   0.05924   0.00000  Uiso   1.00
H15    H     0.77496   0.41924   0.94082   0.00000  Uiso   1.00
N6     N     0.81418   0.24479   0.00006   0.00000  Uiso   1.00
H16    H     0.82792   0.17970   0.00007   0.00000  Uiso   1.00
H17    H     0.77801   0.25656   0.94088   0.00000  Uiso   1.00
N7     N     0.32635   0.87985   0.18098   0.00000  Uiso   1.00
H18    H     0.37055   0.88024   0.23610   0.00000  Uiso   1.00
H19    H     0.28093   0.82412   0.18534   0.00000  Uiso   1.00
N8     N     0.25362   0.06369   0.39559   0.00000  Uiso   1.00
H20    H     0.21912   0.10367   0.35391   0.00000  Uiso   1.00
H21    H     0.29356   0.02911   0.35394   0.00000  Uiso   1.00
H22    H     0.89283   0.70309   0.59126   0.00000  Uiso   1.00
H23    H     0.91185   0.58235   0.00005   0.00000  Uiso   1.00
H24    H     0.79149   0.87098   0.84214   0.00000  Uiso   1.00
H25    H     0.21842   0.16824   0.00007   0.00000  Uiso   1.00
H26    H     0.23746   0.04749   0.59120   0.00000  Uiso   1.00
H27    H     0.89281   0.70308   0.40892   0.00000  Uiso   1.00
H28    H     0.65045   0.87366   0.75511   0.00000  Uiso   1.00
H29    H     0.33877   0.87960   0.84217   0.00000  Uiso   1.00
N9     N     0.46741   0.87716   0.73212   0.00000  Uiso   1.00
H30    H     0.40070   0.87843   0.74533   0.00000  Uiso   1.00
H31    H     0.47661   0.82100   0.69411   0.00000  Uiso   1.00
