# generated using pymatgen
data_Zn2H12C28N2O13
_symmetry_space_group_name_H-M   'P 1'
_cell_length_a   16.10931800
_cell_length_b   16.10930400
_cell_length_c   9.73022300
_cell_angle_alpha   89.99841100
_cell_angle_beta   90.00029100
_cell_angle_gamma   83.46560000
_symmetry_Int_Tables_number   1
_chemical_formula_structural   Zn2H12C28N2O13
_chemical_formula_sum   'Zn2 H12 C28 N2 O13'
_cell_volume   2508.68549400
_cell_formula_units_Z   1
loop_
 _symmetry_equiv_pos_site_id
 _symmetry_equiv_pos_as_xyz
  1  'x, y, z'
loop_
 _atom_site_type_symbol
 _atom_site_label
 _atom_site_symmetry_multiplicity
 _atom_site_fract_x
 _atom_site_fract_y
 _atom_site_fract_z
 _atom_site_occupancy
  Zn  Zn1  1  0.98208300  0.11357300  0.15069200  1
  Zn  Zn2  1  0.98209400  0.11357800  0.84952800  1
  H  H1  1  0.40343500  0.11217600  0.22619000  1
  H  H2  1  0.98347700  0.69223900  0.77403700  1
  H  H3  1  0.40118100  0.16891100  0.68134500  1
  H  H4  1  0.52747500  0.11440500  0.65446800  1
  H  H5  1  0.98069700  0.53490600  0.22616700  1
  H  H6  1  0.06461700  0.95567000  0.28505100  1
  H  H7  1  0.98070700  0.53492300  0.77404300  1
  H  H8  1  0.98345500  0.69224000  0.22618100  1
  H  H9  1  0.08469600  0.01104400  0.63060600  1
  H  H10  1  0.56076800  0.11493500  0.22615800  1
  H  H11  1  0.87407000  0.22156700  0.76177500  1
  H  H12  1  0.82521700  0.27034400  0.42476300  1
  C  C1  1  0.83008400  0.11967700  0.00009300  1
  C  C2  1  0.73778900  0.11805600  0.00008200  1
  C  C3  1  0.43872000  0.11282300  0.87550800  1
  C  C4  1  0.52544100  0.11434100  0.87549900  1
  C  C5  1  0.52545100  0.11432600  0.12471000  1
  C  C6  1  0.43873200  0.11280200  0.12471600  1
  C  C7  1  0.39536800  0.11205500  0.00011100  1
  C  C8  1  0.56880900  0.11509600  0.00009600  1
  C  C9  1  0.66283600  0.11674100  0.00008800  1
  C  C10  1  0.30133600  0.11040800  0.00011900  1
  C  C11  1  0.98819800  0.96157000  0.00010700  1
  C  C12  1  0.98658200  0.86927500  0.00009700  1
  C  C13  1  0.98285300  0.65693900  0.87550300  1
  C  C14  1  0.98132700  0.57021900  0.87550400  1
  C  C15  1  0.98132200  0.57021800  0.12471400  1
  C  C16  1  0.98284200  0.65693800  0.12471200  1
  C  C17  1  0.98361200  0.70029600  0.00010200  1
  C  C18  1  0.98056500  0.52685600  0.00010600  1
  C  C19  1  0.97891100  0.43283000  0.00010800  1
  C  C20  1  0.98526500  0.79432800  0.00009900  1
  C  C21  1  0.13409300  0.10747400  0.00012400  1
  C  C22  1  0.22638800  0.10909500  0.00012500  1
  C  C23  1  0.97597900  0.26558100  0.00011000  1
  C  C24  1  0.97759500  0.35787600  0.00011000  1
  C  C25  1  0.03863700  0.05706000  0.42816000  1
  C  C26  1  0.03864500  0.05706000  0.57204300  1
  C  C27  1  0.92554100  0.17008700  0.57204900  1
  C  C28  1  0.92552900  0.17008300  0.42816900  1
  N  N1  1  0.98208200  0.11357000  0.35622800  1
  N  N2  1  0.98210200  0.11357500  0.64399100  1
  O  O1  1  0.10312300  0.10693500  0.88583300  1
  O  O2  1  0.86106300  0.12022000  0.88580600  1
  O  O3  1  0.98874100  0.99254700  0.88582000  1
  O  O4  1  0.97544400  0.23460800  0.88582000  1
  O  O5  1  0.98873300  0.99254400  0.11440000  1
  O  O6  1  0.86105500  0.12021600  0.11438600  1
  O  O7  1  0.10311400  0.10693200  0.11441300  1
  O  O8  1  0.97543600  0.23460400  0.11440000  1
  O  O9  1  0.39195700  0.11199300  0.74111100  1
  O  O10  1  0.57220200  0.11517400  0.74110600  1
  O  O11  1  0.09961800  0.99608800  0.35058100  1
  O  O12  1  0.86455500  0.23104900  0.64964100  1
  O  O13  1  0.86453100  0.23103800  0.35056900  1
