# generated using pymatgen
data_CuH20C25(NO2)3
_symmetry_space_group_name_H-M   'P 1'
_cell_length_a   14.85356700
_cell_length_b   16.99269400
_cell_length_c   15.45531300
_cell_angle_alpha   92.85779400
_cell_angle_beta   92.67262100
_cell_angle_gamma   92.84842300
_symmetry_Int_Tables_number   1
_chemical_formula_structural   CuH20C25(NO2)3
_chemical_formula_sum   'Cu2 H40 C50 N6 O12'
_cell_volume   3886.57063507
_cell_formula_units_Z   2
loop_
 _symmetry_equiv_pos_site_id
 _symmetry_equiv_pos_as_xyz
  1  'x, y, z'
loop_
 _atom_site_type_symbol
 _atom_site_label
 _atom_site_symmetry_multiplicity
 _atom_site_fract_x
 _atom_site_fract_y
 _atom_site_fract_z
 _atom_site_occupancy
  Cu  Cu1  1  0.19450100  0.07762000  0.08541100  1
  Cu  Cu2  1  0.18576400  0.06948900  0.91480500  1
  H  H1  1  0.92691500  0.19939900  0.00008000  1
  H  H2  1  0.02983200  0.29476200  0.00009200  1
  H  H3  1  0.07899200  0.79783000  0.46826000  1
  H  H4  1  0.00080800  0.80315900  0.55883800  1
  H  H5  1  0.99023400  0.87141100  0.46878600  1
  H  H6  1  0.15522000  0.86717100  0.60362800  1
  H  H7  1  0.14452500  0.93535900  0.51352800  1
  H  H8  1  0.28338000  0.15999400  0.78637700  1
  H  H9  1  0.09688600  0.98710900  0.21384000  1
  H  H10  1  0.31169200  0.47675100  0.00009600  1
  H  H11  1  0.82636700  0.74667600  0.00003600  1
  H  H12  1  0.87598800  0.83727200  0.06050000  1
  H  H13  1  0.86991100  0.83158000  0.93975300  1
  H  H14  1  0.98508700  0.72680800  0.06041300  1
  H  H15  1  0.97890400  0.72119600  0.93966700  1
  H  H16  1  0.36416100  0.70395700  0.00009800  1
  H  H17  1  0.27491900  0.15217800  0.62164400  1
  H  H18  1  0.58896800  0.87396600  0.00014300  1
  H  H19  1  0.75977000  0.87112600  0.00013200  1
  H  H20  1  0.79130600  0.27315300  0.00008100  1
  H  H21  1  0.62048300  0.27597200  0.00007700  1
  H  H22  1  0.06856600  0.67036100  0.00012700  1
  H  H23  1  0.90659600  0.94022800  0.00012000  1
  H  H24  1  0.92687100  0.63312700  0.00020700  1
  H  H25  1  0.87710900  0.54258600  0.93973700  1
  H  H26  1  0.88331900  0.54822300  0.06048400  1
  H  H27  1  0.04832700  0.54902300  0.93982700  1
  H  H28  1  0.05439300  0.55467100  0.06057300  1
  H  H29  1  0.93866900  0.84043600  0.32791200  1
  H  H30  1  0.02614400  0.84348200  0.41846300  1
  H  H31  1  0.93692900  0.91664700  0.41853600  1
  H  H32  1  0.08812300  0.90112900  0.28349200  1
  H  H33  1  0.99884500  0.97423500  0.28366700  1
  H  H34  1  0.32542500  0.32836900  0.00008000  1
  H  H35  1  0.31371800  0.18818500  0.37859000  1
  H  H36  1  0.30526900  0.18036600  0.21384500  1
  H  H37  1  0.47366100  0.20688100  0.00009100  1
  H  H38  1  0.45334800  0.94772500  0.00013400  1
  H  H39  1  0.35042600  0.85235100  0.00011900  1
  H  H40  1  0.07499000  0.96674400  0.78637400  1
  C  C1  1  0.02570500  0.06800900  0.00010300  1
  C  C2  1  0.92550400  0.06966500  0.00009600  1
  C  C3  1  0.18638500  0.21691300  0.00009200  1
  C  C4  1  0.17833400  0.30396600  0.00008100  1
  C  C5  1  0.19388000  0.93019600  0.00012200  1
  C  C6  1  0.20193100  0.84314300  0.00012700  1
  C  C7  1  0.50743300  0.14809100  0.00010300  1
  C  C8  1  0.49624000  0.00524200  0.00011900  1
  C  C9  1  0.59038300  0.00368500  0.00011400  1
  C  C10  1  0.64305600  0.07433200  0.00010500  1
  C  C11  1  0.60158600  0.14653600  0.00010100  1
  C  C12  1  0.63186100  0.93148200  0.00012700  1
  C  C13  1  0.72601000  0.92992200  0.00012300  1
  C  C14  1  0.77868400  0.00057000  0.00010800  1
  C  C15  1  0.73720900  0.07277700  0.00010300  1
  C  C16  1  0.78988200  0.14342400  0.00009400  1
  C  C17  1  0.74840700  0.21563200  0.00008200  1
  C  C18  1  0.65426000  0.21718400  0.00008600  1
  C  C19  1  0.87283100  0.99901800  0.00010500  1
  C  C20  1  0.88403400  0.14186900  0.00009100  1
  C  C21  1  0.35456000  0.07910000  0.00011000  1
  C  C22  1  0.45476000  0.07744400  0.00011200  1
  C  C23  1  0.25600900  0.35412200  0.00008300  1
  C  C24  1  0.24844000  0.43591700  0.00009500  1
  C  C25  1  0.16319500  0.46755500  0.00009900  1
  C  C26  1  0.08551400  0.41739200  0.00010000  1
  C  C27  1  0.09308400  0.33559900  0.00009400  1
  C  C28  1  0.13182000  0.71118700  0.00012200  1
  C  C29  1  0.12425500  0.79298700  0.00012500  1
  C  C30  1  0.28718300  0.81150700  0.00012200  1
  C  C31  1  0.29474500  0.72971000  0.00011100  1
  C  C32  1  0.21706400  0.67955500  0.00011600  1
  C  C33  1  0.14554500  0.03223400  0.25080500  1
  C  C34  1  0.15020100  0.03654700  0.34161200  1
  C  C35  1  0.20996100  0.09195800  0.38701900  1
  C  C36  1  0.26506300  0.14306400  0.34161400  1
  C  C37  1  0.26040200  0.13875400  0.25080800  1
  C  C38  1  0.23005400  0.11056400  0.65859900  1
  C  C39  1  0.23471300  0.11486900  0.74941100  1
  C  C40  1  0.11984900  0.00835300  0.74940300  1
  C  C41  1  0.11519800  0.00404400  0.65859500  1
  C  C42  1  0.17029600  0.05515300  0.61319800  1
  C  C43  1  0.03965700  0.83903600  0.51105600  1
  C  C44  1  0.10574200  0.89948300  0.56135600  1
  C  C45  1  0.88056800  0.79659500  0.00011400  1
  C  C46  1  0.97436800  0.76183000  0.00009300  1
  C  C47  1  0.91890400  0.56605000  0.00012500  1
  C  C48  1  0.01266400  0.53121000  0.00014500  1
  C  C49  1  0.98221900  0.88072500  0.37598700  1
  C  C50  1  0.04282400  0.93699000  0.32608900  1
  N  N1  1  0.20064500  0.08333400  0.20540600  1
  N  N2  1  0.15545600  0.55116200  0.00010800  1
  N  N3  1  0.22480400  0.59595000  0.00011300  1
  N  N4  1  0.17961300  0.06376900  0.79481000  1
  N  N5  1  0.21472300  0.09636700  0.47983900  1
  N  N6  1  0.16552900  0.05074700  0.52038000  1
  O  O1  1  0.18748800  0.95597300  0.92799000  1
  O  O2  1  0.18539000  0.18426000  0.92796400  1
  O  O3  1  0.05564000  0.06401900  0.92797500  1
  O  O4  1  0.31723800  0.07621500  0.92797900  1
  O  O5  1  0.06302700  0.07089500  0.07223700  1
  O  O6  1  0.19277700  0.19113600  0.07222600  1
  O  O7  1  0.19487500  0.96284900  0.07225100  1
  O  O8  1  0.32462500  0.08309100  0.07224100  1
  O  O9  1  0.05705600  0.95044300  0.61425700  1
  O  O10  1  0.04137500  0.82359300  0.00016600  1
  O  O11  1  0.00277300  0.44825100  0.00006700  1
  O  O12  1  0.09665300  0.98681700  0.38557800  1
