data_DB5-hypotheticalMOF_14900_0_0_0_16_11_5_repeat
_audit_creation_date              2024-02-23
_audit_creation_method            'Materials Studio'
_symmetry_space_group_name_H-M    'P1'
_symmetry_Int_Tables_number       1
_symmetry_cell_setting            triclinic
loop_
_symmetry_equiv_pos_as_xyz
  x,y,z
_cell_length_a                    16.9595
_cell_length_b                    16.9595
_cell_length_c                    13.0323
_cell_angle_alpha                 82.8496
_cell_angle_beta                  82.8388
_cell_angle_gamma                 90.0190
loop_
_atom_site_label
_atom_site_type_symbol
_atom_site_fract_x
_atom_site_fract_y
_atom_site_fract_z
_atom_site_U_iso_or_equiv
_atom_site_adp_type
_atom_site_occupancy
Zn1    Zn    0.15163   0.62856   0.59092   0.00000  Uiso   1.00
Zn2    Zn    0.16833   0.51315   0.41619   0.00000  Uiso   1.00
Zn3    Zn    0.03624   0.64531   0.41619   0.00000  Uiso   1.00
Zn4    Zn    0.01943   0.49643   0.59087   0.00000  Uiso   1.00
O1     O     0.09391   0.57087   0.50354   0.00000  Uiso   1.00
O2     O     0.26445   0.61324   0.56776   0.00000  Uiso   1.00
O3     O     0.16484   0.54469   0.26996   0.00000  Uiso   1.00
O4     O     0.05159   0.75370   0.43939   0.00000  Uiso   1.00
O5     O     0.27673   0.52845   0.43938   0.00000  Uiso   1.00
O6     O     0.13637   0.74139   0.56776   0.00000  Uiso   1.00
O7     O     0.06779   0.64179   0.26996   0.00000  Uiso   1.00
O8     O     0.92340   0.62558   0.43934   0.00000  Uiso   1.00
O9     O     0.02294   0.49995   0.73710   0.00000  Uiso   1.00
O10    O     0.91105   0.51619   0.56768   0.00000  Uiso   1.00
O11    O     0.12006   0.59703   0.73714   0.00000  Uiso   1.00
O12    O     0.14854   0.40032   0.43933   0.00000  Uiso   1.00
O13    O     0.03913   0.38804   0.56767   0.00000  Uiso   1.00
C1     C     0.88854   0.57089   0.50350   0.00000  Uiso   1.00
C2     C     0.80069   0.57088   0.50351   0.00000  Uiso   1.00
C3     C     0.76581   0.62789   0.43680   0.00000  Uiso   1.00
C4     C     0.75301   0.51385   0.57024   0.00000  Uiso   1.00
C5     C     0.67046   0.51384   0.57026   0.00000  Uiso   1.00
C6     C     0.63558   0.57086   0.50354   0.00000  Uiso   1.00
C7     C     0.68326   0.62788   0.43682   0.00000  Uiso   1.00
C8     C     0.62278   0.45683   0.63699   0.00000  Uiso   1.00
C9     C     0.54023   0.45681   0.63701   0.00000  Uiso   1.00
C10    C     0.50535   0.51382   0.57029   0.00000  Uiso   1.00
C11    C     0.55303   0.57085   0.50356   0.00000  Uiso   1.00
C12    C     0.51815   0.62786   0.43685   0.00000  Uiso   1.00
C13    C     0.56583   0.68489   0.37011   0.00000  Uiso   1.00
C14    C     0.64838   0.68489   0.37010   0.00000  Uiso   1.00
C15    C     0.42280   0.51382   0.57030   0.00000  Uiso   1.00
C16    C     0.43560   0.62786   0.43686   0.00000  Uiso   1.00
C17    C     0.09384   0.36550   0.50352   0.00000  Uiso   1.00
C18    C     0.09388   0.27764   0.50355   0.00000  Uiso   1.00
C19    C     0.03701   0.89974   0.57036   0.00000  Uiso   1.00
C20    C     0.15101   0.91258   0.43683   0.00000  Uiso   1.00
C21    C     0.15098   0.99513   0.43682   0.00000  Uiso   1.00
C22    C     0.09397   0.02999   0.50358   0.00000  Uiso   1.00
C23    C     0.03698   0.98230   0.57035   0.00000  Uiso   1.00
C24    C     0.20796   0.04283   0.37004   0.00000  Uiso   1.00
C25    C     0.20794   0.12538   0.37003   0.00000  Uiso   1.00
C26    C     0.15093   0.16024   0.43679   0.00000  Uiso   1.00
C27    C     0.09394   0.11254   0.50357   0.00000  Uiso   1.00
C28    C     0.03693   0.14740   0.57033   0.00000  Uiso   1.00
C29    C     0.97995   0.09970   0.63711   0.00000  Uiso   1.00
C30    C     0.97998   0.01715   0.63712   0.00000  Uiso   1.00
C31    C     0.15090   0.24279   0.43679   0.00000  Uiso   1.00
C32    C     0.03690   0.22995   0.57032   0.00000  Uiso   1.00
C33    C     0.30007   0.57084   0.50358   0.00000  Uiso   1.00
C34    C     0.38793   0.57083   0.50359   0.00000  Uiso   1.00
C35    C     0.06776   0.54476   0.77610   0.00000  Uiso   1.00
C36    C     0.05662   0.53363   0.89225   0.00000  Uiso   1.00
C37    C     0.09399   0.77703   0.50358   0.00000  Uiso   1.00
C38    C     0.09403   0.86488   0.50360   0.00000  Uiso   1.00
C39    C     0.12000   0.59693   0.23204   0.00000  Uiso   1.00
C40    C     0.13129   0.60828   0.11589   0.00000  Uiso   1.00
C41    C     0.09971   0.57670   0.94405   0.00000  Uiso   1.00
C42    C     0.08820   0.56520   0.06409   0.00000  Uiso   1.00
H1     H     0.80463   0.67431   0.38246   0.00000  Uiso   1.00
H2     H     0.93358   0.97831   0.69148   0.00000  Uiso   1.00
H3     H     0.04277   0.51981   0.10862   0.00000  Uiso   1.00
N1     N     0.19145   0.66841   0.05693   0.00000  Uiso   1.00
H4     H     0.19115   0.66811   0.97953   0.00000  Uiso   1.00
H5     H     0.24608   0.65430   0.07596   0.00000  Uiso   1.00
H6     H     0.68720   0.73132   0.31577   0.00000  Uiso   1.00
H7     H     0.19742   0.88420   0.38247   0.00000  Uiso   1.00
N2     N     0.97540   0.26754   0.64233   0.00000  Uiso   1.00
H8     H     0.94286   0.30582   0.59981   0.00000  Uiso   1.00
H9     H     0.00289   0.29713   0.69078   0.00000  Uiso   1.00
H10    H     0.78141   0.46744   0.62456   0.00000  Uiso   1.00
H11    H     0.01120   0.48825   0.93677   0.00000  Uiso   1.00
H12    H     0.65119   0.41041   0.69131   0.00000  Uiso   1.00
H13    H     0.14512   0.62209   0.89952   0.00000  Uiso   1.00
H14    H     0.38399   0.46740   0.62465   0.00000  Uiso   1.00
H15    H     0.50142   0.41038   0.69135   0.00000  Uiso   1.00
N3     N     0.91845   0.13730   0.70910   0.00000  Uiso   1.00
H16    H     0.92708   0.19683   0.69896   0.00000  Uiso   1.00
H17    H     0.92355   0.11575   0.78376   0.00000  Uiso   1.00
H18    H     0.40721   0.67428   0.38254   0.00000  Uiso   1.00
N4     N     0.97555   0.84831   0.64238   0.00000  Uiso   1.00
H19    H     0.00301   0.80945   0.69086   0.00000  Uiso   1.00
H20    H     0.94306   0.81815   0.59980   0.00000  Uiso   1.00
N5     N     0.26943   0.00522   0.29803   0.00000  Uiso   1.00
H21    H     0.30197   0.96693   0.34054   0.00000  Uiso   1.00
H22    H     0.30547   0.04800   0.25573   0.00000  Uiso   1.00
N6     N     0.52821   0.74637   0.29815   0.00000  Uiso   1.00
H23    H     0.46868   0.73771   0.30829   0.00000  Uiso   1.00
H24    H     0.54978   0.74129   0.22349   0.00000  Uiso   1.00
N7     N     0.26940   0.17682   0.29802   0.00000  Uiso   1.00
H25    H     0.30552   0.14221   0.25573   0.00000  Uiso   1.00
H26    H     0.30185   0.20701   0.34060   0.00000  Uiso   1.00
N8     N     0.21235   0.29422   0.36477   0.00000  Uiso   1.00
H27    H     0.24487   0.32443   0.40728   0.00000  Uiso   1.00
H28    H     0.18484   0.33304   0.31632   0.00000  Uiso   1.00
