# Generated by REPEAT Assigner based on pymatgen
data_DB5-hypotheticalMOF_14317_2_0_0_16_21_7
_audit_creation_date              2022-05-24
_audit_creation_method            REPEAT_Assigner
_cell_length_a                    18.215407
_cell_length_b                    16.959454
_cell_length_c                    18.215398
_cell_angle_alpha                 89.978830
_cell_angle_beta                  89.980536
_cell_angle_gamma                 90.020523
_cell_volume                      5627.160831
_symmetry_space_group_name_H-M    P1
_symmetry_Int_Tables_number       1
loop_
    _symmetry_equiv_pos_site_id
    _symmetry_equiv_pos_as_xyz
    1  x,y,z
loop_
    _atom_site_type_symbol
    _atom_site_label
    _atom_site_fract_x
    _atom_site_fract_y
    _atom_site_fract_z
    _atom_type_partial_charge
    Zn  Zn1  0.125094  0.685300  0.583862  1.290358
    Zn  Zn2  0.125013  0.553121  0.706920  1.290253
    Zn  Zn3  0.002027  0.685280  0.706915  1.273264
    Zn  Zn4  0.002003  0.553159  0.583895  1.296575
    O   O1   0.063534  0.619215  0.645398  -1.608333
    O   O2   0.228067  0.667759  0.600175  -0.579688
    O   O3   0.108676  0.570627  0.809903  -0.563543
    O   O4   0.018396  0.795894  0.690576  -0.603503
    O   O5   0.228008  0.570647  0.690584  -0.588633
    O   O6   0.108813  0.795908  0.600170  -0.602012
    O   O7   0.018318  0.667724  0.809900  -0.547946
    O   O8   0.899040  0.667761  0.690608  -0.562290
    O   O9   0.018354  0.570712  0.480906  -0.579414
    O   O10  0.899022  0.570692  0.600225  -0.571156
    O   O11  0.108789  0.667796  0.480882  -0.568825
    O   O12  0.108652  0.442515  0.690615  -0.557228
    O   O13  0.018276  0.442543  0.600230  -0.589307
    C   C1   0.872328  0.619228  0.645419  0.564868
    C   C2   0.790529  0.619215  0.645411  -0.017228
    C   C3   0.063473  0.413849  0.645410  0.442566
    C   C4   0.063514  0.325992  0.645391  0.251214
    C   C5   0.602345  0.568592  0.598407  -0.435456
    C   C6   0.525486  0.568589  0.598398  0.215407
    C   C7   0.525476  0.669824  0.692372  0.179547
    C   C8   0.602333  0.669829  0.692377  -0.401056
    C   C9   0.640766  0.619209  0.645396  0.404572
    C   C10  0.487050  0.619201  0.645382  -0.082530
    C   C11  0.403716  0.619198  0.645372  -0.103612
    C   C12  0.724105  0.619212  0.645404  -0.236953
    C   C13  0.016544  0.954501  0.598339  0.104664
    C   C14  0.110729  0.954532  0.692382  -0.311180
    C   C15  0.110704  0.037078  0.692389  0.145722
    C   C16  0.063597  0.078339  0.645371  0.090027
    C   C17  0.016515  0.037055  0.598346  -0.228201
    C   C18  0.157779  0.078368  0.739418  -0.179460
    C   C19  0.157755  0.160919  0.739427  -0.253302
    C   C20  0.110651  0.202182  0.692405  0.272097
    C   C21  0.063568  0.160893  0.645378  -0.094240
    C   C22  0.016461  0.202154  0.598360  0.155275
    C   C23  0.969381  0.160866  0.551328  -0.152404
    C   C24  0.969411  0.078317  0.551324  0.168259
    C   C25  0.110621  0.284731  0.692409  -0.387762
    C   C26  0.016432  0.284708  0.598366  -0.371729
    C   C27  0.255487  0.619201  0.645376  0.590409
    C   C28  0.337286  0.619195  0.645367  -0.034485
    C   C29  0.063578  0.619260  0.453445  0.575904
    C   C30  0.063596  0.619280  0.371646  -0.008423
    C   C31  0.063616  0.825383  0.645369  0.596055
    C   C32  0.063651  0.913240  0.645357  0.053177
    C   C33  0.110679  0.568819  0.106586  0.193478
    C   C34  0.110668  0.568791  0.183444  -0.421083
    C   C35  0.016569  0.669893  0.183458  -0.389261
    C   C36  0.016577  0.669916  0.106600  0.171676
    C   C37  0.063636  0.619380  0.068166  -0.060291
    C   C38  0.063617  0.619330  0.221882  0.384898
    C   C39  0.063605  0.619300  0.305216  -0.225312
    C   C40  0.063648  0.619408  0.984827  -0.110711
    C   C41  0.063533  0.619227  0.836604  0.538447
    C   C42  0.063657  0.619430  0.918403  -0.040668
    H   H1   0.633635  0.527375  0.560150  0.191653
    C   C43  0.162438  0.513228  0.064310  -0.133757
    H   H2   0.190449  0.483108  0.098202  0.051747
    H   H3   0.194517  0.543472  0.034319  0.061951
    H   H4   0.134274  0.478794  0.034338  0.062288
    C   C44  0.483227  0.512912  0.546709  -0.141767
    H   H5   0.517126  0.482765  0.518734  0.057201
    H   H6   0.453269  0.543103  0.514594  0.059982
    H   H7   0.453222  0.478506  0.574914  0.059964
    C   C45  0.964818  0.725523  0.064333  -0.086602
    H   H8   0.971555  0.718287  0.013055  0.045713
    H   H9   0.975592  0.778633  0.076912  0.044921
    H   H10  0.915368  0.713934  0.076946  0.046963
    H   H11  0.148949  0.318344  0.730705  0.172378
    C   C46  0.483197  0.725492  0.744055  -0.065817
    H   H12  0.431921  0.718234  0.737330  0.035775
    H   H13  0.495809  0.778588  0.733208  0.040574
    H   H14  0.495773  0.713985  0.793522  0.042944
    H   H15  0.633616  0.711053  0.730641  0.179512
    H   H16  0.196090  0.194531  0.777721  0.136907
    H   H17  0.149078  0.920932  0.730666  0.151049
    H   H18  0.196126  0.044767  0.777703  0.123855
    H   H19  0.978074  0.318298  0.560076  0.225338
    C   C47  0.917567  0.206259  0.499611  0.028503
    H   H20  0.924298  0.261334  0.506353  -0.018573
    H   H21  0.868130  0.192687  0.510420  0.031029
    H   H22  0.928321  0.192770  0.450149  0.029778
    H   H23  0.148975  0.527619  0.214722  0.190711
    H   H24  0.978256  0.711039  0.214760  0.176400
    C   C48  0.917626  0.032904  0.499596  -0.255995
    H   H25  0.889571  0.069298  0.471589  0.057133
    H   H26  0.885589  0.000663  0.527776  0.097571
    H   H27  0.945776  0.000739  0.467502  0.098557
    C   C49  0.964758  0.909090  0.546611  -0.174538
    H   H28  0.971517  0.854016  0.553340  0.021300
    H   H29  0.975493  0.922654  0.497156  0.086113
    H   H30  0.915311  0.922574  0.557435  0.087751
