# generated using pymatgen
data_Zn4H2C22N6O13
_symmetry_space_group_name_H-M   'P 1'
_cell_length_a   13.03329100
_cell_length_b   13.03457000
_cell_length_c   11.16940900
_cell_angle_alpha   82.84705500
_cell_angle_beta   97.21134200
_cell_angle_gamma   90.90831600
_symmetry_Int_Tables_number   1
_chemical_formula_structural   Zn4H2C22N6O13
_chemical_formula_sum   'Zn4 H2 C22 N6 O13'
_cell_volume   1867.83622580
_cell_formula_units_Z   1
loop_
 _symmetry_equiv_pos_site_id
 _symmetry_equiv_pos_as_xyz
  1  'x, y, z'
loop_
 _atom_site_type_symbol
 _atom_site_label
 _atom_site_symmetry_multiplicity
 _atom_site_fract_x
 _atom_site_fract_y
 _atom_site_fract_z
 _atom_site_occupancy
  Zn  Zn1  1  0.62445000  0.79022200  0.94660500  1
  Zn  Zn2  1  0.64617600  0.61822800  0.77421100  1
  Zn  Zn3  1  0.45245000  0.76834100  0.72399500  1
  Zn  Zn4  1  0.47425900  0.59650600  0.95290000  1
  H  H1  1  0.95369300  0.62687300  0.78263400  1
  H  H2  1  0.61593500  0.09784900  0.93565700  1
  C  C1  1  0.28210500  0.65944300  0.81530100  1
  C  C2  1  0.16778600  0.64492300  0.80073300  1
  C  C3  1  0.99078100  0.68587900  0.84198700  1
  C  C4  1  0.10893500  0.70088300  0.85704300  1
  C  C5  1  0.58319000  0.42616700  0.89336700  1
  C  C6  1  0.59776800  0.31188800  0.91221600  1
  C  C7  1  0.55686400  0.13479800  0.85912200  1
  C  C8  1  0.54179700  0.25291200  0.83964700  1
  C  C9  1  0.81760600  0.72733700  0.88368900  1
  C  C10  1  0.93192800  0.74183100  0.89828900  1
  C  C11  1  0.54939800  0.69344800  0.16246200  1
  C  C12  1  0.54942600  0.69350100  0.29585800  1
  C  C13  1  0.51537300  0.96152800  0.80534700  1
  C  C14  1  0.50090100  0.07582100  0.78656200  1
  C  C15  1  0.54931900  0.69328200  0.53760700  1
  C  C16  1  0.54945400  0.69354400  0.40418900  1
  C  C17  1  0.11769500  0.56519400  0.72055100  1
  C  C18  1  0.46199400  0.30281900  0.73623700  1
  C  C19  1  0.42110300  0.12573300  0.68315900  1
  C  C20  1  0.98202600  0.82155600  0.97846600  1
  C  C21  1  0.15902900  0.78061200  0.93722400  1
  C  C22  1  0.67757000  0.26198200  0.01562700  1
  N  N1  1  0.07996600  0.50514200  0.66016100  1
  N  N2  1  0.40188600  0.34041200  0.65835300  1
  N  N3  1  0.36099500  0.16332500  0.60527400  1
  N  N4  1  0.01975800  0.88160600  0.03885800  1
  N  N5  1  0.19676100  0.84066200  0.99761600  1
  N  N6  1  0.73767500  0.22439200  0.09351700  1
  O  O1  1  0.54933400  0.69332400  0.84942800  1
  O  O2  1  0.77126200  0.78565500  0.94211800  1
  O  O3  1  0.62044300  0.63807400  0.59960500  1
  O  O4  1  0.45704600  0.91513700  0.72987500  1
  O  O5  1  0.78722400  0.65929100  0.81546100  1
  O  O6  1  0.58341300  0.93121300  0.89342600  1
  O  O7  1  0.47811300  0.74836100  0.56271100  1
  O  O8  1  0.31141200  0.72729800  0.73597800  1
  O  O9  1  0.49421700  0.62226900  0.12001000  1
  O  O10  1  0.32743600  0.60105200  0.90415400  1
  O  O11  1  0.60456100  0.76459200  0.11538600  1
  O  O12  1  0.64159100  0.47145300  0.82156400  1
  O  O13  1  0.51528400  0.45549300  0.95284600  1
