# generated using pymatgen
data_ZnH12C23NO4
_symmetry_space_group_name_H-M   'P 1'
_cell_length_a   14.85356600
_cell_length_b   13.33907000
_cell_length_c   12.37645700
_cell_angle_alpha   104.39808300
_cell_angle_beta   78.69368700
_cell_angle_gamma   99.63185400
_symmetry_Int_Tables_number   1
_chemical_formula_structural   ZnH12C23NO4
_chemical_formula_sum   'Zn4 H48 C92 N4 O16'
_cell_volume   2310.84874214
_cell_formula_units_Z   4
loop_
 _symmetry_equiv_pos_site_id
 _symmetry_equiv_pos_as_xyz
  1  'x, y, z'
loop_
 _atom_site_type_symbol
 _atom_site_label
 _atom_site_symmetry_multiplicity
 _atom_site_fract_x
 _atom_site_fract_y
 _atom_site_fract_z
 _atom_site_occupancy
  Zn  Zn1  1  0.08357600  0.16552000  0.12392700  1
  Zn  Zn2  1  0.58357600  0.66552000  0.62392700  1
  Zn  Zn3  1  0.11638300  0.11447800  0.87621600  1
  Zn  Zn4  1  0.61638300  0.61447800  0.37621600  1
  H  H1  1  0.17137500  0.81115800  0.00008700  1
  H  H2  1  0.67137500  0.31115800  0.50008700  1
  H  H3  1  0.18284300  0.01101200  0.37411600  1
  H  H4  1  0.68284300  0.51101200  0.87411600  1
  H  H5  1  0.31572700  0.42547000  0.00009700  1
  H  H6  1  0.81572700  0.92547000  0.50009700  1
  H  H7  1  0.03776400  0.23686200  0.80354100  1
  H  H8  1  0.53776400  0.73686200  0.30354100  1
  H  H9  1  0.98842100  0.37528900  0.00003700  1
  H  H10  1  0.48842100  0.87528900  0.50003700  1
  H  H11  1  0.39701800  0.09684400  0.81414200  1
  H  H12  1  0.89701800  0.59684400  0.31414200  1
  H  H13  1  0.97968400  0.32724000  0.30398600  1
  H  H14  1  0.47968400  0.82724000  0.80398600  1
  H  H15  1  0.64755500  0.20126300  0.28850300  1
  H  H16  1  0.14755500  0.70126300  0.78850300  1
  H  H17  1  0.34780400  0.17348600  0.18600800  1
  H  H18  1  0.84780400  0.67348600  0.68600800  1
  H  H19  1  0.80293500  0.18315800  0.18599200  1
  H  H20  1  0.30293500  0.68315800  0.68599200  1
  H  H21  1  0.87030200  0.49273500  0.00003600  1
  H  H22  1  0.37030200  0.99273500  0.50003600  1
  H  H23  1  0.24869400  0.90852400  0.48146400  1
  H  H24  1  0.74869400  0.40852400  0.98146400  1
  H  H25  1  0.97192000  0.33937100  0.69619300  1
  H  H26  1  0.47192000  0.83937100  0.19619300  1
  H  H27  1  0.13979900  0.07800600  0.30396900  1
  H  H28  1  0.63979900  0.57800600  0.80396900  1
  H  H29  1  0.83328200  0.66299900  0.00002500  1
  H  H30  1  0.33328200  0.16299900  0.50002500  1
  H  H31  1  0.95127100  0.37147000  0.51869900  1
  H  H32  1  0.45127100  0.87147000  0.01869900  1
  H  H33  1  0.88421600  0.85452100  0.00005200  1
  H  H34  1  0.38421600  0.35452100  0.50005200  1
  H  H35  1  0.85215700  0.10651300  0.81410400  1
  H  H36  1  0.35215700  0.60651300  0.31410400  1
  H  H37  1  0.72392800  0.08238800  0.71163200  1
  H  H38  1  0.22392800  0.58238800  0.21163200  1
  H  H39  1  0.47604500  0.19762100  0.28848900  1
  H  H40  1  0.97604500  0.69762100  0.78848900  1
  H  H41  1  0.24857600  0.73441500  0.00009600  1
  H  H42  1  0.74857600  0.23441500  0.50009600  1
  H  H43  1  0.36667600  0.61697400  0.00011100  1
  H  H44  1  0.86667600  0.11697400  0.50011100  1
  H  H45  1  0.55239300  0.07873400  0.71164600  1
  H  H46  1  0.05239300  0.57873400  0.21164600  1
  H  H47  1  0.22028100  0.95277000  0.69616600  1
  H  H48  1  0.72028100  0.45277000  0.19616600  1
  C  C1  1  0.93694500  0.14715400  0.00006000  1
  C  C2  1  0.43694500  0.64715400  0.50006000  1
  C  C3  1  0.83633000  0.14501600  0.00005300  1
  C  C4  1  0.33633000  0.64501600  0.50005300  1
  C  C5  1  0.06028400  0.95499100  0.00007100  1
  C  C6  1  0.56028400  0.45499100  0.50007100  1
  C  C7  1  0.03040400  0.84264600  0.00006400  1
  C  C8  1  0.53040400  0.34264600  0.50006400  1
  C  C9  1  0.26273500  0.47818100  0.00008100  1
  C  C10  1  0.76273500  0.97818100  0.50008100  1
  C  C11  1  0.29081000  0.58373600  0.00009400  1
  C  C12  1  0.79081000  0.08373600  0.50009400  1
  C  C13  1  0.22571100  0.64846800  0.00008600  1
  C  C14  1  0.72571100  0.14846800  0.50008600  1
  C  C15  1  0.13253200  0.60763600  0.00006600  1
  C  C16  1  0.63253200  0.10763600  0.50006600  1
  C  C17  1  0.10445300  0.50207300  0.00006300  1
  C  C18  1  0.60445300  0.00207300  0.50006300  1
  C  C19  1  0.06742900  0.67236000  0.00006700  1
  C  C20  1  0.56742900  0.17236000  0.50006700  1
  C  C21  1  0.97425000  0.63152800  0.00004800  1
  C  C22  1  0.47425000  0.13152800  0.50004800  1
  C  C23  1  0.94617600  0.52597500  0.00004300  1
  C  C24  1  0.44617600  0.02597500  0.50004300  1
  C  C25  1  0.01127500  0.46124200  0.00005100  1
  C  C26  1  0.51127500  0.96124200  0.50005100  1
  C  C27  1  0.09550800  0.77792300  0.00007100  1
  C  C28  1  0.59550800  0.27792300  0.50007100  1
  C  C29  1  0.93722600  0.80181500  0.00005300  1
  C  C30  1  0.43722600  0.30181500  0.50005300  1
  C  C31  1  0.90915100  0.69626000  0.00004000  1
  C  C32  1  0.40915100  0.19626000  0.50004000  1
  C  C33  1  0.42446500  0.11486600  0.89758900  1
  C  C34  1  0.92446500  0.61486600  0.39758900  1
  C  C35  1  0.39734000  0.15710300  0.10256500  1
  C  C36  1  0.89734000  0.65710300  0.60256500  1
  C  C37  1  0.49187400  0.15910800  0.10256100  1
  C  C38  1  0.99187400  0.65910800  0.60256100  1
  C  C39  1  0.55270900  0.13899400  0.00007000  1
  C  C40  1  0.05270900  0.63899400  0.50007000  1
  C  C41  1  0.51900900  0.11687400  0.89758300  1
  C  C42  1  0.01900900  0.61687400  0.39758300  1
  C  C43  1  0.52558200  0.18123800  0.20504700  1
  C  C44  1  0.02558200  0.68123800  0.70504700  1
  C  C45  1  0.62012200  0.18324600  0.20504700  1
  C  C46  1  0.12012200  0.68324600  0.70504700  1
  C  C47  1  0.68095700  0.16312400  0.10255500  1
  C  C48  1  0.18095700  0.66312400  0.60255500  1
  C  C49  1  0.64725200  0.14100200  0.00006300  1
  C  C50  1  0.14725200  0.64100200  0.50006300  1
  C  C51  1  0.70808700  0.12088800  0.89757300  1
  C  C52  1  0.20808700  0.62088800  0.39757300  1
  C  C53  1  0.67438300  0.09875800  0.79508000  1
  C  C54  1  0.17438300  0.59875800  0.29508000  1
  C  C55  1  0.57984500  0.09675200  0.79509000  1
  C  C56  1  0.07984500  0.59675200  0.29509000  1
  C  C57  1  0.77549600  0.16513000  0.10254400  1
  C  C58  1  0.27549600  0.66513000  0.60254400  1
  C  C59  1  0.80263100  0.12289600  0.89756600  1
  C  C60  1  0.30263100  0.62289600  0.39756600  1
  C  C61  1  0.26301500  0.13284400  0.00008100  1
  C  C62  1  0.76301500  0.63284400  0.50008100  1
  C  C63  1  0.36363100  0.13498000  0.00008000  1
  C  C64  1  0.86363100  0.63498000  0.50008000  1
  C  C65  1  0.13967600  0.32500700  0.00007000  1
  C  C66  1  0.63967600  0.82500700  0.50007000  1
  C  C67  1  0.16955700  0.43735100  0.00006900  1
  C  C68  1  0.66955700  0.93735100  0.50006900  1
  C  C69  1  0.19072600  0.99875400  0.64798100  1
  C  C70  1  0.69072600  0.49875400  0.14798100  1
  C  C71  1  0.20638700  0.97437400  0.52964300  1
  C  C72  1  0.70638700  0.47437400  0.02964300  1
  C  C73  1  0.17009000  0.03086600  0.47047200  1
  C  C74  1  0.67009000  0.53086600  0.97047200  1
  C  C75  1  0.11812900  0.11174500  0.52965100  1
  C  C76  1  0.61812900  0.61174500  0.02965100  1
  C  C77  1  0.10247200  0.13613300  0.64800100  1
  C  C78  1  0.60247200  0.63613300  0.14800100  1
  C  C79  1  0.08183600  0.16824500  0.47049200  1
  C  C80  1  0.58183600  0.66824500  0.97049200  1
  C  C81  1  0.02987500  0.24912400  0.52967100  1
  C  C82  1  0.52987500  0.74912400  0.02967100  1
  C  C83  1  0.01422100  0.27350800  0.64800900  1
  C  C84  1  0.51422100  0.77350800  0.14800900  1
  C  C85  1  0.05051800  0.21701500  0.70718000  1
  C  C86  1  0.55051800  0.71701500  0.20718000  1
  C  C87  1  0.09749200  0.14385700  0.35214200  1
  C  C88  1  0.59749200  0.64385700  0.85214200  1
  C  C89  1  0.00923900  0.28123600  0.35216200  1
  C  C90  1  0.50923900  0.78123600  0.85216200  1
  C  C91  1  0.99357800  0.30561700  0.47050000  1
  C  C92  1  0.49357800  0.80561700  0.97050000  1
  N  N1  1  0.06119300  0.20035400  0.29298300  1
  N  N2  1  0.56119300  0.70035400  0.79298300  1
  N  N3  1  0.13877200  0.07963600  0.70716000  1
  N  N4  1  0.63877200  0.57963600  0.20716000  1
  O  O1  1  0.24169900  0.11276100  0.90607600  1
  O  O2  1  0.74169900  0.61276100  0.40607600  1
  O  O3  1  0.98316100  0.12849700  0.90605800  1
  O  O4  1  0.48316100  0.62849700  0.40605800  1
  O  O5  1  0.08275800  0.97332400  0.90606800  1
  O  O6  1  0.58275800  0.47332400  0.40606800  1
  O  O7  1  0.14210200  0.26793400  0.90606600  1
  O  O8  1  0.64210200  0.76793400  0.40606600  1
  O  O9  1  0.05785800  0.01206400  0.09407800  1
  O  O10  1  0.55785800  0.51206400  0.59407800  1
  O  O11  1  0.95826100  0.16723800  0.09406800  1
  O  O12  1  0.45826100  0.66723800  0.59406800  1
  O  O13  1  0.21679900  0.15150100  0.09408500  1
  O  O14  1  0.71679900  0.65150100  0.59408500  1
  O  O15  1  0.11720200  0.30667400  0.09407500  1
  O  O16  1  0.61720200  0.80667400  0.59407500  1
