# generated using pymatgen
data_Zn4H16C30O13
_symmetry_space_group_name_H-M   'P 1'
_cell_length_a   16.95945500
_cell_length_b   12.82789200
_cell_length_c   12.82788500
_cell_angle_alpha   89.97002400
_cell_angle_beta   90.02032100
_cell_angle_gamma   89.98766100
_symmetry_Int_Tables_number   1
_chemical_formula_structural   Zn4H16C30O13
_chemical_formula_sum   'Zn8 H32 C60 O26'
_cell_volume   2790.75780371
_cell_formula_units_Z   2
loop_
 _symmetry_equiv_pos_site_id
 _symmetry_equiv_pos_as_xyz
  1  'x, y, z'
loop_
 _atom_site_type_symbol
 _atom_site_label
 _atom_site_symmetry_multiplicity
 _atom_site_fract_x
 _atom_site_fract_y
 _atom_site_fract_z
 _atom_site_occupancy
  Zn  Zn1  1  0.20845600  0.41606600  0.59087300  1
  Zn  Zn2  1  0.70845600  0.91606600  0.09087300  1
  Zn  Zn3  1  0.20837600  0.59084400  0.41613300  1
  Zn  Zn4  1  0.70837600  0.09084400  0.91613300  1
  Zn  Zn5  1  0.07627100  0.41610800  0.41614400  1
  Zn  Zn6  1  0.57627100  0.91610800  0.91614400  1
  Zn  Zn7  1  0.07626000  0.59075600  0.59083000  1
  Zn  Zn8  1  0.57626000  0.09075600  0.09083000  1
  H  H1  1  0.84141400  0.38201600  0.38244000  1
  H  H2  1  0.34141400  0.88201600  0.88244000  1
  H  H3  1  0.10127800  0.55764500  0.93673200  1
  H  H4  1  0.60127800  0.05764500  0.43673200  1
  H  H5  1  0.10126700  0.07019600  0.55786700  1
  H  H6  1  0.60126700  0.57019600  0.05786700  1
  H  H7  1  0.10121600  0.93565000  0.55784100  1
  H  H8  1  0.60121600  0.43565000  0.05784100  1
  H  H9  1  0.56790700  0.69177900  0.69125900  1
  H  H10  1  0.06790700  0.19177900  0.19125900  1
  H  H11  1  0.10131500  0.55760300  0.07127700  1
  H  H12  1  0.60131500  0.05760300  0.57127700  1
  H  H13  1  0.23165900  0.38535700  0.10861800  1
  H  H14  1  0.73165900  0.88535700  0.60861800  1
  H  H15  1  0.71758400  0.31513900  0.31573500  1
  H  H16  1  0.21758400  0.81513900  0.81573500  1
  H  H17  1  0.23161300  0.38542300  0.89949200  1
  H  H18  1  0.73161300  0.88542300  0.39949200  1
  H  H19  1  0.23165200  0.10747000  0.38577200  1
  H  H20  1  0.73165200  0.60747000  0.88577200  1
  H  H21  1  0.71766900  0.69176300  0.69126300  1
  H  H22  1  0.21766900  0.19176300  0.19126300  1
  H  H23  1  0.44399800  0.38209400  0.38249300  1
  H  H24  1  0.94399800  0.88209400  0.88249300  1
  H  H25  1  0.56780500  0.31516200  0.31576100  1
  H  H26  1  0.06780500  0.81516200  0.81576100  1
  H  H27  1  0.84147900  0.62481900  0.62452300  1
  H  H28  1  0.34147900  0.12481900  0.12452300  1
  H  H29  1  0.23156400  0.89834600  0.38573200  1
  H  H30  1  0.73156400  0.39834600  0.88573200  1
  H  H31  1  0.44406700  0.62488400  0.62455900  1
  H  H32  1  0.94406700  0.12488400  0.12455900  1
  C  C1  1  0.93697500  0.50340900  0.50347100  1
  C  C2  1  0.43697500  0.00340900  0.00347100  1
  C  C3  1  0.84911800  0.50341900  0.50348500  1
  C  C4  1  0.34911800  0.00341900  0.00348500  1
  C  C5  1  0.14239500  0.50334200  0.77606500  1
  C  C6  1  0.64239500  0.00334200  0.27606500  1
  C  C7  1  0.14241800  0.50329900  0.89221800  1
  C  C8  1  0.64241800  0.00329900  0.39221800  1
  C  C9  1  0.14229100  0.77495300  0.50347600  1
  C  C10  1  0.64229100  0.27495300  0.00347600  1
  C  C11  1  0.14234300  0.89110600  0.50350300  1
  C  C12  1  0.64234300  0.39110600  0.00350300  1
  C  C13  1  0.47762200  0.43657600  0.43680700  1
  C  C14  1  0.97762200  0.93657600  0.93680700  1
  C  C15  1  0.47766300  0.57039700  0.57024200  1
  C  C16  1  0.97766300  0.07039700  0.07024200  1
  C  C17  1  0.56020900  0.57038200  0.57023600  1
  C  C18  1  0.06020900  0.07038200  0.07023600  1
  C  C19  1  0.60146500  0.50346400  0.50351300  1
  C  C20  1  0.10146500  0.00346400  0.00351300  1
  C  C21  1  0.56017600  0.43656100  0.43679600  1
  C  C22  1  0.06017600  0.93656100  0.93679600  1
  C  C23  1  0.60150400  0.63729100  0.63694400  1
  C  C24  1  0.10150400  0.13729100  0.13694400  1
  C  C25  1  0.68405500  0.63727900  0.63694000  1
  C  C26  1  0.18405500  0.13727900  0.13694000  1
  C  C27  1  0.72531300  0.57035500  0.57022100  1
  C  C28  1  0.22531300  0.07035500  0.07022100  1
  C  C29  1  0.68401900  0.50344900  0.50350200  1
  C  C30  1  0.18401900  0.00344900  0.00350200  1
  C  C31  1  0.72527500  0.43653100  0.43677900  1
  C  C32  1  0.22527500  0.93653100  0.93677900  1
  C  C33  1  0.68398200  0.36961900  0.37006500  1
  C  C34  1  0.18398200  0.86961900  0.87006500  1
  C  C35  1  0.60143300  0.36963700  0.37007800  1
  C  C36  1  0.10143300  0.86963700  0.87007800  1
  C  C37  1  0.80786100  0.57033700  0.57020800  1
  C  C38  1  0.30786100  0.07033700  0.07020800  1
  C  C39  1  0.80782900  0.43651600  0.43676900  1
  C  C40  1  0.30782900  0.93651600  0.93676900  1
  C  C41  1  0.34850900  0.50347900  0.50351900  1
  C  C42  1  0.84850900  0.00347900  0.00351900  1
  C  C43  1  0.43636600  0.50349400  0.50353000  1
  C  C44  1  0.93636600  0.00349400  0.00353000  1
  C  C45  1  0.14241200  0.23087300  0.50353600  1
  C  C46  1  0.64241200  0.73087300  0.00353600  1
  C  C47  1  0.14244200  0.11472000  0.50355400  1
  C  C48  1  0.64244200  0.61472000  0.00355400  1
  C  C49  1  0.19043000  0.94288800  0.44006300  1
  C  C50  1  0.69043000  0.44288800  0.94006300  1
  C  C51  1  0.19048400  0.06293900  0.44008900  1
  C  C52  1  0.69048400  0.56293900  0.94008900  1
  C  C53  1  0.14233200  0.50346900  0.23198500  1
  C  C54  1  0.64233200  0.00346900  0.73198500  1
  C  C55  1  0.14246200  0.50321700  0.11583200  1
  C  C56  1  0.64246200  0.00321700  0.61583200  1
  C  C57  1  0.19050700  0.43973400  0.06406300  1
  C  C58  1  0.69050700  0.93973400  0.56406300  1
  C  C59  1  0.19048400  0.43977800  0.94401200  1
  C  C60  1  0.69048400  0.93977800  0.44401200  1
  O  O1  1  0.14234100  0.50344300  0.50349500  1
  O  O2  1  0.64234100  0.00344300  0.00349500  1
  O  O3  1  0.31905600  0.43926900  0.56770600  1
  O  O4  1  0.81905600  0.93926900  0.06770600  1
  O  O5  1  0.19082300  0.56771900  0.26989800  1
  O  O6  1  0.69082300  0.06771900  0.76989800  1
  O  O7  1  0.09384400  0.26986600  0.43934400  1
  O  O8  1  0.59384400  0.76986600  0.93934400  1
  O  O9  1  0.31899700  0.56767800  0.43932600  1
  O  O10  1  0.81899700  0.06767800  0.93932600  1
  O  O11  1  0.19096000  0.26983500  0.56771700  1
  O  O12  1  0.69096000  0.76983500  0.06771700  1
  O  O13  1  0.09376600  0.43934100  0.26990600  1
  O  O14  1  0.59376600  0.93934100  0.76990600  1
  O  O15  1  0.96565900  0.43925600  0.43930300  1
  O  O16  1  0.46565900  0.93925600  0.93930300  1
  O  O17  1  0.09382600  0.56752900  0.73707200  1
  O  O18  1  0.59382600  0.06752900  0.23707200  1
  O  O19  1  0.96565100  0.56757000  0.56764400  1
  O  O20  1  0.46565100  0.06757000  0.06764400  1
  O  O21  1  0.19094900  0.43918400  0.73710300  1
  O  O22  1  0.69094900  0.93918400  0.23710300  1
  O  O23  1  0.19081200  0.73706800  0.43928500  1
  O  O24  1  0.69081200  0.23706800  0.93928500  1
  O  O25  1  0.09374700  0.73700400  0.56763400  1
  O  O26  1  0.59374700  0.23700400  0.06763400  1
