# Generated by REPEAT Assigner based on pymatgen
data_DB5-hypotheticalMOF_31429_2_0_2_10_2_4
_audit_creation_date              2022-05-24
_audit_creation_method            REPEAT_Assigner
_cell_length_a                    9.065218
_cell_length_b                    9.198806
_cell_length_c                    9.065218
_cell_angle_alpha                 90.001601
_cell_angle_beta                  85.015885
_cell_angle_gamma                 90.004041
_cell_volume                      753.082762
_symmetry_space_group_name_H-M    P1
_symmetry_Int_Tables_number       1
loop_
    _symmetry_equiv_pos_site_id
    _symmetry_equiv_pos_as_xyz
    1  x,y,z
loop_
    _atom_site_type_symbol
    _atom_site_label
    _atom_site_fract_x
    _atom_site_fract_y
    _atom_site_fract_z
    _atom_type_partial_charge
    O   O1   0.960401  0.120890  0.216354  -0.559922
    O   O2   0.531116  0.120891  0.234101  -0.622013
    O   O3   0.754631  0.120887  0.010585  -0.594983
    O   O4   0.736885  0.120893  0.439870  -0.606265
    O   O5   0.754614  0.879102  0.010583  -0.533782
    O   O6   0.531098  0.879106  0.234099  -0.599129
    O   O7   0.960383  0.879105  0.216352  -0.567721
    Cu  Cu1  0.745739  0.857029  0.225225  0.667597
    Cu  Cu2  0.745760  0.142967  0.225228  0.893432
    O   O8   0.736867  0.879108  0.439868  -0.605207
    C   C1   0.476120  0.999999  0.232394  0.932643
    C   C2   0.312277  0.000000  0.227294  -0.225917
    N   N1   0.745735  0.655915  0.225223  0.223654
    C   C3   0.832180  0.583718  0.311194  -0.154926
    C   C4   0.832203  0.416305  0.311192  0.140279
    C   C5   0.015378  -0.000000  0.218059  0.839097
    C   C6   0.179221  0.000009  0.223158  -0.196478
    C   C7   0.752917  0.999997  0.955597  0.867427
    C   C8   0.747817  0.000004  0.791755  -0.208236
    N   N2   0.745776  0.344081  0.225218  -0.354684
    C   C9   0.738582  0.000002  0.494855  0.907620
    C   C10  0.743681  0.000004  0.658698  -0.212244
    H   H1   0.906179  0.645847  0.384792  0.204151
    H   H2   0.671755  0.406160  0.151619  0.307446
    O   O9   0.647717  0.573655  0.127701  -0.382199
    H   H3   0.569588  0.504299  0.197584  0.318676
    H   H4   0.906204  0.354218  0.384803  0.121684
