# Generated by REPEAT Assigner based on pymatgen
data_DB5-hypotheticalMOF_26982_1_0_1_22_24_6
_audit_creation_date              2022-05-24
_audit_creation_method            REPEAT_Assigner
_cell_length_a                    16.956995
_cell_length_b                    15.625429
_cell_length_c                    16.053802
_cell_angle_alpha                 74.515382
_cell_angle_beta                  87.607939
_cell_angle_gamma                 80.348218
_cell_volume                      4041.177978
_symmetry_space_group_name_H-M    P1
_symmetry_Int_Tables_number       1
loop_
    _symmetry_equiv_pos_site_id
    _symmetry_equiv_pos_as_xyz
    1  x,y,z
loop_
    _atom_site_type_symbol
    _atom_site_label
    _atom_site_fract_x
    _atom_site_fract_y
    _atom_site_fract_z
    _atom_type_partial_charge
    O   O1   0.061920  0.032734  0.920604  -0.725642
    O   O2   0.830252  0.063833  0.911201  -0.745017
    O   O3   0.950392  0.918868  0.955083  -0.456648
    O   O4   0.941781  0.177699  0.876723  -0.573020
    O   O5   0.943778  0.926816  0.091536  -0.573716
    O   O6   0.823639  0.071781  0.047654  -0.728802
    O   O7   0.055307  0.040682  0.057057  -0.724715
    Zn  Zn1  0.938423  0.057494  0.074021  0.944977
    Zn  Zn2  0.947136  0.047021  0.894238  0.924366
    O   O8   0.935167  0.185648  0.013175  -0.475041
    C   C1   0.797263  0.069399  0.978947  0.951211
    C   C2   0.708817  0.074133  0.977519  0.014627
    C   C3   0.210076  0.109546  0.966766  -0.143761
    C   C4   0.293181  0.105091  0.968116  -0.057693
    C   C5   0.342951  0.021471  0.993438  0.372641
    C   C6   0.309612  0.942301  0.017404  -0.255174
    C   C7   0.226509  0.946756  0.016048  -0.058454
    C   C8   0.592375  0.999418  0.000129  0.011368
    C   C9   0.675483  0.994969  0.001485  -0.260713
    C   C10  0.659047  0.157760  0.952196  -0.074630
    C   C11  0.575942  0.162208  0.950847  -0.232778
    C   C12  0.542611  0.083037  0.974809  0.171241
    N   N1   0.427897  0.016916  0.994820  -0.316390
    N   N2   0.457666  0.087593  0.973420  0.063690
    C   C13  0.946041  0.889878  0.033288  0.632323
    C   C14  0.942919  0.791655  0.063019  -0.073203
    C   C15  0.950653  0.446954  0.788930  -0.104843
    C   C16  0.947715  0.354662  0.816893  -0.078739
    C   C17  0.940506  0.363340  0.965644  0.080172
    C   C18  0.943447  0.455634  0.937694  -0.126319
    C   C19  0.948520  0.497434  0.849336  0.258085
    C   C20  0.941314  0.506114  0.998100  0.124993
    C   C21  0.944251  0.598401  0.970152  0.027530
    C   C22  0.949321  0.640208  0.881798  -0.147222
    C   C23  0.951457  0.589721  0.821388  -0.137448
    C   C24  0.936236  0.464314  0.086458  -0.197325
    C   C25  0.934103  0.514794  0.146864  -0.160367
    C   C26  0.937045  0.607081  0.118916  0.221015
    C   C27  0.942115  0.648888  0.030562  0.006902
    C   C28  0.934910  0.657569  0.179326  -0.221488
    C   C29  0.937846  0.749856  0.151377  -0.065607
    C   C30  0.945052  0.741175  0.002613  -0.022549
    C   C31  0.088296  0.035116  0.989310  0.913744
    C   C32  0.176743  0.030381  0.990733  -0.056934
    C   C33  0.939518  0.214638  0.934969  0.692291
    C   C34  0.942640  0.312859  0.905232  -0.096496
    N   N3   0.932482  0.064640  0.196718  -0.022680
    N   N4   0.953083  0.039868  0.771543  -0.005418
    C   C35  0.983621  0.002976  0.259078  -0.080743
    C   C36  0.979473  0.007983  0.344969  0.030835
    C   C37  0.924189  0.074658  0.368497  0.385961
    C   C38  0.873045  0.136325  0.306130  -0.119121
    C   C39  0.877190  0.131313  0.220242  -0.020034
    C   C40  0.906084  0.096523  0.623288  -0.112699
    C   C41  0.901944  0.101532  0.709183  -0.066259
    C   C42  0.008372  0.973188  0.748016  -0.004348
    C   C43  0.012515  0.968186  0.662124  -0.126353
    C   C44  0.961368  0.029850  0.599765  0.252304
    N   N5   0.919950  0.079779  0.456291  -0.305053
    N   N6   0.965604  0.024724  0.511975  0.066003
    H   H1   0.716005  0.926872  0.022102  0.132354
    C   C45  0.928520  0.468804  0.244055  0.352058
    N   N7   0.924316  0.434165  0.317261  -0.406302
    H   H2   0.350141  0.874216  0.038016  0.150251
    H   H3   0.169559  0.177639  0.946153  0.118836
    C   C46  0.329843  0.192179  0.941762  0.303137
    N   N8   0.357456  0.257778  0.921915  -0.444394
    H   H4   0.565247  0.934952  0.019642  0.063055
    H   H5   0.050012  0.922983  0.798796  0.165811
    H   H6   0.199370  0.882292  0.035563  0.108433
    H   H7   0.856924  0.155830  0.728333  0.172088
    C   C47  0.934923  0.317350  0.062836  0.177679
    N   N9   0.930719  0.282711  0.136042  -0.341684
    C   C48  0.035710  0.940128  0.413568  0.110745
    N   N10  0.078064  0.889008  0.465240  -0.250806
    C   C49  0.950636  0.787159  0.905415  0.240066
    N   N11  0.954840  0.821795  0.832208  -0.352945
    C   C50  0.957041  0.635705  0.724189  0.285184
    N   N12  0.961244  0.670341  0.650982  -0.310767
    C   C51  0.820939  0.199155  0.151643  0.433823
    N   N13  0.778570  0.250256  0.099975  -0.386029
    C   C52  0.812225  0.209661  0.332017  0.319508
    N   N14  0.766413  0.264898  0.351513  -0.354354
    C   C53  0.956237  0.492938  0.691732  0.316871
    N   N15  0.960440  0.527574  0.618525  -0.361316
    C   C54  0.073327  0.894834  0.636252  0.303815
    N   N16  0.119132  0.839585  0.616765  -0.355475
    H   H8   0.951704  0.715356  0.859043  0.191771
    H   H9   0.864439  0.146734  0.572522  0.114505
    H   H10  0.949445  0.313565  0.767695  0.111163
    H   H11  0.933836  0.389170  0.109210  0.255237
    H   H12  0.930771  0.623523  0.251266  0.167647
    H   H13  0.535425  0.230300  0.930225  0.167617
    H   H14  0.936092  0.790962  0.200565  0.114947
    H   H15  0.686195  0.222216  0.932686  0.099509
    H   H16  0.028642  0.948686  0.239928  0.195126
