# generated using pymatgen
data_Cu2H14C21(NO2)4
_symmetry_space_group_name_H-M   'P 1'
_cell_length_a   9.06521800
_cell_length_b   16.99269500
_cell_length_c   7.54032900
_cell_angle_alpha   89.99607200
_cell_angle_beta   89.99696200
_cell_angle_gamma   87.84205400
_symmetry_Int_Tables_number   1
_chemical_formula_structural   Cu2H14C21(NO2)4
_chemical_formula_sum   'Cu2 H14 C21 N4 O8'
_cell_volume   1160.70727862
_cell_formula_units_Z   1
loop_
 _symmetry_equiv_pos_site_id
 _symmetry_equiv_pos_as_xyz
  1  'x, y, z'
loop_
 _atom_site_type_symbol
 _atom_site_label
 _atom_site_symmetry_multiplicity
 _atom_site_fract_x
 _atom_site_fract_y
 _atom_site_fract_z
 _atom_site_occupancy
  Cu  Cu1  1  0.75685400  0.11978300  0.17440700  1
  Cu  Cu2  1  0.75687000  0.11978500  0.82557600  1
  H  H1  1  0.97842800  0.86639400  0.00002400  1
  H  H2  1  0.55777600  0.52169700  0.99994500  1
  H  H3  1  0.01936800  0.34267800  0.99998200  1
  H  H4  1  0.47186400  0.74834600  0.99995900  1
  H  H5  1  0.07090600  0.55634600  0.00003000  1
  H  H6  1  0.13454700  0.48365600  0.89715400  1
  H  H7  1  0.13450500  0.48364200  0.10288800  1
  H  H8  1  0.49434500  0.89688600  0.99997700  1
  H  H9  1  0.50625100  0.30803900  0.99997600  1
  H  H10  1  0.44262800  0.38073400  0.89708900  1
  H  H11  1  0.44262100  0.38073400  0.10282400  1
  H  H12  1  0.07719600  0.73487100  0.00004200  1
  H  H13  1  0.99300900  0.67148200  0.89715100  1
  H  H14  1  0.99297200  0.67147800  0.10288600  1
  C  C1  1  0.48758700  0.12359600  0.99999000  1
  C  C2  1  0.32349200  0.12088400  0.99998900  1
  C  C3  1  0.75072600  0.97638500  0.00000500  1
  C  C4  1  0.73754200  0.88924700  0.00000500  1
  C  C5  1  0.86474800  0.83991000  0.00000800  1
  C  C6  1  0.85235200  0.75803600  0.99999100  1
  C  C7  1  0.71274800  0.72550000  0.99998400  1
  C  C8  1  0.58553300  0.77484300  0.99997600  1
  C  C9  1  0.59793100  0.85671600  0.99998000  1
  C  C10  1  0.66136400  0.48153700  0.99995900  1
  C  C11  1  0.64897600  0.39965700  0.99996000  1
  C  C12  1  0.91579700  0.38285600  0.99997200  1
  C  C13  1  0.92818200  0.46473100  0.99998700  1
  C  C14  1  0.80096700  0.51406700  0.99996900  1
  C  C15  1  0.02613800  0.11597200  0.99998900  1
  C  C16  1  0.19023200  0.11868400  0.99997800  1
  C  C17  1  0.76299800  0.26318300  0.99997400  1
  C  C18  1  0.77618200  0.35032000  0.99996300  1
  C  C19  1  0.08174300  0.50051900  0.00000600  1
  C  C20  1  0.49540900  0.36386600  0.99995200  1
  C  C21  1  0.99227900  0.70376800  0.00001200  1
  N  N1  1  0.70007400  0.64181100  0.99997200  1
  N  N2  1  0.81364200  0.59775500  0.99996800  1
  N  N3  1  0.75685300  0.11978100  0.41975500  1
  N  N4  1  0.75688200  0.11978000  0.58022800  1
  O  O1  1  0.97107400  0.11506500  0.85251000  1
  O  O2  1  0.54266400  0.12450400  0.85250800  1
  O  O3  1  0.75515200  0.00563000  0.85252300  1
  O  O4  1  0.75858600  0.23393900  0.85249500  1
  O  O5  1  0.75513800  0.00562800  0.14748800  1
  O  O6  1  0.54265100  0.12450200  0.14747300  1
  O  O7  1  0.97106000  0.11506400  0.14747600  1
  O  O8  1  0.75857300  0.23393800  0.14746000  1
