# generated using pymatgen
data_Zn4H9C27N5O13
_symmetry_space_group_name_H-M   'P 1'
_cell_length_a   13.03340900
_cell_length_b   13.03385500
_cell_length_c   12.75939300
_cell_angle_alpha   97.20880800
_cell_angle_beta   82.82945400
_cell_angle_gamma   76.69688900
_symmetry_Int_Tables_number   1
_chemical_formula_structural   Zn4H9C27N5O13
_chemical_formula_sum   'Zn8 H18 C54 N10 O26'
_cell_volume   2065.98621413
_cell_formula_units_Z   2
loop_
 _symmetry_equiv_pos_site_id
 _symmetry_equiv_pos_as_xyz
  1  'x, y, z'
loop_
 _atom_site_type_symbol
 _atom_site_label
 _atom_site_symmetry_multiplicity
 _atom_site_fract_x
 _atom_site_fract_y
 _atom_site_fract_z
 _atom_site_occupancy
  Zn  Zn1  1  0.67743600  0.37121900  0.29921300  1
  Zn  Zn2  1  0.17743600  0.87121900  0.79921300  1
  Zn  Zn3  1  0.69990400  0.19359000  0.09799600  1
  Zn  Zn4  1  0.19990400  0.69359000  0.59799600  1
  Zn  Zn5  1  0.49983600  0.39369600  0.14913500  1
  Zn  Zn6  1  0.99983600  0.89369600  0.64913500  1
  Zn  Zn7  1  0.52238100  0.21619300  0.29922600  1
  Zn  Zn8  1  0.02238100  0.71619300  0.79922600  1
  H  H1  1  0.21367400  0.22491400  0.13329700  1
  H  H2  1  0.71367400  0.72491400  0.63329700  1
  H  H3  1  0.81287200  0.38916000  0.78155200  1
  H  H4  1  0.31287200  0.88916000  0.28155200  1
  H  H5  1  0.04719400  0.18258600  0.08526900  1
  H  H6  1  0.54719400  0.68258600  0.58526900  1
  H  H7  1  0.98718700  0.36224900  0.28935000  1
  H  H8  1  0.48718700  0.86224900  0.78935000  1
  H  H9  1  0.69533900  0.50663900  0.64231500  1
  H  H10  1  0.19533900  0.00663900  0.14231500  1
  H  H11  1  0.66875200  0.68090900  0.13362700  1
  H  H12  1  0.16875200  0.18090900  0.63362700  1
  H  H13  1  0.49235100  0.18624300  0.61241000  1
  H  H14  1  0.99235100  0.68624300  0.11241000  1
  H  H15  1  0.80965600  0.38219400  0.60753600  1
  H  H16  1  0.30965600  0.88219400  0.10753600  1
  H  H17  1  0.68845600  0.50351600  0.81632500  1
  H  H18  1  0.18845600  0.00351600  0.31632500  1
  C  C1  1  0.32395300  0.32870200  0.25114000  1
  C  C2  1  0.82395300  0.82870200  0.75114000  1
  C  C3  1  0.20591000  0.34366200  0.26816500  1
  C  C4  1  0.70591000  0.84366200  0.76816500  1
  C  C5  1  0.03942900  0.30132100  0.22012300  1
  C  C6  1  0.53942900  0.80132100  0.72012300  1
  C  C7  1  0.16143400  0.28585600  0.20252100  1
  C  C8  1  0.66143400  0.78585600  0.70252100  1
  C  C9  1  0.63489400  0.01772700  0.17168600  1
  C  C10  1  0.13489400  0.51772700  0.67168600  1
  C  C11  1  0.64996600  0.89966300  0.15472000  1
  C  C12  1  0.14996600  0.39966300  0.65472000  1
  C  C13  1  0.59210600  0.85521500  0.22025600  1
  C  C14  1  0.09210600  0.35521500  0.72025600  1
  C  C15  1  0.60768300  0.73319000  0.20272300  1
  C  C16  1  0.10768300  0.23319000  0.70272300  1
  C  C17  1  0.87690300  0.25850900  0.17149100  1
  C  C18  1  0.37690300  0.75850900  0.67149100  1
  C  C19  1  0.99495000  0.24352400  0.15448800  1
  C  C20  1  0.49495000  0.74352400  0.65448800  1
  C  C21  1  0.59995000  0.29377200  0.48543100  1
  C  C22  1  0.09995000  0.79377200  0.98543100  1
  C  C23  1  0.59997600  0.29381400  0.60221000  1
  C  C24  1  0.09997600  0.79381400  0.10221000  1
  C  C25  1  0.56477700  0.57069600  0.25127400  1
  C  C26  1  0.06477700  0.07069600  0.75127400  1
  C  C27  1  0.54981400  0.68874600  0.26826900  1
  C  C28  1  0.04981400  0.18874600  0.76826900  1
  C  C29  1  0.59988000  0.29364600  0.93842300  1
  C  C30  1  0.09988000  0.79364600  0.43842300  1
  C  C31  1  0.60002200  0.29387700  0.82165800  1
  C  C32  1  0.10002200  0.79387700  0.32165800  1
  C  C33  1  0.65930200  0.35312500  0.65706800  1
  C  C34  1  0.15930200  0.85312500  0.15706800  1
  C  C35  1  0.65932200  0.35316000  0.76679400  1
  C  C36  1  0.15932200  0.85316000  0.26679400  1
  C  C37  1  0.54068900  0.23456400  0.76679300  1
  C  C38  1  0.04068900  0.73456400  0.26679300  1
  C  C39  1  0.54066400  0.23453600  0.65707000  1
  C  C40  1  0.04066400  0.73453600  0.15707000  1
  C  C41  1  0.72779700  0.42159200  0.65706900  1
  C  C42  1  0.22779700  0.92159200  0.15706900  1
  C  C43  1  0.72781800  0.42162700  0.76679500  1
  C  C44  1  0.22781800  0.92162700  0.26679500  1
  C  C45  1  0.13534200  0.42598300  0.36169400  1
  C  C46  1  0.63534200  0.92598300  0.86169400  1
  C  C47  1  0.50960400  0.92584400  0.31359500  1
  C  C48  1  0.00960400  0.42584400  0.81359500  1
  C  C49  1  0.46730700  0.75936900  0.36161200  1
  C  C50  1  0.96730700  0.25936900  0.86161200  1
  C  C51  1  0.73246600  0.82903400  0.06138000  1
  C  C52  1  0.23246600  0.32903400  0.56138000  1
  C  C53  1  0.47544700  0.16936300  0.82715000  1
  C  C54  1  0.97544700  0.66936300  0.32715000  1
  N  N1  1  0.08219000  0.48798600  0.43213900  1
  N  N2  1  0.58219000  0.98798600  0.93213900  1
  N  N3  1  0.44746300  0.97904100  0.38390100  1
  N  N4  1  0.94746300  0.47904100  0.88390100  1
  N  N5  1  0.40516500  0.81256400  0.43191900  1
  N  N6  1  0.90516500  0.31256400  0.93191900  1
  N  N7  1  0.79460700  0.77583800  0.99107400  1
  N  N8  1  0.29460700  0.27583800  0.49107400  1
  N  N9  1  0.42630500  0.12025300  0.87261100  1
  N  N10  1  0.92630500  0.62025300  0.37261100  1
  O  O1  1  0.59988900  0.29367400  0.21139300  1
  O  O2  1  0.09988900  0.79367400  0.71139300  1
  O  O3  1  0.82903700  0.32878900  0.25111400  1
  O  O4  1  0.32903700  0.82878900  0.75111400  1
  O  O5  1  0.67333200  0.22008200  0.95775600  1
  O  O6  1  0.17333200  0.72008200  0.45775600  1
  O  O7  1  0.50455700  0.53933900  0.19044000  1
  O  O8  1  0.00455700  0.03933900  0.69044000  1
  O  O9  1  0.84554400  0.19828600  0.10328100  1
  O  O10  1  0.34554400  0.69828600  0.60328100  1
  O  O11  1  0.63503900  0.52282400  0.30070200  1
  O  O12  1  0.13503900  0.02282400  0.80070200  1
  O  O13  1  0.52634300  0.36709900  0.99532800  1
  O  O14  1  0.02634300  0.86709900  0.49532800  1
  O  O15  1  0.35420700  0.38901700  0.19045300  1
  O  O16  1  0.85420700  0.88901700  0.69045300  1
  O  O17  1  0.54298200  0.23681000  0.44624800  1
  O  O18  1  0.04298200  0.73681000  0.94624800  1
  O  O19  1  0.37077100  0.25860600  0.30072400  1
  O  O20  1  0.87077100  0.75860600  0.80072400  1
  O  O21  1  0.65690100  0.35070700  0.44623900  1
  O  O22  1  0.15690100  0.85070700  0.94623900  1
  O  O23  1  0.69519300  0.04796400  0.10329300  1
  O  O24  1  0.19519300  0.54796400  0.60329300  1
  O  O25  1  0.56476800  0.06457100  0.25113600  1
  O  O26  1  0.06476800  0.56457100  0.75113600  1
