# Generated by REPEAT Assigner based on pymatgen
data_DB5-hypotheticalMOF_27892_0_0_2_7_7_2
_audit_creation_date              2022-05-24
_audit_creation_method            REPEAT_Assigner
_cell_length_a                    10.654550
_cell_length_b                    10.654550
_cell_length_c                    9.130313
_cell_angle_alpha                 89.999890
_cell_angle_beta                  90.003780
_cell_angle_gamma                 95.515097
_cell_volume                      1031.670073
_symmetry_space_group_name_H-M    P1
_symmetry_Int_Tables_number       1
loop_
    _symmetry_equiv_pos_site_id
    _symmetry_equiv_pos_as_xyz
    1  x,y,z
loop_
    _atom_site_type_symbol
    _atom_site_label
    _atom_site_fract_x
    _atom_site_fract_y
    _atom_site_fract_z
    _atom_type_partial_charge
    O   O1   0.667834  0.823607  0.121916  -0.614853
    O   O2   0.302356  0.806801  0.121892  -0.664475
    O   O3   0.493498  0.997943  0.121899  -0.606303
    O   O4   0.476692  0.632465  0.121909  -0.673496
    O   O5   0.493496  0.997938  0.878300  -0.520347
    O   O6   0.302353  0.806796  0.878293  -0.667905
    O   O7   0.667832  0.823602  0.878317  -0.553683
    Cu  Cu1  0.485092  0.815198  0.856063  0.743020
    Cu  Cu2  0.485095  0.815204  0.144146  0.876812
    O   O8   0.476689  0.632460  0.878310  -0.648528
    C   C1   0.255556  0.808032  0.000089  0.972117
    C   C2   0.116113  0.811724  0.000080  -0.158941
    C   C3   0.036627  0.699183  0.000105  0.149990
    C   C4   0.905607  0.702659  0.000130  -0.237836
    C   C5   0.933570  0.931229  0.000113  0.565718
    C   C6   0.064588  0.927751  0.000077  -0.375367
    C   C7   0.020482  0.567220  0.000121  -0.225304
    C   C8   0.889461  0.570696  0.000146  0.177669
    C   C9   0.492263  0.044739  0.000101  0.752638
    C   C10  0.488571  0.184182  0.000106  -0.101574
    C   C11  0.714631  0.822370  0.000123  0.809663
    C   C12  0.854074  0.818679  0.000141  -0.183311
    C   C13  0.477925  0.585664  0.000111  0.901317
    C   C14  0.481616  0.446221  0.000116  -0.170018
    N   N1   0.485099  0.815195  0.653440  -0.035423
    C   C15  0.601112  0.263668  0.000109  0.152662
    C   C16  0.597636  0.394688  0.000119  0.020315
    C   C17  0.369066  0.366725  0.000117  -0.083407
    C   C18  0.372544  0.235707  0.000118  -0.255544
    C   C19  0.733075  0.279813  0.000104  0.046075
    C   C20  0.729599  0.410834  0.000114  -0.239705
    C   C21  0.569759  0.899804  0.576791  0.097638
    C   C22  0.569756  0.899819  0.423454  0.116141
    C   C23  0.400429  0.730605  0.423429  -0.071520
    C   C24  0.400427  0.730597  0.576763  -0.047289
    C   C25  0.667523  0.997494  0.576805  0.083729
    C   C26  0.667519  0.997509  0.423468  0.109571
    N   N2   0.485098  0.815218  0.346769  -0.060231
    H   H1   0.847729  0.520977  0.102101  0.088218
    H   H2   0.331490  0.661729  0.360981  0.164083
    H   H3   0.280902  0.170993  0.000136  0.143695
    Cl  Cl1  0.634416  0.146527  0.641068  -0.111819
    H   H4   0.274601  0.408693  0.000128  0.092813
    Cl  Cl2  0.868786  0.077083  0.000108  -0.347803
    H   H5   0.784692  0.250457  0.102046  0.043762
    H   H6   0.331480  0.661713  0.639169  0.164586
    H   H7   0.049812  0.515607  0.898171  0.049807
    H   H8   0.775096  0.244184  0.894925  0.064474
    Cl  Cl3  0.808293  0.950253  0.650254  -0.098978
    H   H9   0.129302  0.019393  0.000036  0.136781
    H   H10  0.769481  0.456479  0.105296  0.082756
    H   H11  0.779319  0.452592  0.898173  0.115012
    H   H12  0.637006  0.088732  0.375916  0.047394
    Cl  Cl4  0.816522  0.964298  0.359214  -0.137641
    H   H13  0.056138  0.525203  0.105294  0.055560
    H   H14  0.843789  0.530813  0.894979  0.067284
