# generated using pymatgen
data_Zn4H12C40N4O13
_symmetry_space_group_name_H-M   'P 1'
_cell_length_a   19.80540700
_cell_length_b   19.80540500
_cell_length_c   11.16940900
_cell_angle_alpha   89.96282900
_cell_angle_beta   89.97765200
_cell_angle_gamma   90.02404200
_symmetry_Int_Tables_number   1
_chemical_formula_structural   Zn4H12C40N4O13
_chemical_formula_sum   'Zn8 H24 C80 N8 O26'
_cell_volume   4381.24490961
_cell_formula_units_Z   2
loop_
 _symmetry_equiv_pos_site_id
 _symmetry_equiv_pos_as_xyz
  1  'x, y, z'
loop_
 _atom_site_type_symbol
 _atom_site_label
 _atom_site_symmetry_multiplicity
 _atom_site_fract_x
 _atom_site_fract_y
 _atom_site_fract_z
 _atom_site_occupancy
  Zn  Zn1  1  0.03476500  0.73054300  0.32141700  1
  Zn  Zn2  1  0.53476500  0.23054300  0.82141700  1
  Zn  Zn3  1  0.03467000  0.61733400  0.52211700  1
  Zn  Zn4  1  0.53467000  0.11733400  0.02211700  1
  Zn  Zn5  1  0.92157000  0.73050900  0.52209100  1
  Zn  Zn6  1  0.42157000  0.23050900  0.02209100  1
  Zn  Zn7  1  0.92154200  0.61739600  0.32148100  1
  Zn  Zn8  1  0.42154200  0.11739600  0.82148100  1
  H  H1  1  0.59217300  0.59551100  0.56128700  1
  H  H2  1  0.09217300  0.09551100  0.06128700  1
  H  H3  1  0.72041900  0.59551800  0.56130600  1
  H  H4  1  0.22041900  0.09551800  0.06130600  1
  H  H5  1  0.05663700  0.28818000  0.28239400  1
  H  H6  1  0.55663700  0.78818000  0.78239400  1
  H  H7  1  0.89972400  0.06039900  0.56109000  1
  H  H8  1  0.39972400  0.56039900  0.06109000  1
  H  H9  1  0.89964000  0.28792000  0.56113200  1
  H  H10  1  0.39964000  0.78792000  0.06113200  1
  H  H11  1  0.23641600  0.59546600  0.56123900  1
  H  H12  1  0.73641600  0.09546600  0.06123900  1
  H  H13  1  0.89958900  0.41616500  0.56117000  1
  H  H14  1  0.39958900  0.91616500  0.06117000  1
  H  H15  1  0.72054300  0.75240100  0.28228100  1
  H  H16  1  0.22054300  0.25240100  0.78228100  1
  H  H17  1  0.05676900  0.93240900  0.28230900  1
  H  H18  1  0.55676900  0.43240900  0.78230900  1
  H  H19  1  0.36478200  0.75236600  0.28224000  1
  H  H20  1  0.86478200  0.25236600  0.78224000  1
  H  H21  1  0.36465000  0.59548200  0.56126500  1
  H  H22  1  0.86465000  0.09548200  0.06126500  1
  H  H23  1  0.05658800  0.41641400  0.28242300  1
  H  H24  1  0.55658800  0.91641400  0.78242300  1
  C  C1  1  0.80228100  0.67396700  0.42180600  1
  C  C2  1  0.30228100  0.17396700  0.92180600  1
  C  C3  1  0.72704900  0.67396000  0.42179000  1
  C  C4  1  0.22704900  0.17396000  0.92179000  1
  C  C5  1  0.69174100  0.71719200  0.34489400  1
  C  C6  1  0.19174100  0.21719200  0.84489400  1
  C  C7  1  0.62105300  0.71718800  0.34488900  1
  C  C8  1  0.12105300  0.21718800  0.84488900  1
  C  C9  1  0.58567300  0.67394800  0.42177500  1
  C  C10  1  0.08567300  0.17394800  0.92177500  1
  C  C11  1  0.62098500  0.63071400  0.49867900  1
  C  C12  1  0.12098500  0.13071400  0.99867900  1
  C  C13  1  0.69167200  0.63072200  0.49868900  1
  C  C14  1  0.19167200  0.13072200  0.99868900  1
  C  C15  1  0.33591200  0.63068400  0.49864300  1
  C  C16  1  0.83591200  0.13068400  0.99864300  1
  C  C17  1  0.26522000  0.63067800  0.49862400  1
  C  C18  1  0.76522000  0.13067800  0.99862400  1
  C  C19  1  0.26529300  0.71715000  0.34484300  1
  C  C20  1  0.76529300  0.21715000  0.84484300  1
  C  C21  1  0.33598000  0.71715800  0.34485200  1
  C  C22  1  0.83598000  0.21715800  0.84485200  1
  C  C23  1  0.37128600  0.67392600  0.42176100  1
  C  C24  1  0.87128600  0.17392600  0.92176100  1
  C  C25  1  0.44793400  0.67393200  0.42176600  1
  C  C26  1  0.94793400  0.17393200  0.92176600  1
  C  C27  1  0.50902600  0.67393900  0.42176400  1
  C  C28  1  0.00902600  0.17393900  0.92176400  1
  C  C29  1  0.97806000  0.49808900  0.42182000  1
  C  C30  1  0.47806000  0.99808900  0.92182000  1
  C  C31  1  0.97808800  0.42285800  0.42179800  1
  C  C32  1  0.47808800  0.92285800  0.92179800  1
  C  C33  1  0.02136600  0.38758500  0.34496900  1
  C  C34  1  0.52136600  0.88758500  0.84496900  1
  C  C35  1  0.02139000  0.31689600  0.34494700  1
  C  C36  1  0.52139000  0.81689600  0.84494700  1
  C  C37  1  0.97814000  0.28148200  0.42176100  1
  C  C38  1  0.47814000  0.78148200  0.92176100  1
  C  C39  1  0.93485800  0.31676000  0.49859300  1
  C  C40  1  0.43485800  0.81676000  0.99859300  1
  C  C41  1  0.93483100  0.38744700  0.49860900  1
  C  C42  1  0.43483100  0.88744700  0.99860900  1
  C  C43  1  0.93496700  0.03168600  0.49853200  1
  C  C44  1  0.43496700  0.53168600  0.99853200  1
  C  C45  1  0.93499900  0.96099400  0.49851300  1
  C  C46  1  0.43499900  0.46099400  0.99851300  1
  C  C47  1  0.02152600  0.96113600  0.34487000  1
  C  C48  1  0.52152600  0.46113600  0.84487000  1
  C  C49  1  0.02149900  0.03182300  0.34488500  1
  C  C50  1  0.52149900  0.53182300  0.84488500  1
  C  C51  1  0.97821500  0.06709500  0.42171300  1
  C  C52  1  0.47821500  0.56709500  0.92171300  1
  C  C53  1  0.97818800  0.14374300  0.42173500  1
  C  C54  1  0.47818800  0.64374300  0.92173500  1
  C  C55  1  0.97817000  0.20483500  0.42174600  1
  C  C56  1  0.47817000  0.70483500  0.92174600  1
  C  C57  1  0.15467900  0.67392400  0.42174700  1
  C  C58  1  0.65467900  0.17392400  0.92174700  1
  C  C59  1  0.22991100  0.67391500  0.42173400  1
  C  C60  1  0.72991100  0.17391500  0.92173400  1
  C  C61  1  0.97818900  0.67402100  0.10873400  1
  C  C62  1  0.47818900  0.17402100  0.60873400  1
  C  C63  1  0.97821100  0.67405300  0.97533400  1
  C  C64  1  0.47821100  0.17405300  0.47533400  1
  C  C65  1  0.97823300  0.85048800  0.42170700  1
  C  C66  1  0.47823300  0.35048800  0.92170700  1
  C  C67  1  0.97827300  0.92572000  0.42167700  1
  C  C68  1  0.47827300  0.42572000  0.92167700  1
  C  C69  1  0.97812400  0.67392000  0.73360100  1
  C  C70  1  0.47812400  0.17392000  0.23360100  1
  C  C71  1  0.97823300  0.67407800  0.86700100  1
  C  C72  1  0.47823300  0.17407800  0.36700100  1
  C  C73  1  0.58221800  0.76474500  0.26029400  1
  C  C74  1  0.08221800  0.26474500  0.76029400  1
  C  C75  1  0.06908200  0.07077500  0.26039200  1
  C  C76  1  0.56908200  0.57077500  0.76039200  1
  C  C77  1  0.22645000  0.76471700  0.26026100  1
  C  C78  1  0.72645000  0.26471700  0.76026100  1
  C  C79  1  0.88741300  0.92204000  0.58301100  1
  C  C80  1  0.38741300  0.42204000  0.08301100  1
  N  N1  1  0.55296800  0.80056700  0.19657300  1
  N  N2  1  0.05296800  0.30056700  0.69657300  1
  N  N3  1  0.10492200  0.10011200  0.19674800  1
  N  N4  1  0.60492200  0.60011200  0.69674800  1
  N  N5  1  0.19719400  0.80054500  0.19655800  1
  N  N6  1  0.69719400  0.30054500  0.69655800  1
  N  N7  1  0.85157400  0.89270000  0.64665100  1
  N  N8  1  0.35157400  0.39270000  0.14665100  1
  O  O1  1  0.97813700  0.67394600  0.42177600  1
  O  O2  1  0.47813700  0.17394600  0.92177600  1
  O  O3  1  0.12946900  0.71551400  0.34802400  1
  O  O4  1  0.62946900  0.21551400  0.84802400  1
  O  O5  1  0.01963900  0.63230700  0.69006300  1
  O  O6  1  0.51963900  0.13230700  0.19006300  1
  O  O7  1  0.93663700  0.82523000  0.49543400  1
  O  O8  1  0.43663700  0.32523000  0.99543400  1
  O  O9  1  0.12939900  0.63234000  0.49547800  1
  O  O10  1  0.62939900  0.13234000  0.99547800  1
  O  O11  1  0.01980100  0.82525500  0.34799900  1
  O  O12  1  0.51980100  0.32525500  0.84799900  1
  O  O13  1  0.93654500  0.71545600  0.69004500  1
  O  O14  1  0.43654500  0.21545600  0.19004500  1
  O  O15  1  0.82685000  0.71551600  0.49549600  1
  O  O16  1  0.32685000  0.21551600  0.99549600  1
  O  O17  1  0.93658900  0.63244600  0.15352300  1
  O  O18  1  0.43658900  0.13244600  0.65352300  1
  O  O19  1  0.82682900  0.63241200  0.34810800  1
  O  O20  1  0.32682900  0.13241200  0.84810800  1
  O  O21  1  0.01977300  0.71557400  0.15347600  1
  O  O22  1  0.51977300  0.21557400  0.65347600  1
  O  O23  1  0.01961200  0.52262600  0.49554000  1
  O  O24  1  0.51961200  0.02262600  0.99554000  1
  O  O25  1  0.93649700  0.52267100  0.34813300  1
  O  O26  1  0.43649700  0.02267100  0.84813300  1
