# Generated by REPEAT Assigner based on pymatgen
data_DB5-hypotheticalMOF_20702_1_1_1_10_10_4
_audit_creation_date              2022-05-24
_audit_creation_method            REPEAT_Assigner
_cell_length_a                    10.723023
_cell_length_b                    10.723023
_cell_length_c                    9.798715
_cell_angle_alpha                 90.002054
_cell_angle_beta                  90.002993
_cell_angle_gamma                 84.467548
_cell_volume                      1121.439432
_symmetry_space_group_name_H-M    P1
_symmetry_Int_Tables_number       1
loop_
    _symmetry_equiv_pos_site_id
    _symmetry_equiv_pos_as_xyz
    1  x,y,z
loop_
    _atom_site_type_symbol
    _atom_site_label
    _atom_site_fract_x
    _atom_site_fract_y
    _atom_site_fract_z
    _atom_type_partial_charge
    O   O1   0.657187  0.175020  0.113473  -0.489421
    O   O2   0.157187  0.675020  0.613473  -0.489449
    O   O3   0.294034  0.191775  0.113478  -0.547391
    O   O4   0.794034  0.691775  0.613478  -0.547392
    O   O5   0.483988  0.001821  0.113471  -0.739784
    O   O6   0.983988  0.501821  0.613471  -0.739815
    O   O7   0.467233  0.364974  0.113480  -0.665693
    O   O8   0.967233  0.864974  0.613480  -0.665701
    O   O9   0.483975  0.001820  0.886489  -0.563821
    O   O10  0.983975  0.501820  0.386489  -0.563820
    O   O11  0.294021  0.191773  0.886496  -0.680484
    O   O12  0.794021  0.691773  0.386496  -0.680489
    O   O13  0.657174  0.175019  0.886491  -0.554147
    O   O14  0.157174  0.675019  0.386491  -0.554146
    Zn  Zn1  0.475595  0.183396  0.850455  0.941196
    Zn  Zn2  0.975595  0.683396  0.350455  0.941196
    Zn  Zn3  0.475613  0.183398  0.149514  0.924933
    Zn  Zn4  0.975613  0.683398  0.649514  0.924939
    O   O15  0.467220  0.364972  0.886498  -0.603573
    O   O16  0.967220  0.864972  0.386498  -0.603597
    C   C1   0.247528  0.190555  0.999988  0.837835
    C   C2   0.747528  0.690555  0.499988  0.837862
    C   C3   0.108974  0.186908  0.999990  -0.675630
    C   C4   0.608974  0.686908  0.499990  -0.675639
    C   C5   0.904013  0.181513  0.117573  0.395309
    C   C6   0.404013  0.681513  0.617573  0.395349
    C   C7   0.047216  0.185282  0.117574  0.123339
    C   C8   0.547216  0.685282  0.617574  0.123311
    C   C9   0.482762  0.955321  0.999982  0.898578
    C   C10  0.982762  0.455321  0.499982  0.898650
    C   C11  0.479115  0.816767  0.999987  -0.540601
    C   C12  0.979115  0.316767  0.499987  -0.540680
    C   C13  0.477482  0.754988  0.882406  0.280810
    C   C14  0.977482  0.254988  0.382406  0.280761
    C   C15  0.473712  0.611785  0.882408  0.149193
    C   C16  0.973712  0.111785  0.382408  0.149254
    C   C17  0.703680  0.176239  0.999984  0.571787
    C   C18  0.203680  0.676239  0.499984  0.571813
    C   C19  0.842234  0.179886  0.999991  -0.019507
    C   C20  0.342234  0.679886  0.499991  -0.019531
    C   C21  0.468446  0.411473  0.999990  0.807576
    C   C22  0.968446  0.911473  0.499990  0.807595
    C   C23  0.472093  0.550027  0.999994  -0.105777
    C   C24  0.972093  0.050027  0.499994  -0.105803
    N   N1   0.475592  0.183394  0.646355  -0.363250
    N   N2   0.975592  0.683394  0.146355  -0.363235
    C   C25  0.555546  0.103465  0.421420  -0.047852
    C   C26  0.055546  0.603465  0.921420  -0.047844
    C   C27  0.555529  0.103466  0.578583  0.130919
    C   C28  0.055529  0.603466  0.078583  0.130891
    N   N3   0.475625  0.183390  0.353613  0.100765
    N   N4   0.975625  0.683390  0.853613  0.100747
    H   H1   0.100344  0.186689  0.218241  0.084506
    H   H2   0.600344  0.686689  0.718241  0.084501
    H   H3   0.055853  0.185516  0.899318  0.253115
    H   H4   0.555853  0.685516  0.399318  0.253125
    O   O17  0.479338  0.825345  0.749051  -0.289715
    O   O18  0.979338  0.325345  0.249051  -0.289672
    H   H5   0.393779  0.810816  0.689677  0.123350
    H   H6   0.893779  0.310816  0.189677  0.123349
    H   H7   0.407161  0.251820  0.588053  0.303457
    H   H8   0.907161  0.751820  0.088053  0.303444
    O   O19  0.384956  0.274016  0.430834  -0.353847
    O   O20  0.884956  0.774016  0.930834  -0.353853
    H   H9   0.438060  0.335070  0.495964  0.310832
    H   H10  0.938060  0.835070  0.995964  0.310840
    H   H11  0.623988  0.035040  0.363124  0.206505
    H   H12  0.123988  0.535040  0.863124  0.206513
    O   O21  0.912583  0.181753  0.866633  -0.421286
    O   O22  0.412583  0.681753  0.366633  -0.421276
    H   H13  0.982305  0.098417  0.860784  0.267846
    H   H14  0.482305  0.598417  0.360784  0.267849
    O   O23  0.471870  0.541425  0.749053  -0.599176
    O   O24  0.971870  0.041425  0.249053  -0.599215
    H   H15  0.469215  0.439988  0.769982  0.365777
    H   H16  0.969215  0.939988  0.269982  0.365800
    H   H17  0.623948  0.035034  0.636894  0.147471
    H   H18  0.123948  0.535034  0.136894  0.147475
    O   O25  0.473945  0.620376  0.133356  -0.325806
    O   O26  0.973945  0.120376  0.633356  -0.325793
    H   H19  0.560416  0.669295  0.139200  0.242242
    H   H20  0.060416  0.169295  0.639200  0.242239
    O   O27  0.833660  0.179666  0.250930  -0.280478
    O   O28  0.333660  0.679666  0.750930  -0.280540
    H   H21  0.732221  0.177005  0.230002  0.148449
    H   H22  0.232221  0.677005  0.730002  0.148482
    H   H23  0.477728  0.763639  0.100654  0.251460
    H   H24  0.977728  0.263639  0.600654  0.251495
