# generated using pymatgen
data_Zn4H16C26N4O13
_symmetry_space_group_name_H-M   'P 1'
_cell_length_a   16.95945400
_cell_length_b   10.68591200
_cell_length_c   10.68588000
_cell_angle_alpha   99.08382300
_cell_angle_beta   94.34045500
_cell_angle_gamma   85.61503300
_symmetry_Int_Tables_number   1
_chemical_formula_structural   Zn4H16C26N4O13
_chemical_formula_sum   'Zn8 H32 C52 N8 O26'
_cell_volume   1902.70353967
_cell_formula_units_Z   2
loop_
 _symmetry_equiv_pos_site_id
 _symmetry_equiv_pos_as_xyz
  1  'x, y, z'
loop_
 _atom_site_type_symbol
 _atom_site_label
 _atom_site_symmetry_multiplicity
 _atom_site_fract_x
 _atom_site_fract_y
 _atom_site_fract_z
 _atom_site_occupancy
  Zn  Zn1  1  0.73951200  0.00427600  0.13322300  1
  Zn  Zn2  1  0.23951200  0.50427600  0.63322300  1
  Zn  Zn3  1  0.61671200  0.02070400  0.34547900  1
  Zn  Zn4  1  0.11671200  0.52070400  0.84547900  1
  Zn  Zn5  1  0.73947500  0.23283800  0.36176200  1
  Zn  Zn6  1  0.23947500  0.73283800  0.86176200  1
  Zn  Zn7  1  0.59797000  0.21659600  0.14958500  1
  Zn  Zn8  1  0.09797000  0.71659600  0.64958500  1
  H  H1  1  0.35946400  0.25471600  0.11167200  1
  H  H2  1  0.85946400  0.75471600  0.61167200  1
  H  H3  1  0.22845600  0.32964900  0.03679500  1
  H  H4  1  0.72845600  0.82964900  0.53679500  1
  H  H5  1  0.80439500  0.59247500  0.13938600  1
  H  H6  1  0.30439500  0.09247500  0.63938600  1
  H  H7  1  0.74498500  0.47495800  0.12334500  1
  H  H8  1  0.24498500  0.97495800  0.62334500  1
  H  H9  1  0.07868200  0.32954700  0.03676100  1
  H  H10  1  0.57868200  0.82954700  0.53676100  1
  H  H11  1  0.55749300  0.71898200  0.32952700  1
  H  H12  1  0.05749300  0.21898200  0.82952700  1
  H  H13  1  0.57192400  0.60983800  0.42363500  1
  H  H14  1  0.07192400  0.10983800  0.92363500  1
  H  H15  1  0.96205600  0.25447000  0.11160100  1
  H  H16  1  0.46205600  0.75447000  0.61160100  1
  H  H17  1  0.98817200  0.98234000  0.38324800  1
  H  H18  1  0.48817200  0.48234000  0.88324800  1
  H  H19  1  0.11918900  0.90741400  0.45814300  1
  H  H20  1  0.61918900  0.40741400  0.95814300  1
  H  H21  1  0.26895200  0.90747900  0.45818000  1
  H  H22  1  0.76895200  0.40747900  0.95818000  1
  H  H23  1  0.61201400  0.01206800  0.71618900  1
  H  H24  1  0.11201400  0.51206800  0.21618900  1
  H  H25  1  0.36428200  0.91522500  0.45054400  1
  H  H26  1  0.86428200  0.41522500  0.95054400  1
  H  H27  1  0.43299900  0.90008900  0.34690000  1
  H  H28  1  0.93299900  0.40008900  0.84690000  1
  H  H29  1  0.74519800  0.24236100  0.88976800  1
  H  H30  1  0.24519800  0.74236100  0.38976800  1
  H  H31  1  0.80454900  0.22595800  0.77206500  1
  H  H32  1  0.30454900  0.72595800  0.27206500  1
  C  C1  1  0.65882500  0.44841200  0.27287700  1
  C  C2  1  0.15882500  0.94841200  0.77287700  1
  C  C3  1  0.65256300  0.58950300  0.28369800  1
  C  C4  1  0.15256300  0.08950300  0.78369800  1
  C  C5  1  0.46804700  0.11871200  0.24754200  1
  C  C6  1  0.96804700  0.61871200  0.74754200  1
  C  C7  1  0.38019200  0.11863800  0.24750300  1
  C  C8  1  0.88019200  0.61863800  0.74750300  1
  C  C9  1  0.00152500  0.19342600  0.17257100  1
  C  C10  1  0.50152500  0.69342600  0.67257100  1
  C  C11  1  0.01592300  0.04341700  0.32229700  1
  C  C12  1  0.51592300  0.54341700  0.82229700  1
  C  C13  1  0.09846700  0.04346300  0.32231200  1
  C  C14  1  0.59846700  0.54346300  0.82231200  1
  C  C15  1  0.13254400  0.11849200  0.24745700  1
  C  C16  1  0.63254400  0.61849200  0.74745700  1
  C  C17  1  0.08407600  0.19347700  0.17258700  1
  C  C18  1  0.58407600  0.69347700  0.67258700  1
  C  C19  1  0.14694100  0.96848900  0.39719000  1
  C  C20  1  0.64694100  0.46848900  0.89719000  1
  C  C21  1  0.22949100  0.96853300  0.39720900  1
  C  C22  1  0.72949100  0.46853300  0.89720900  1
  C  C23  1  0.26356900  0.04355600  0.32234600  1
  C  C24  1  0.76356900  0.54355600  0.82234600  1
  C  C25  1  0.21509600  0.11854300  0.24747300  1
  C  C26  1  0.71509600  0.61854300  0.74747300  1
  C  C27  1  0.24917300  0.19357200  0.17261800  1
  C  C28  1  0.74917300  0.69357200  0.67261800  1
  C  C29  1  0.20070100  0.26855300  0.09773600  1
  C  C30  1  0.70070100  0.76855300  0.59773600  1
  C  C31  1  0.11815500  0.26850000  0.09772500  1
  C  C32  1  0.61815500  0.76850000  0.59772500  1
  C  C33  1  0.34611500  0.04360900  0.32235800  1
  C  C34  1  0.84611500  0.54360900  0.82235800  1
  C  C35  1  0.33172500  0.19362300  0.17263400  1
  C  C36  1  0.83172500  0.69362300  0.67263400  1
  C  C37  1  0.87959000  0.11845800  0.24745200  1
  C  C38  1  0.37959000  0.61845800  0.74745200  1
  C  C39  1  0.96744800  0.11839700  0.24742600  1
  C  C40  1  0.46744800  0.61839700  0.74742600  1
  C  C41  1  0.65882600  0.09311900  0.91643300  1
  C  C42  1  0.15882600  0.59311900  0.41643300  1
  C  C43  1  0.65260800  0.08225900  0.77534700  1
  C  C44  1  0.15260800  0.58225900  0.27534700  1
  C  C45  1  0.68807200  0.78750800  0.22205900  1
  C  C46  1  0.18807200  0.28750800  0.72205900  1
  C  C47  1  0.69433300  0.64641700  0.21124200  1
  C  C48  1  0.19433300  0.14641700  0.71124200  1
  C  C49  1  0.68801200  0.14391600  0.57729800  1
  C  C50  1  0.18801200  0.64391600  0.07729800  1
  C  C51  1  0.69446300  0.15452900  0.71836400  1
  C  C52  1  0.19446300  0.65452900  0.21836400  1
  N  N1  1  0.74804500  0.56798600  0.11809100  1
  N  N2  1  0.24804500  0.06798600  0.61809100  1
  N  N3  1  0.59885400  0.66793600  0.37684000  1
  N  N4  1  0.09885400  0.16793600  0.87684000  1
  N  N5  1  0.39839500  0.96275800  0.40312100  1
  N  N6  1  0.89839500  0.46275800  0.90312100  1
  N  N7  1  0.74822800  0.24751400  0.79670500  1
  N  N8  1  0.24822800  0.74751400  0.29670500  1
  O  O1  1  0.67341700  0.11860400  0.24751200  1
  O  O2  1  0.17341700  0.61860400  0.74751200  1
  O  O3  1  0.73108100  0.82881900  0.14771700  1
  O  O4  1  0.23108100  0.32881900  0.64771700  1
  O  O5  1  0.64082500  0.06251600  0.52526500  1
  O  O6  1  0.14082500  0.56251600  0.02526500  1
  O  O7  1  0.85009300  0.20244100  0.33141400  1
  O  O8  1  0.35009300  0.70244100  0.83141400  1
  O  O9  1  0.64086000  0.84088900  0.30366000  1
  O  O10  1  0.14086000  0.34088900  0.80366000  1
  O  O11  1  0.85012000  0.03451700  0.16350700  1
  O  O12  1  0.35012000  0.53451700  0.66350700  1
  O  O13  1  0.73101900  0.21837100  0.53722900  1
  O  O14  1  0.23101900  0.71837100  0.03722900  1
  O  O15  1  0.71284600  0.40832000  0.34727900  1
  O  O16  1  0.21284600  0.90832000  0.84727900  1
  O  O17  1  0.60891700  0.17475900  0.96978800  1
  O  O18  1  0.10891700  0.67475900  0.46978800  1
  O  O19  1  0.60888200  0.39638700  0.19139200  1
  O  O20  1  0.10888200  0.89638700  0.69139200  1
  O  O21  1  0.71290800  0.01876800  0.95776700  1
  O  O22  1  0.21290800  0.51876800  0.45776700  1
  O  O23  1  0.50361200  0.04676700  0.31952500  1
  O  O24  1  0.00361200  0.54676700  0.81952500  1
  O  O25  1  0.48984300  0.19068900  0.17560300  1
  O  O26  1  0.98984300  0.69068900  0.67560300  1
