# Generated by REPEAT Assigner based on pymatgen
data_DB5-hypotheticalMOF_26785_0_0_1_22_2_5
_audit_creation_date              2022-05-24
_audit_creation_method            REPEAT_Assigner
_cell_length_a                    9.065215
_cell_length_b                    14.750779
_cell_length_c                    9.065218
_cell_angle_alpha                 102.831257
_cell_angle_beta                  94.984675
_cell_angle_gamma                 102.833014
_cell_volume                      1140.507943
_symmetry_space_group_name_H-M    P1
_symmetry_Int_Tables_number       1
loop_
    _symmetry_equiv_pos_site_id
    _symmetry_equiv_pos_as_xyz
    1  x,y,z
loop_
    _atom_site_type_symbol
    _atom_site_label
    _atom_site_fract_x
    _atom_site_fract_y
    _atom_site_fract_z
    _atom_type_partial_charge
    O   O1   0.071191  0.079806  0.247916  -0.651683
    O   O2   0.500478  0.079811  0.265668  -0.662586
    O   O3   0.276961  0.079806  0.042149  -0.672762
    O   O4   0.294709  0.079810  0.471435  -0.616550
    O   O5   0.213775  0.920154  0.978969  -0.666641
    O   O6   0.437292  0.920159  0.202489  -0.679922
    O   O7   0.008005  0.920154  0.184736  -0.626868
    Zn  Zn1  0.212617  0.894808  0.183582  0.932221
    Zn  Zn2  0.295867  0.105156  0.266823  0.930949
    O   O8   0.231523  0.920159  0.408256  -0.669537
    C   C1   0.523872  0.999986  0.232374  0.980095
    C   C2   0.687716  0.999988  0.227277  -0.244035
    N   N1   0.155790  0.751252  0.126771  0.169980
    C   C3   0.511392  0.399441  0.482222  -0.281098
    C   C4   0.471560  0.298941  0.442422  0.209675
    C   C5   0.273593  0.298974  0.244570  -0.199822
    C   C6   0.313413  0.399476  0.284348  0.130680
    C   C7   0.432312  0.449701  0.403176  -0.000084
    C   C8   0.234333  0.449737  0.205302  0.060101
    C   C9   0.274145  0.550230  0.245083  -0.058591
    C   C10  0.393037  0.600462  0.363909  -0.297891
    C   C11  0.472124  0.550195  0.442957  0.304107
    C   C12  0.115427  0.399509  0.086482  -0.387304
    C   C13  0.036348  0.449770  0.007436  0.463612
    C   C14  0.076166  0.550265  0.047209  -0.338118
    C   C15  0.195058  0.600498  0.166036  0.292863
    C   C16  0.997079  0.600533  0.968162  0.516586
    C   C17  0.036891  0.701026  0.007943  -0.430346
    C   C18  0.234870  0.700991  0.205816  -0.305718
    C   C19  0.984612  0.999982  0.218032  0.912346
    C   C20  0.820771  0.999988  0.223132  -0.244774
    C   C21  0.247074  0.999982  0.955573  0.953224
    C   C22  0.252175  0.999987  0.791732  -0.245934
    N   N2   0.352682  0.248713  0.323622  0.015061
    C   C23  0.261410  0.999985  0.494832  0.919358
    C   C24  0.256311  0.999987  0.658676  -0.239155
    H   H1   0.331700  0.741886  0.302567  0.202878
    N   N3   0.600370  0.604379  0.571118  -0.740827
    H   H2   0.682956  0.646065  0.530311  0.305830
    H   H3   0.644313  0.557232  0.615109  0.286249
    H   H4   0.608222  0.440336  0.578973  0.159057
    H   H5   0.425445  0.682290  0.396302  0.202842
    N   N4   0.556848  0.244729  0.527696  -0.555716
    H   H6   0.638204  0.291799  0.609010  0.275109
    H   H7   0.606313  0.203021  0.453798  0.278437
    H   H8   0.972494  0.741949  0.943576  0.221622
    H   H9   0.176780  0.258069  0.147822  0.202093
    H   H10  0.083013  0.317681  0.054102  0.200987
    N   N5   0.908109  0.395589  0.879282  -0.869854
    H   H11  0.948846  0.353886  0.796661  0.323218
    H   H12  0.864101  0.442738  0.835364  0.443342
    N   N6   0.868831  0.546350  0.840019  -0.747851
    H   H13  0.909555  0.504643  0.757393  0.200453
    H   H14  0.824818  0.593498  0.796100  0.340690
