# generated using pymatgen
data_Zn4H9C26N2Cl7O13
_symmetry_space_group_name_H-M   'P 1'
_cell_length_a   13.03289100
_cell_length_b   13.03457000
_cell_length_c   19.07691900
_cell_angle_alpha   80.27082500
_cell_angle_beta   94.61389400
_cell_angle_gamma   76.68420000
_symmetry_Int_Tables_number   1
_chemical_formula_structural   Zn4H9C26N2Cl7O13
_chemical_formula_sum   'Zn4 H9 C26 N2 Cl7 O13'
_cell_volume   3084.10411963
_cell_formula_units_Z   1
loop_
 _symmetry_equiv_pos_site_id
 _symmetry_equiv_pos_as_xyz
  1  'x, y, z'
loop_
 _atom_site_type_symbol
 _atom_site_label
 _atom_site_symmetry_multiplicity
 _atom_site_fract_x
 _atom_site_fract_y
 _atom_site_fract_z
 _atom_site_occupancy
  Zn  Zn1  1  0.64605800  0.33922100  0.59510700  1
  Zn  Zn2  1  0.67383100  0.16696400  0.49454300  1
  Zn  Zn3  1  0.47557800  0.36890800  0.46032700  1
  Zn  Zn4  1  0.49095100  0.18427800  0.59510100  1
  H  H1  1  0.96158100  0.33634800  0.48421700  1
  H  H2  1  0.46506800  0.71652600  0.45186900  1
  H  H3  1  0.44274900  0.13619300  0.93824200  1
  H  H4  1  0.63761600  0.64939800  0.58847700  1
  H  H5  1  0.50559300  0.88134800  0.48400300  1
  H  H6  1  0.66509900  0.35824200  0.80491500  1
  H  H7  1  0.44977800  0.14320900  0.80488800  1
  H  H8  1  0.18270100  0.19316300  0.58846000  1
  H  H9  1  0.47829200  0.17174100  0.26833100  1
  C  C1  1  0.29703700  0.30136200  0.50967800  1
  C  C2  1  0.17957900  0.31695900  0.49832200  1
  C  C3  1  0.60515800  0.98753100  0.56287000  1
  C  C4  1  0.61960700  0.86888200  0.57428300  1
  C  C5  1  0.01144300  0.27281600  0.53046600  1
  C  C6  1  0.13284400  0.25669100  0.54220300  1
  C  C7  1  0.57907000  0.70406100  0.54214000  1
  C  C8  1  0.56413500  0.82669100  0.53034800  1
  C  C9  1  0.84724400  0.22818000  0.56296500  1
  C  C10  1  0.96470500  0.21255600  0.57434100  1
  C  C11  1  0.56193100  0.25519100  0.71984500  1
  C  C12  1  0.55780900  0.25107800  0.79807400  1
  C  C13  1  0.53794800  0.54323300  0.50958300  1
  C  C14  1  0.52360600  0.66186600  0.49821100  1
  C  C15  1  0.58129200  0.27452600  0.35340700  1
  C  C16  1  0.58558200  0.27891200  0.27516900  1
  C  C17  1  0.61520000  0.30841100  0.83482900  1
  C  C18  1  0.61131400  0.30455200  0.90833200  1
  C  C19  1  0.55004100  0.24335300  0.94507900  1
  C  C20  1  0.49264300  0.18601800  0.90831800  1
  C  C21  1  0.49652400  0.18988400  0.83481500  1
  C  C22  1  0.53206500  0.22544300  0.16490600  1
  C  C23  1  0.52819100  0.22157900  0.23841400  1
  C  C24  1  0.64686100  0.34011500  0.23842200  1
  C  C25  1  0.65074100  0.34397000  0.16492000  1
  C  C26  1  0.59333900  0.28664000  0.12816400  1
  N  N1  1  0.54606900  0.23940500  0.02021100  1
  N  N2  1  0.59730500  0.29059500  0.05303300  1
  Cl  Cl1  1  0.04167800  0.11447600  0.64575600  1
  Cl  Cl2  1  0.72777400  0.42090900  0.11872900  1
  Cl  Cl3  1  0.71000600  0.78450200  0.64583000  1
  Cl  Cl4  1  0.10261000  0.41505400  0.42690800  1
  Cl  Cl5  1  0.68351900  0.37657900  0.95454400  1
  Cl  Cl6  1  0.71901400  0.41218800  0.28463200  1
  Cl  Cl7  1  0.45990200  0.15336900  0.11870900  1
  O  O1  1  0.57160400  0.26484300  0.53626900  1
  O  O2  1  0.79762500  0.29670100  0.59608900  1
  O  O3  1  0.65272200  0.19893100  0.39151500  1
  O  O4  1  0.48013600  0.51432800  0.46388800  1
  O  O5  1  0.81803000  0.17014500  0.52220600  1
  O  O6  1  0.60538600  0.49251700  0.56291000  1
  O  O7  1  0.50706700  0.34729800  0.36637600  1
  O  O8  1  0.32973500  0.36408600  0.46388200  1
  O  O9  1  0.50633600  0.19965300  0.69359100  1
  O  O10  1  0.34102900  0.22843900  0.56290100  1
  O  O11  1  0.62029300  0.31348900  0.69359600  1
  O  O12  1  0.66762900  0.01990200  0.52220000  1
  O  O13  1  0.53326700  0.03262300  0.59607900  1
