# Generated by REPEAT Assigner based on pymatgen
data_DB5-hypotheticalMOF_29973_3_0_2_24_21_3
_audit_creation_date              2022-05-24
_audit_creation_method            REPEAT_Assigner
_cell_length_a                    16.109301
_cell_length_b                    16.992695
_cell_length_c                    14.586319
_cell_angle_alpha                 89.995905
_cell_angle_beta                  89.999213
_cell_angle_gamma                 87.064852
_cell_volume                      3987.627242
_symmetry_space_group_name_H-M    P1
_symmetry_Int_Tables_number       1
loop_
    _symmetry_equiv_pos_site_id
    _symmetry_equiv_pos_as_xyz
    1  x,y,z
loop_
    _atom_site_type_symbol
    _atom_site_label
    _atom_site_fract_x
    _atom_site_fract_y
    _atom_site_fract_z
    _atom_type_partial_charge
    O   O1   0.109856  0.100784  0.923817  -0.678514
    O   O2   0.868631  0.113326  0.923802  -0.683911
    O   O3   0.988277  0.992913  0.923817  -0.657780
    O   O4   0.990211  0.221197  0.923802  -0.663082
    O   O5   0.988268  0.992911  0.076298  -0.657615
    O   O6   0.868622  0.113324  0.076283  -0.683740
    O   O7   0.109847  0.100782  0.076298  -0.678322
    Cu  Cu1  0.989234  0.107053  0.090213  1.045134
    Cu  Cu2  0.989244  0.107055  0.909887  1.045498
    O   O8   0.990202  0.221196  0.076283  -0.662831
    C   C1   0.837618  0.112817  0.000041  0.932925
    C   C2   0.745221  0.111294  0.000035  -0.132631
    C   C3   0.527480  0.179203  0.000042  -0.154150
    C   C4   0.440664  0.177766  0.000048  -0.143368
    C   C5   0.451005  0.034899  0.000053  -0.132465
    C   C6   0.537819  0.036337  0.000054  -0.028520
    C   C7   0.576055  0.108492  0.000043  0.320823
    C   C8   0.402424  0.105616  0.000049  0.280235
    C   C9   0.308294  0.104057  0.000055  -0.154356
    C   C10  0.670191  0.110051  0.000039  -0.179848
    C   C11  0.985784  0.963700  0.000057  0.785325
    C   C12  0.978361  0.876657  0.000056  0.063345
    C   C13  0.049987  0.826399  0.000062  -0.061740
    C   C14  0.043007  0.744614  0.000052  -0.090223
    C   C15  0.964400  0.713089  0.000045  0.457715
    C   C16  0.892768  0.763355  0.000037  -0.361673
    C   C17  0.899749  0.845138  0.000039  0.041879
    C   C18  0.935467  0.469499  0.000030  -0.041357
    C   C19  0.928491  0.387709  0.000030  -0.112857
    C   C20  0.078731  0.368974  0.000045  -0.076413
    C   C21  0.085704  0.450760  0.000053  -0.215782
    C   C22  0.014073  0.501018  0.000040  0.256709
    N   N1   0.957263  0.629492  0.000038  -0.338355
    N   N2   0.021210  0.584613  0.000040  0.038289
    C   C23  0.140860  0.101291  0.000057  0.960740
    C   C24  0.233257  0.102814  0.000057  -0.186718
    C   C25  0.992694  0.250408  0.000041  0.805956
    C   C26  0.000118  0.337451  0.000036  0.092109
    N   N3   0.989232  0.107051  0.217045  -0.147004
    N   N4   0.989252  0.107051  0.783055  -0.147412
    C   C27  0.042231  0.053750  0.452058  -0.154114
    C   C28  0.042233  0.053748  0.548039  -0.153780
    C   C29  0.936247  0.160355  0.548036  -0.156100
    C   C30  0.936241  0.160352  0.452056  -0.156580
    C   C31  0.989238  0.107051  0.404070  0.219701
    C   C32  0.989246  0.107051  0.596030  0.219016
    C   C33  0.989248  0.107050  0.700098  0.042513
    C   C34  0.989235  0.107051  0.299996  0.042009
    H   H1   0.401118  0.235347  0.000048  0.119884
    H   H2   0.085384  0.010345  0.587108  0.151359
    H   H3   0.137048  0.328046  0.000053  0.096660
    Br  Br1  0.399108  0.936980  0.000063  0.032368
    H   H4   0.893100  0.203753  0.587116  0.152899
    Br  Br2  0.603748  0.940365  0.000067  -0.026473
    Br  Br3  0.579369  0.277126  0.000031  0.018093
    H   H5   0.085383  0.010347  0.412989  0.151421
    H   H6   0.893084  0.203757  0.412982  0.152993
    H   H7   0.828765  0.737681  0.000024  0.184531
    Br  Br4  0.156673  0.869173  0.000086  -0.011626
    Br  Br5  0.821804  0.344927  0.000029  -0.008124
    Br  Br6  0.140218  0.676408  0.000059  -0.046051
    H   H8   0.877139  0.510410  0.000020  0.061591
    Br  Br7  0.192389  0.493537  0.000034  0.037372
    Br  Br8  0.802538  0.913348  0.000025  -0.025577
