# generated using pymatgen
data_Cu2H47C52N17O8
_symmetry_space_group_name_H-M   'P 1'
_cell_length_a   19.28886400
_cell_length_b   17.69908300
_cell_length_c   17.76627700
_cell_angle_alpha   89.99274000
_cell_angle_beta   89.97679100
_cell_angle_gamma   83.20963000
_symmetry_Int_Tables_number   1
_chemical_formula_structural   Cu2H47C52N17O8
_chemical_formula_sum   'Cu2 H47 C52 N17 O8'
_cell_volume   6022.77542648
_cell_formula_units_Z   1
loop_
 _symmetry_equiv_pos_site_id
 _symmetry_equiv_pos_as_xyz
  1  'x, y, z'
loop_
 _atom_site_type_symbol
 _atom_site_label
 _atom_site_symmetry_multiplicity
 _atom_site_fract_x
 _atom_site_fract_y
 _atom_site_fract_z
 _atom_site_occupancy
  Cu  Cu1  1  0.82032200  0.10077900  0.07380800  1
  Cu  Cu2  1  0.82034400  0.10078600  0.92575800  1
  H  H1  1  0.49329600  0.97815900  0.99980500  1
  H  H2  1  0.94723100  0.91966400  0.99976800  1
  H  H3  1  0.98343500  0.84442100  0.04616500  1
  H  H4  1  0.94865000  0.96084900  0.21171500  1
  H  H5  1  0.89213700  0.96014300  0.14213400  1
  H  H6  1  0.95348400  0.49731100  0.95333800  1
  H  H7  1  0.95343200  0.49726200  0.04618400  1
  H  H8  1  0.70363200  0.49049900  0.99979600  1
  H  H9  1  0.93735000  0.24629300  0.99975200  1
  H  H10  1  0.97562400  0.31065900  0.95334000  1
  H  H11  1  0.66694500  0.95958400  0.04625800  1
  H  H12  1  0.60786900  0.91797900  0.99981200  1
  H  H13  1  0.70737100  0.74458600  0.99980100  1
  H  H14  1  0.26633600  0.00386600  0.92017800  1
  H  H15  1  0.90620600  0.00717500  0.67131800  1
  H  H16  1  0.59426000  0.23054900  0.99981600  1
  H  H17  1  0.80257300  0.23366400  0.63756000  1
  H  H18  1  0.83971900  0.27554300  0.56785800  1
  H  H19  1  0.94871000  0.96087500  0.78776000  1
  H  H20  1  0.94937400  0.02246600  0.85735400  1
  H  H21  1  0.39776200  0.00596400  0.92020300  1
  H  H22  1  0.22004500  0.95244600  0.04616100  1
  H  H23  1  0.16097100  0.91084300  0.99971100  1
  H  H24  1  0.24290200  0.19559900  0.07933900  1
  H  H25  1  0.70946900  0.88780500  0.99980700  1
  H  H26  1  0.98148300  0.70788900  0.95334900  1
  H  H27  1  0.98140100  0.70790300  0.04619500  1
  H  H28  1  0.83707300  0.97567000  0.42831400  1
  H  H29  1  0.64509900  0.38212900  0.99981500  1
  H  H30  1  0.68142600  0.30694500  0.95340400  1
  H  H31  1  0.90617500  0.00716800  0.32818500  1
  H  H32  1  0.72918000  0.20020900  0.88064600  1
  H  H33  1  0.72992400  0.26170800  0.81096500  1
  H  H34  1  0.83708100  0.97567400  0.57127500  1
  H  H35  1  0.69201600  0.24071600  0.69789200  1
  H  H36  1  0.74851500  0.24141500  0.62824700  1
  H  H37  1  0.01593600  0.22130800  0.99972300  1
  H  H38  1  0.11546600  0.28494600  0.99973000  1
  H  H39  1  0.18439700  0.24527300  0.04614800  1
  H  H40  1  0.80358600  0.22589800  0.42829300  1
  H  H41  1  0.04640100  0.97101600  0.99968100  1
  H  H42  1  0.73447100  0.19438600  0.32825200  1
  H  H43  1  0.69196700  0.24070100  0.21180100  1
  H  H44  1  0.74846900  0.24140200  0.14215900  1
  H  H45  1  0.37433600  0.19770200  0.07936200  1
  H  H46  1  0.47964900  0.29076400  0.99979400  1
  H  H47  1  0.42063600  0.24903900  0.95337600  1
  C  C1  1  0.69333300  0.10674100  0.99981500  1
  C  C2  1  0.61622800  0.10551100  0.99983500  1
  C  C3  1  0.57161300  0.17390600  0.99982000  1
  C  C4  1  0.49916400  0.17275100  0.99981200  1
  C  C5  1  0.47133400  0.10319600  0.99980300  1
  C  C6  1  0.51595900  0.03479100  0.99982300  1
  C  C7  1  0.58840600  0.03594900  0.99983800  1
  C  C8  1  0.36301400  0.04852000  0.95592100  1
  C  C9  1  0.29056800  0.04736500  0.95590100  1
  C  C10  1  0.24788400  0.09962200  0.99975800  1
  C  C11  1  0.27765400  0.15304700  0.04362500  1
  C  C12  1  0.35010100  0.15420400  0.04364100  1
  C  C13  1  0.39277900  0.10193200  0.99978700  1
  C  C14  1  0.12471200  0.16676900  0.99973500  1
  C  C15  1  0.05226200  0.16561000  0.99973100  1
  C  C16  1  0.06905900  0.02764900  0.99973500  1
  C  C17  1  0.14150700  0.02880900  0.99974600  1
  C  C18  1  0.16932900  0.09837100  0.99974200  1
  C  C19  1  0.82563700  0.96238900  0.99978800  1
  C  C20  1  0.82440900  0.87837300  0.99978900  1
  C  C21  1  0.88712000  0.82966400  0.99977400  1
  C  C22  1  0.88596100  0.75072200  0.99976800  1
  C  C23  1  0.82209100  0.72049100  0.99978100  1
  C  C24  1  0.75937500  0.76920600  0.99979400  1
  C  C25  1  0.76053500  0.84814600  0.99979500  1
  C  C26  1  0.75469900  0.45085000  0.99978900  1
  C  C27  1  0.75354500  0.37190300  0.99979000  1
  C  C28  1  0.88012600  0.35342500  0.99976200  1
  C  C29  1  0.88128500  0.43236500  0.99976300  1
  C  C30  1  0.81857000  0.48107400  0.99977100  1
  C  C31  1  0.81982700  0.56667100  0.99977700  1
  C  C32  1  0.82083400  0.63489500  0.99978100  1
  C  C33  1  0.94733200  0.09482400  0.99974900  1
  C  C34  1  0.02443700  0.09605400  0.99972400  1
  C  C35  1  0.81502800  0.23917600  0.99977600  1
  C  C36  1  0.81625700  0.32319300  0.99977000  1
  C  C37  1  0.86763400  0.04918400  0.21731600  1
  C  C38  1  0.86763800  0.04918000  0.29611800  1
  C  C39  1  0.82032600  0.10078000  0.33553900  1
  C  C40  1  0.77299400  0.15237400  0.29615100  1
  C  C41  1  0.77298700  0.15237100  0.21735100  1
  C  C42  1  0.81110900  0.16974200  0.46037500  1
  C  C43  1  0.81112100  0.16974600  0.53917400  1
  C  C44  1  0.82034400  0.10078900  0.57858500  1
  C  C45  1  0.82957000  0.03182500  0.53918800  1
  C  C46  1  0.82956300  0.03182200  0.46038800  1
  C  C47  1  0.82032800  0.10078900  0.42098400  1
  C  C48  1  0.86767400  0.04919100  0.70340900  1
  C  C49  1  0.86767300  0.04918600  0.78221200  1
  C  C50  1  0.77303300  0.15238600  0.78224400  1
  C  C51  1  0.77303000  0.15238400  0.70344200  1
  C  C52  1  0.82035500  0.10078700  0.66402900  1
  N  N1  1  0.82031100  0.10077400  0.17793800  1
  N  N2  1  0.82036000  0.10078600  0.82162800  1
  N  N3  1  0.95601000  0.86226400  0.99976100  1
  N  N4  1  0.91867100  0.99353300  0.17480600  1
  N  N5  1  0.95017600  0.46496500  0.99974600  1
  N  N6  1  0.94777200  0.30089000  0.99975200  1
  N  N7  1  0.63653600  0.96217900  0.99984500  1
  N  N8  1  0.80116500  0.24412400  0.58166100  1
  N  N9  1  0.91872800  0.99355300  0.82468800  1
  N  N10  1  0.18963700  0.95504200  0.99974800  1
  N  N11  1  0.95359800  0.69818400  0.99975900  1
  N  N12  1  0.68465400  0.33929500  0.99981000  1
  N  N13  1  0.72199700  0.20803600  0.82475100  1
  N  N14  1  0.72198900  0.20802800  0.66096400  1
  N  N15  1  0.15472700  0.24179100  0.99973500  1
  N  N16  1  0.72194200  0.20801400  0.17487300  1
  N  N17  1  0.45103100  0.24652200  0.99979400  1
  O  O1  1  0.92146500  0.09441700  0.93716300  1
  O  O2  1  0.71921900  0.10715400  0.93721400  1
  O  O3  1  0.82605600  0.99058800  0.93719400  1
  O  O4  1  0.81462800  0.21098300  0.93718300  1
  O  O5  1  0.82603700  0.99058300  0.06238200  1
  O  O6  1  0.71920100  0.10714800  0.06240300  1
  O  O7  1  0.92144600  0.09441100  0.06235100  1
  O  O8  1  0.81460900  0.21097700  0.06237200  1
