data_DB5-hypotheticalMOF_14226_0_0_0_16_2_5_repeat
_audit_creation_date              2024-02-23
_audit_creation_method            'Materials Studio'
_symmetry_space_group_name_H-M    'P1'
_symmetry_Int_Tables_number       1
_symmetry_cell_setting            triclinic
loop_
_symmetry_equiv_pos_as_xyz
  x,y,z
_cell_length_a                    16.9595
_cell_length_b                    16.9595
_cell_length_c                    11.1694
_cell_angle_alpha                 89.9770
_cell_angle_beta                  90.0373
_cell_angle_gamma                 89.9852
loop_
_atom_site_label
_atom_site_type_symbol
_atom_site_fract_x
_atom_site_fract_y
_atom_site_fract_z
_atom_site_U_iso_or_equiv
_atom_site_adp_type
_atom_site_occupancy
Zn1    Zn    0.68527   0.79156   0.67860   0.00000  Uiso   1.00
Zn2    Zn    0.55307   0.79165   0.47790   0.00000  Uiso   1.00
Zn3    Zn    0.68524   0.92375   0.47793   0.00000  Uiso   1.00
Zn4    Zn    0.55314   0.92376   0.67854   0.00000  Uiso   1.00
O1     O     0.61918   0.85768   0.57824   0.00000  Uiso   1.00
O2     O     0.66772   0.68096   0.65200   0.00000  Uiso   1.00
O3     O     0.57055   0.80921   0.30996   0.00000  Uiso   1.00
O4     O     0.79585   0.90616   0.50458   0.00000  Uiso   1.00
O5     O     0.57058   0.68103   0.50454   0.00000  Uiso   1.00
O6     O     0.79588   0.80904   0.65202   0.00000  Uiso   1.00
O7     O     0.66766   0.90626   0.30997   0.00000  Uiso   1.00
O8     O     0.66773   0.03436   0.50452   0.00000  Uiso   1.00
O9     O     0.57072   0.90619   0.84649   0.00000  Uiso   1.00
O10    O     0.57069   0.03437   0.65191   0.00000  Uiso   1.00
O11    O     0.66779   0.80906   0.84654   0.00000  Uiso   1.00
O12    O     0.44246   0.80922   0.50448   0.00000  Uiso   1.00
O13    O     0.44252   0.90628   0.65188   0.00000  Uiso   1.00
C1     C     0.61921   0.06305   0.57821   0.00000  Uiso   1.00
C2     C     0.61921   0.15090   0.57822   0.00000  Uiso   1.00
C3     C     0.66978   0.52240   0.50164   0.00000  Uiso   1.00
C4     C     0.56856   0.52236   0.65488   0.00000  Uiso   1.00
C5     C     0.56857   0.43981   0.65487   0.00000  Uiso   1.00
C6     C     0.61919   0.39855   0.57825   0.00000  Uiso   1.00
C7     C     0.66979   0.43984   0.50163   0.00000  Uiso   1.00
C8     C     0.51797   0.39852   0.73148   0.00000  Uiso   1.00
C9     C     0.51797   0.31597   0.73148   0.00000  Uiso   1.00
C10    C     0.56859   0.27471   0.65486   0.00000  Uiso   1.00
C11    C     0.61919   0.31600   0.57824   0.00000  Uiso   1.00
C12    C     0.66980   0.27474   0.50162   0.00000  Uiso   1.00
C13    C     0.72042   0.31603   0.42500   0.00000  Uiso   1.00
C14    C     0.72040   0.39858   0.42501   0.00000  Uiso   1.00
C15    C     0.56860   0.19216   0.65485   0.00000  Uiso   1.00
C16    C     0.66981   0.19219   0.50160   0.00000  Uiso   1.00
C17    C     0.41381   0.85774   0.57820   0.00000  Uiso   1.00
C18    C     0.32596   0.85770   0.57822   0.00000  Uiso   1.00
C19    C     0.95455   0.80704   0.65516   0.00000  Uiso   1.00
C20    C     0.95441   0.90809   0.50150   0.00000  Uiso   1.00
C21    C     0.03696   0.90812   0.50148   0.00000  Uiso   1.00
C22    C     0.07830   0.85761   0.57829   0.00000  Uiso   1.00
C23    C     0.03711   0.80707   0.65513   0.00000  Uiso   1.00
C24    C     0.07816   0.95867   0.42464   0.00000  Uiso   1.00
C25    C     0.16071   0.95870   0.42462   0.00000  Uiso   1.00
C26    C     0.20206   0.90818   0.50142   0.00000  Uiso   1.00
C27    C     0.16086   0.85764   0.57827   0.00000  Uiso   1.00
C28    C     0.20221   0.80713   0.65508   0.00000  Uiso   1.00
C29    C     0.16101   0.75659   0.73192   0.00000  Uiso   1.00
C30    C     0.07846   0.75656   0.73194   0.00000  Uiso   1.00
C31    C     0.28461   0.90821   0.50140   0.00000  Uiso   1.00
C32    C     0.28476   0.80716   0.65506   0.00000  Uiso   1.00
C33    C     0.82535   0.85759   0.57831   0.00000  Uiso   1.00
C34    C     0.91321   0.85755   0.57834   0.00000  Uiso   1.00
C35    C     0.61927   0.85762   0.89128   0.00000  Uiso   1.00
C36    C     0.61931   0.85759   0.02468   0.00000  Uiso   1.00
C37    C     0.61916   0.65151   0.57827   0.00000  Uiso   1.00
C38    C     0.61917   0.56365   0.57826   0.00000  Uiso   1.00
C39    C     0.61915   0.85769   0.26642   0.00000  Uiso   1.00
C40    C     0.61934   0.85757   0.13302   0.00000  Uiso   1.00
H1     H     0.71103   0.15860   0.43922   0.00000  Uiso   1.00
H2     H     0.92074   0.94922   0.43897   0.00000  Uiso   1.00
N1     N     0.03357   0.01313   0.34179   0.00000  Uiso   1.00
H3     H     0.97502   0.00544   0.35346   0.00000  Uiso   1.00
H4     H     0.04796   0.00080   0.25609   0.00000  Uiso   1.00
H5     H     0.71099   0.55602   0.43926   0.00000  Uiso   1.00
N2     N     0.77500   0.27153   0.34235   0.00000  Uiso   1.00
H6     H     0.76731   0.21297   0.35397   0.00000  Uiso   1.00
H7     H     0.83144   0.28593   0.36118   0.00000  Uiso   1.00
N3     N     0.20561   0.70211   0.81477   0.00000  Uiso   1.00
H8     H     0.19128   0.64562   0.79621   0.00000  Uiso   1.00
H9     H     0.19127   0.71448   0.90047   0.00000  Uiso   1.00
H10    H     0.04490   0.71541   0.79450   0.00000  Uiso   1.00
N4     N     0.32935   0.75269   0.73792   0.00000  Uiso   1.00
H11    H     0.38790   0.76038   0.72626   0.00000  Uiso   1.00
H12    H     0.31495   0.69622   0.71933   0.00000  Uiso   1.00
N5     N     0.77496   0.44311   0.34235   0.00000  Uiso   1.00
H13    H     0.76726   0.50167   0.35396   0.00000  Uiso   1.00
H14    H     0.76270   0.42870   0.25661   0.00000  Uiso   1.00
H15    H     0.19425   0.99985   0.36205   0.00000  Uiso   1.00
N6     N     0.46339   0.27144   0.81411   0.00000  Uiso   1.00
H16    H     0.47560   0.28579   0.89990   0.00000  Uiso   1.00
H17    H     0.47109   0.21290   0.80239   0.00000  Uiso   1.00
N7     N     0.91012   0.75252   0.73802   0.00000  Uiso   1.00
H18    H     0.85155   0.76016   0.72638   0.00000  Uiso   1.00
H19    H     0.92459   0.76486   0.82372   0.00000  Uiso   1.00
N8     N     0.51398   0.56685   0.73753   0.00000  Uiso   1.00
H20    H     0.45752   0.55250   0.71874   0.00000  Uiso   1.00
H21    H     0.52172   0.62540   0.72587   0.00000  Uiso   1.00
H22    H     0.52739   0.15855   0.71722   0.00000  Uiso   1.00
H23    H     0.47675   0.43212   0.79386   0.00000  Uiso   1.00
N9     N     0.32905   0.96273   0.41855   0.00000  Uiso   1.00
H24    H     0.29033   0.99472   0.36990   0.00000  Uiso   1.00
H25    H     0.36329   0.93055   0.36304   0.00000  Uiso   1.00
