# Generated by REPEAT Assigner based on pymatgen
data_DB5-hypotheticalMOF_32523_0_0_2_11_1_3
_audit_creation_date              2022-05-24
_audit_creation_method            REPEAT_Assigner
_cell_length_a                    8.559649
_cell_length_b                    11.026607
_cell_length_c                    7.088929
_cell_angle_alpha                 82.408099
_cell_angle_beta                  95.325015
_cell_angle_gamma                 89.182341
_cell_volume                      660.114753
_symmetry_space_group_name_H-M    P1
_symmetry_Int_Tables_number       1
loop_
    _symmetry_equiv_pos_site_id
    _symmetry_equiv_pos_as_xyz
    1  x,y,z
loop_
    _atom_site_type_symbol
    _atom_site_label
    _atom_site_fract_x
    _atom_site_fract_y
    _atom_site_fract_z
    _atom_type_partial_charge
    O   O1   0.096118  0.973542  0.841043  -0.628400
    O   O2   0.648469  0.034577  0.841034  -0.718062
    O   O3   0.835194  0.830864  0.841045  -0.635468
    O   O4   0.909394  0.177256  0.841032  -0.700760
    O   O5   0.860132  0.803585  0.159021  -0.710376
    O   O6   0.673407  0.007298  0.159011  -0.625315
    O   O7   0.121056  0.946263  0.159019  -0.706767
    Cu  Cu1  0.899509  0.974290  0.188049  0.877972
    Cu  Cu2  0.870017  0.006551  0.812005  0.850143
    O   O8   0.934332  0.149977  0.159009  -0.636153
    C   C1   0.602739  0.025563  0.000021  0.930823
    C   C2   0.429319  0.039332  0.000018  0.006548
    C   C3   0.833974  0.773289  0.000030  0.975487
    C   C4   0.793166  0.642379  0.000023  -0.236219
    C   C5   0.905841  0.558073  0.000022  -0.260123
    C   C6   0.863667  0.422769  0.000014  0.250168
    C   C7   0.166786  0.955277  0.000028  1.000495
    C   C8   0.340205  0.941510  0.000019  -0.411840
    C   C9   0.935551  0.207551  0.000019  1.052918
    C   C10  0.976358  0.338463  0.000014  -0.573605
    N   N1   0.920263  0.951598  0.452538  0.010871
    N   N2   0.849272  0.029232  0.547515  0.087896
    H   H1   0.396583  0.847228  0.000013  0.170844
    H   H2   0.665478  0.614389  0.000008  0.098454
    H   H3   0.033528  0.586063  0.000036  0.171707
    Br  Br1  0.042931  0.817508  0.588630  0.109785
    Br  Br2  0.650828  0.376139  0.999983  -0.037640
    Br  Br3  0.335351  0.196492  0.999985  -0.060860
    H   H4   0.104043  0.366458  0.999873  0.273724
    Br  Br4  0.726640  0.163332  0.411430  0.073754
