# Generated by REPEAT Assigner based on pymatgen
data_DB5-hypotheticalMOF_390_0_0_0_26_9_10
_audit_creation_date              2022-05-24
_audit_creation_method            REPEAT_Assigner
_cell_length_a                    21.395361
_cell_length_b                    12.759401
_cell_length_c                    12.759393
_cell_angle_alpha                 90.022017
_cell_angle_beta                  89.962481
_cell_angle_gamma                 89.968470
_cell_volume                      3483.210561
_symmetry_space_group_name_H-M    P1
_symmetry_Int_Tables_number       1
loop_
    _symmetry_equiv_pos_site_id
    _symmetry_equiv_pos_as_xyz
    1  x,y,z
loop_
    _atom_site_type_symbol
    _atom_site_label
    _atom_site_fract_x
    _atom_site_fract_y
    _atom_site_fract_z
    _atom_type_partial_charge
    Zn  Zn1  0.750602  0.393855  0.405992  1.338886
    Zn  Zn2  0.645812  0.394012  0.581696  1.303387
    Zn  Zn3  0.750571  0.569555  0.581662  1.322386
    Zn  Zn4  0.645856  0.569614  0.406063  1.324125
    O   O1   0.698210  0.481759  0.493853  -1.627400
    O   O2   0.736696  0.246855  0.429284  -0.582663
    O   O3   0.659678  0.417339  0.728712  -0.568634
    O   O4   0.838253  0.546158  0.558315  -0.631914
    O   O5   0.659708  0.246970  0.558373  -0.588131
    O   O6   0.838275  0.417072  0.429251  -0.622858
    O   O7   0.736643  0.546310  0.728687  -0.572242
    O   O8   0.736686  0.716584  0.558384  -0.592361
    O   O9   0.659782  0.546258  0.259033  -0.618750
    O   O10  0.659752  0.716627  0.429372  -0.602497
    O   O11  0.736738  0.417129  0.258980  -0.617065
    O   O12  0.558140  0.417396  0.558441  -0.583016
    O   O13  0.558173  0.546410  0.429405  -0.613212
    C   C1   0.698220  0.754727  0.493881  0.470005
    C   C2   0.698209  0.871503  0.493869  0.210200
    C   C3   0.658089  0.926360  0.426799  -0.237281
    C   C4   0.658088  0.036084  0.426782  -0.214002
    C   C5   0.738327  0.036085  0.560911  -0.117129
    C   C6   0.738331  0.926363  0.560923  -0.271274
    C   C7   0.535423  0.481898  0.493912  0.472344
    C   C8   0.465781  0.481861  0.493901  0.084360
    C   C9   0.433072  0.414624  0.561022  -0.179967
    C   C10  0.367637  0.414575  0.560998  -0.251062
    C   C11  0.334913  0.481782  0.493865  0.240157
    C   C12  0.367630  0.549024  0.426732  -0.269217
    C   C13  0.433064  0.549063  0.426750  -0.057781
    C   C14  0.231199  0.576380  0.485632  0.184708
    C   C15  0.165766  0.576343  0.485621  -0.353751
    C   C16  0.133092  0.481660  0.493804  0.140466
    C   C17  0.165860  0.387012  0.502019  -0.280018
    C   C18  0.231294  0.387051  0.502037  0.037161
    C   C19  0.263961  0.481746  0.493838  -0.229575
    C   C20  0.029431  0.414364  0.560902  -0.131038
    C   C21  0.963994  0.414313  0.560871  -0.272931
    C   C22  0.963989  0.548772  0.426611  -0.280121
    C   C23  0.029424  0.548813  0.426636  -0.112276
    C   C24  0.062141  0.481610  0.493787  0.077470
    C   C25  0.861634  0.481591  0.493771  0.527704
    C   C26  0.931275  0.481520  0.493737  0.293498
    C   C27  0.698269  0.481683  0.219820  0.524886
    C   C28  0.698293  0.481650  0.103043  0.306824
    C   C29  0.698202  0.207726  0.493831  0.452292
    C   C30  0.698203  0.090949  0.493839  0.201804
    C   C31  0.658264  0.414467  0.938458  -0.115178
    C   C32  0.658235  0.414493  0.048182  -0.335600
    C   C33  0.738380  0.548794  0.048174  -0.279120
    C   C34  0.738406  0.548773  0.938451  -0.174123
    C   C35  0.698197  0.481775  0.766821  0.413499
    C   C36  0.698349  0.481604  0.883597  0.154596
    H   H1   0.341000  0.359819  0.615656  0.136660
    C   C37  0.817642  0.025064  0.693490  -0.085412
    C   C38  0.782425  0.096389  0.634622  0.328749
    H   H2   0.844868  0.062294  0.738993  0.002348
    H   H3   0.790375  0.982311  0.733764  0.009055
    H   H4   0.841576  0.982226  0.647632  0.013631
    H   H5   0.758487  0.139222  0.680479  -0.049284
    H   H6   0.809696  0.139159  0.594344  -0.051970
    C   C39  0.224824  0.199898  0.518227  -0.163767
    C   C40  0.267313  0.283019  0.511051  0.262738
    H   H7   0.247062  0.135673  0.523782  0.024792
    H   H8   0.199271  0.209078  0.578439  0.028947
    H   H9   0.199329  0.198563  0.457316  0.034921
    H   H10  0.292805  0.284360  0.571966  -0.016254
    H   H11  0.292877  0.273837  0.450833  -0.035716
    C   C41  0.627739  0.236588  0.904666  -0.010926
    C   C42  0.614229  0.340643  0.878164  0.424655
    H   H12  0.600548  0.191015  0.867449  -0.026930
    H   H13  0.669834  0.221170  0.886655  -0.005426
    H   H14  0.621987  0.227010  0.977867  -0.037004
    H   H15  0.619986  0.350223  0.804964  -0.039303
    H   H16  0.572124  0.356067  0.896168  -0.114173
    H   H17  0.625419  0.080744  0.372166  0.144479
    H   H18  0.771006  0.881697  0.615539  0.177240
    H   H19  0.459709  0.359901  0.615698  0.138058
    H   H20  0.139259  0.309912  0.508682  0.126764
    H   H21  0.625593  0.359824  0.092846  0.171158
    H   H22  0.056070  0.359640  0.615578  0.119790
    H   H23  0.771049  0.603449  0.893782  0.153541
    H   H24  0.937364  0.359554  0.615527  0.143260
    H   H25  0.937346  0.603488  0.371945  0.146482
    H   H26  0.056058  0.603568  0.371985  0.112520
    H   H27  0.139091  0.653411  0.478942  0.125024
    H   H28  0.625421  0.881697  0.372197  0.162141
    H   H29  0.770994  0.603479  0.092850  0.145408
    C   C43  0.304682  0.694037  0.565416  -0.233027
    C   C44  0.267107  0.680468  0.476635  0.230918
    H   H30  0.326851  0.758292  0.559854  0.050214
    H   H31  0.279125  0.695354  0.626299  0.025399
    H   H32  0.333560  0.637674  0.570292  0.056826
    H   H33  0.238226  0.736827  0.471763  -0.069382
    H   H34  0.292666  0.679160  0.415736  0.096366
    C   C45  0.347417  0.726944  0.375706  -0.346806
    C   C46  0.331665  0.622901  0.352936  0.384927
    H   H35  0.325216  0.772549  0.330137  0.050290
    H   H36  0.336647  0.742272  0.446298  0.093093
    H   H37  0.391070  0.736575  0.366108  0.124986
    H   H38  0.288012  0.613268  0.362542  -0.154529
    H   H39  0.342430  0.607568  0.282327  -0.036439
    C   C47  0.453271  0.600350  0.248898  -0.091866
    C   C48  0.469021  0.622982  0.352970  0.309992
    H   H40  0.475468  0.645991  0.203352  -0.004534
    H   H41  0.464045  0.529784  0.233470  0.000101
    H   H42  0.409617  0.609945  0.239288  0.006154
    H   H43  0.512675  0.613379  0.362582  0.043951
    H   H44  0.458251  0.693565  0.368403  -0.131395
