# Generated by REPEAT Assigner based on pymatgen
data_DB5-hypotheticalMOF_23526_1_0_1_13_10_6
_audit_creation_date              2022-05-24
_audit_creation_method            REPEAT_Assigner
_cell_length_a                    12.811438
_cell_length_b                    12.837942
_cell_length_c                    9.798715
_cell_angle_alpha                 89.997407
_cell_angle_beta                  84.564853
_cell_angle_gamma                 89.411773
_cell_volume                      1604.288125
_symmetry_space_group_name_H-M    P1
_symmetry_Int_Tables_number       1
loop_
    _symmetry_equiv_pos_site_id
    _symmetry_equiv_pos_as_xyz
    1  x,y,z
loop_
    _atom_site_type_symbol
    _atom_site_label
    _atom_site_fract_x
    _atom_site_fract_y
    _atom_site_fract_z
    _atom_type_partial_charge
    O   O1   0.406646  0.139683  0.712426  -0.559819
    O   O2   0.102581  0.154871  0.750054  -0.584392
    O   O3   0.247871  0.996345  0.732083  -0.685668
    O   O4   0.261356  0.298209  0.730397  -0.692151
    O   O5   0.247859  0.996345  0.959066  -0.704252
    O   O6   0.102569  0.154871  0.977038  -0.592224
    O   O7   0.406634  0.139682  0.939410  -0.574134
    Zn  Zn1  0.254600  0.147276  0.994262  0.968012
    Zn  Zn2  0.254616  0.147277  0.695202  0.969661
    O   O8   0.261344  0.298208  0.957381  -0.694618
    C   C1   0.063386  0.154020  0.868395  0.675263
    C   C2   0.946613  0.151471  0.882846  0.172439
    C   C3   0.243310  0.957705  0.846138  0.918443
    C   C4   0.229724  0.842569  0.847817  -0.070732
    C   C5   0.782020  0.147879  0.026935  -0.217801
    C   C6   0.891739  0.150274  0.013363  -0.128847
    C   C7   0.891760  0.150276  0.765892  -0.243854
    C   C8   0.782042  0.147880  0.779464  0.212738
    C   C9   0.727175  0.146681  0.909989  0.152368
    C   C10  0.617455  0.144278  0.923560  -0.198074
    C   C11  0.617478  0.144286  0.676090  -0.113444
    C   C12  0.727197  0.146682  0.662518  -0.233629
    C   C13  0.393054  0.602315  0.827576  -0.224964
    C   C14  0.380293  0.494134  0.829153  0.063940
    C   C15  0.191443  0.518024  0.852537  -0.187940
    C   C16  0.204204  0.626205  0.850960  0.210069
    C   C17  0.305012  0.668346  0.838482  0.165301
    C   C18  0.317772  0.776529  0.836915  -0.238037
    C   C19  0.128923  0.800417  0.860289  0.053483
    C   C20  0.116162  0.692236  0.861866  -0.281400
    C   C21  0.445830  0.140534  0.821065  0.658185
    C   C22  0.562603  0.143082  0.806606  -0.018412
    C   C23  0.265905  0.336849  0.843323  0.985738
    C   C24  0.279491  0.451985  0.841635  -0.094364
    N   N1   0.254597  0.147276  0.198362  -0.149917
    N   N2   0.254626  0.147270  0.491100  -0.256874
    C   C25  0.315573  0.080423  0.258597  0.029817
    C   C26  0.315590  0.080419  0.415758  0.010780
    H   H1   0.572784  0.143308  0.029840  0.112473
    H   H2   0.367799  0.023187  0.467585  0.138236
    H   H3   0.399855  0.810838  0.826759  0.125825
    H   H4   0.737347  0.146908  0.133214  0.135479
    H   H5   0.202423  0.204512  0.439281  0.245169
    H   H6   0.936389  0.151254  0.108593  0.109028
    C   C27  0.032071  0.873061  0.872287  0.251063
    N   N3   0.959124  0.927778  0.881327  -0.386863
    H   H7   0.367762  0.023185  0.193819  0.169404
    H   H8   0.572812  0.143314  0.580864  0.105467
    H   H9   0.475136  0.636627  0.817429  0.167526
    H   H10  0.034087  0.657910  0.872020  0.193786
    C   C28  0.184080  0.224593  0.285874  0.391343
    N   N4   0.130965  0.282831  0.351786  -0.345068
    H   H11  0.936451  0.151262  0.659624  0.123411
    C   C29  0.080562  0.471649  0.866276  0.376732
    N   N5   0.997046  0.436718  0.876634  -0.445402
    H   H12  0.771884  0.147663  0.556248  0.145441
    C   C30  0.477147  0.421503  0.817166  0.162820
    N   N6   0.550101  0.366796  0.808138  -0.276563
