# generated using pymatgen
data_Zn2H5C32N2Cl7O8
_symmetry_space_group_name_H-M   'P 1'
_cell_length_a   16.10930200
_cell_length_b   16.10930100
_cell_length_c   15.18622900
_cell_angle_alpha   90.00516700
_cell_angle_beta   89.99470100
_cell_angle_gamma   96.53836900
_symmetry_Int_Tables_number   1
_chemical_formula_structural   Zn2H5C32N2Cl7O8
_chemical_formula_sum   'Zn6 H15 C96 N6 Cl21 O24'
_cell_volume   3915.33933136
_cell_formula_units_Z   3
loop_
 _symmetry_equiv_pos_site_id
 _symmetry_equiv_pos_as_xyz
  1  'x, y, z'
loop_
 _atom_site_type_symbol
 _atom_site_label
 _atom_site_symmetry_multiplicity
 _atom_site_fract_x
 _atom_site_fract_y
 _atom_site_fract_z
 _atom_site_occupancy
  Zn  Zn1  1  0.98208900  0.88648400  0.09644300  1
  Zn  Zn2  1  0.31542300  0.21981700  0.42977600  1
  Zn  Zn3  1  0.64875600  0.55315000  0.76311000  1
  Zn  Zn4  1  0.98210100  0.88648100  0.90347900  1
  Zn  Zn5  1  0.31543400  0.21981500  0.23681200  1
  Zn  Zn6  1  0.64876700  0.55314800  0.57014600  1
  H  H1  1  0.40344400  0.88786600  0.85511000  1
  H  H2  1  0.73677700  0.22119900  0.18844400  1
  H  H3  1  0.07011100  0.55453200  0.52177700  1
  H  H4  1  0.84329500  0.44712400  0.99995400  1
  H  H5  1  0.17662800  0.78045800  0.33328800  1
  H  H6  1  0.50996200  0.11379100  0.66666667  1
  H  H7  1  0.84605000  0.28979000  0.99995900  1
  H  H8  1  0.17938300  0.62312300  0.33329200  1
  H  H9  1  0.51271700  0.95645700  0.66666667  1
  H  H10  1  0.40342300  0.88787300  0.14479800  1
  H  H11  1  0.73675700  0.22120600  0.47813200  1
  H  H12  1  0.07009000  0.55453900  0.81146500  1
  H  H13  1  0.08469200  0.98902500  0.41633300  1
  H  H14  1  0.41802500  0.32235900  0.74966600  1
  H  H15  1  0.75135900  0.65569200  0.08299900  1
  C  C1  1  0.83008900  0.88037200  0.99996500  1
  C  C2  1  0.16342300  0.21370500  0.33329900  1
  C  C3  1  0.49675600  0.54703900  0.66666667  1
  C  C4  1  0.73779400  0.88198700  0.99996800  1
  C  C5  1  0.07112700  0.21532100  0.33333333  1
  C  C6  1  0.40446100  0.54865400  0.66666667  1
  C  C7  1  0.52544800  0.88572400  0.07979300  1
  C  C8  1  0.85878200  0.21905700  0.41312700  1
  C  C9  1  0.19211500  0.55239000  0.74646000  1
  C  C10  1  0.43872800  0.88725000  0.07979000  1
  C  C11  1  0.77206200  0.22058400  0.41312400  1
  C  C12  1  0.10539500  0.55391700  0.74645700  1
  C  C13  1  0.43874800  0.88724400  0.92011500  1
  C  C14  1  0.77208100  0.22057700  0.25344800  1
  C  C15  1  0.10541500  0.55391100  0.58678100  1
  C  C16  1  0.52546700  0.88572300  0.92011900  1
  C  C17  1  0.85880100  0.21905700  0.25345200  1
  C  C18  1  0.19213400  0.55239000  0.58678500  1
  C  C19  1  0.56881500  0.88495900  0.99996100  1
  C  C20  1  0.90214800  0.21829200  0.33329400  1
  C  C21  1  0.23548100  0.55162600  0.66666667  1
  C  C22  1  0.39537500  0.88800600  0.99995400  1
  C  C23  1  0.72870900  0.22134000  0.33328700  1
  C  C24  1  0.06204200  0.55467300  0.66666667  1
  C  C25  1  0.30135000  0.88966200  0.99995000  1
  C  C26  1  0.63468300  0.22299500  0.33328300  1
  C  C27  1  0.96801600  0.55632800  0.66666667  1
  C  C28  1  0.66284700  0.88330500  0.99996500  1
  C  C29  1  0.99618000  0.21663800  0.33329800  1
  C  C30  1  0.32951300  0.54997200  0.66666667  1
  C  C31  1  0.98820600  0.03848800  0.99997000  1
  C  C32  1  0.32153900  0.37182200  0.33333333  1
  C  C33  1  0.65487300  0.70515500  0.66666667  1
  C  C34  1  0.98659100  0.13078400  0.99997200  1
  C  C35  1  0.31992400  0.46411700  0.33333333  1
  C  C36  1  0.65325800  0.79745000  0.66666667  1
  C  C37  1  0.13410100  0.89259300  0.99995500  1
  C  C38  1  0.46743400  0.22592600  0.33328800  1
  C  C39  1  0.80076800  0.55926000  0.66666667  1
  C  C40  1  0.22639600  0.89097800  0.99994600  1
  C  C41  1  0.55972900  0.22431100  0.33328000  1
  C  C42  1  0.89306300  0.55764400  0.66666667  1
  C  C43  1  0.97598400  0.73447700  0.99995000  1
  C  C44  1  0.30931700  0.06781000  0.33328300  1
  C  C45  1  0.64265100  0.40114300  0.66666667  1
  C  C46  1  0.97759900  0.64218100  0.99994300  1
  C  C47  1  0.31093300  0.97551500  0.33327600  1
  C  C48  1  0.64426600  0.30884800  0.66666667  1
  C  C49  1  0.05859900  0.35305600  0.99995600  1
  C  C50  1  0.39193200  0.68638900  0.33328900  1
  C  C51  1  0.72526500  0.01972300  0.66666667  1
  C  C52  1  0.05707400  0.43977600  0.99994800  1
  C  C53  1  0.39040800  0.77311000  0.33328200  1
  C  C54  1  0.72374100  0.10644300  0.66666667  1
  C  C55  1  0.90558600  0.41990200  0.99995600  1
  C  C56  1  0.23891900  0.75323600  0.33328900  1
  C  C57  1  0.57225200  0.08656900  0.66666667  1
  C  C58  1  0.90711100  0.33318400  0.99995700  1
  C  C59  1  0.24044400  0.66651700  0.33329000  1
  C  C60  1  0.57377700  0.99985000  0.66666667  1
  C  C61  1  0.98362000  0.29976300  0.99996100  1
  C  C62  1  0.31695300  0.63309600  0.33329500  1
  C  C63  1  0.65028600  0.96643000  0.66666667  1
  C  C64  1  0.98057100  0.47320200  0.99995300  1
  C  C65  1  0.31390400  0.80653500  0.33328600  1
  C  C66  1  0.64723700  0.13986900  0.66666667  1
  C  C67  1  0.97891800  0.56722800  0.99994500  1
  C  C68  1  0.31225100  0.90056200  0.33327900  1
  C  C69  1  0.64558400  0.23389500  0.66666667  1
  C  C70  1  0.98527300  0.20573100  0.99996700  1
  C  C71  1  0.31860600  0.53906400  0.33333333  1
  C  C72  1  0.65194000  0.87239800  0.66666667  1
  C  C73  1  0.03864400  0.94300400  0.45386100  1
  C  C74  1  0.37197700  0.27633700  0.78719400  1
  C  C75  1  0.70531100  0.60967000  0.12052800  1
  C  C76  1  0.03864700  0.94300600  0.54605100  1
  C  C77  1  0.37198000  0.27633900  0.87938400  1
  C  C78  1  0.70531300  0.60967200  0.21271700  1
  C  C79  1  0.92554700  0.82996500  0.54605500  1
  C  C80  1  0.25888000  0.16329900  0.87938800  1
  C  C81  1  0.59221300  0.49663200  0.21272100  1
  C  C82  1  0.92554100  0.82996800  0.45386700  1
  C  C83  1  0.25887400  0.16330100  0.78720000  1
  C  C84  1  0.59220700  0.49663500  0.12053300  1
  C  C85  1  0.98209400  0.88648600  0.40777200  1
  C  C86  1  0.31542700  0.21982000  0.74110600  1
  C  C87  1  0.64876100  0.55315300  0.07443900  1
  C  C88  1  0.98210300  0.88648600  0.59215000  1
  C  C89  1  0.31543600  0.21981900  0.92548300  1
  C  C90  1  0.64876900  0.55315200  0.25881600  1
  C  C91  1  0.98210500  0.88648700  0.69210600  1
  C  C92  1  0.31543800  0.21982100  0.02543900  1
  C  C93  1  0.64877200  0.55315400  0.35877300  1
  C  C94  1  0.98209100  0.88648600  0.30781000  1
  C  C95  1  0.31542400  0.21981900  0.64114300  1
  C  C96  1  0.64875700  0.55315200  0.97447600  1
  N  N1  1  0.98208800  0.88648600  0.22813600  1
  N  N2  1  0.31542100  0.21981900  0.56146900  1
  N  N3  1  0.64875500  0.55315300  0.89480200  1
  N  N4  1  0.98210900  0.88648600  0.77178600  1
  N  N5  1  0.31544200  0.21981900  0.10512000  1
  N  N6  1  0.64877500  0.55315300  0.43845300  1
  Cl  Cl1  1  0.85445700  0.75891400  0.60400600  1
  Cl  Cl2  1  0.18779100  0.09224700  0.93733900  1
  Cl  Cl3  1  0.52112400  0.42558100  0.27067300  1
  Cl  Cl4  1  0.85444000  0.75891600  0.39592100  1
  Cl  Cl5  1  0.18777300  0.09224900  0.72925400  1
  Cl  Cl6  1  0.52110600  0.42558300  0.06258800  1
  Cl  Cl7  1  0.57994000  0.88476800  0.18016600  1
  Cl  Cl8  1  0.91327300  0.21810100  0.51349900  1
  Cl  Cl9  1  0.24660700  0.55143400  0.84683200  1
  Cl  Cl10  1  0.15478100  0.31104400  0.99995900  1
  Cl  Cl11  1  0.48811400  0.64437800  0.33329200  1
  Cl  Cl12  1  0.82144700  0.97771100  0.66666667  1
  Cl  Cl13  1  0.57999000  0.88476800  0.81974900  1
  Cl  Cl14  1  0.91332300  0.21810200  0.15308200  1
  Cl  Cl15  1  0.24665700  0.55143500  0.48641500  1
  Cl  Cl16  1  0.15133800  0.50677000  0.99994000  1
  Cl  Cl17  1  0.48467200  0.84010400  0.33327300  1
  Cl  Cl18  1  0.81800500  0.17343700  0.66666667  1
  Cl  Cl19  1  0.10973900  0.01406100  0.60398800  1
  Cl  Cl20  1  0.44307300  0.34739400  0.93732100  1
  Cl  Cl21  1  0.77640600  0.68072800  0.27065500  1
  O  O1  1  0.10313000  0.89313100  0.92672900  1
  O  O2  1  0.43646400  0.22646400  0.26006200  1
  O  O3  1  0.76979700  0.55979800  0.59339600  1
  O  O4  1  0.86106800  0.87983200  0.92673600  1
  O  O5  1  0.19440200  0.21316600  0.26006900  1
  O  O6  1  0.52773500  0.54649900  0.59340200  1
  O  O7  1  0.98874900  0.00751300  0.92674100  1
  O  O8  1  0.32208200  0.34084600  0.26007400  1
  O  O9  1  0.65541600  0.67417900  0.59340800  1
  O  O10  1  0.97545000  0.76545100  0.92672400  1
  O  O11  1  0.30878300  0.09878400  0.26005700  1
  O  O12  1  0.64211600  0.43211700  0.59339000  1
  O  O13  1  0.98874000  0.00751400  0.07319800  1
  O  O14  1  0.32207400  0.34084800  0.40653200  1
  O  O15  1  0.65540700  0.67418100  0.73986500  1
  O  O16  1  0.86106000  0.87983400  0.07319300  1
  O  O17  1  0.19439300  0.21316700  0.40652600  1
  O  O18  1  0.52772700  0.54650100  0.73986000  1
  O  O19  1  0.10312200  0.89313300  0.07318600  1
  O  O20  1  0.43645500  0.22646600  0.40652000  1
  O  O21  1  0.76978800  0.55980000  0.73985300  1
  O  O22  1  0.97544100  0.76545300  0.07318100  1
  O  O23  1  0.30877400  0.09878600  0.40651400  1
  O  O24  1  0.64210800  0.43211900  0.73984800  1
