# generated using pymatgen
data_Zn4H26(C4O)13
_symmetry_space_group_name_H-M   'P 1'
_cell_length_a   12.75939500
_cell_length_b   17.64028000
_cell_length_c   12.75938700
_cell_angle_alpha   78.76770500
_cell_angle_beta   89.98118500
_cell_angle_gamma   78.80227700
_symmetry_Int_Tables_number   1
_chemical_formula_structural   Zn4H26(C4O)13
_chemical_formula_sum   'Zn8 H52 C104 O26'
_cell_volume   2761.14034580
_cell_formula_units_Z   2
loop_
 _symmetry_equiv_pos_site_id
 _symmetry_equiv_pos_as_xyz
  1  'x, y, z'
loop_
 _atom_site_type_symbol
 _atom_site_label
 _atom_site_symmetry_multiplicity
 _atom_site_fract_x
 _atom_site_fract_y
 _atom_site_fract_z
 _atom_site_occupancy
  Zn  Zn1  1  0.69080200  0.68541400  0.49045200  1
  Zn  Zn2  1  0.19080200  0.18541400  0.99045200  1
  Zn  Zn3  1  0.72622900  0.55321600  0.70162300  1
  Zn  Zn4  1  0.22622900  0.05321600  0.20162300  1
  Zn  Zn5  1  0.51511800  0.68536800  0.66612700  1
  Zn  Zn6  1  0.01511800  0.18536800  0.16612700  1
  Zn  Zn7  1  0.55060800  0.55327500  0.52596800  1
  Zn  Zn8  1  0.05060800  0.05327500  0.02596800  1
  H  H1  1  0.96974200  0.81235600  0.80000400  1
  H  H2  1  0.46974200  0.31235600  0.30000400  1
  H  H3  1  0.78231900  0.51838700  0.92357100  1
  H  H4  1  0.28231900  0.01838700  0.42357100  1
  H  H5  1  0.45923800  0.72053100  0.26736900  1
  H  H6  1  0.95923800  0.22053100  0.76736900  1
  H  H7  1  0.29304900  0.72054100  0.70301200  1
  H  H8  1  0.79304900  0.22054100  0.20301200  1
  H  H9  1  0.92877300  0.42659300  0.24683500  1
  H  H10  1  0.42877300  0.92659300  0.74683500  1
  H  H11  1  0.07364000  0.42625500  0.39202600  1
  H  H12  1  0.57364000  0.92625500  0.89202600  1
  H  H13  1  0.89492600  0.72052500  0.70296400  1
  H  H14  1  0.39492600  0.22052500  0.20296400  1
  H  H15  1  0.41128400  0.19456500  0.38687000  1
  H  H16  1  0.91128400  0.69456500  0.88687000  1
  H  H17  1  0.31280400  0.81231800  0.94410700  1
  H  H18  1  0.81280400  0.31231800  0.44410700  1
  H  H19  1  0.37742100  0.07073900  0.35298400  1
  H  H20  1  0.87742100  0.57073900  0.85298400  1
  H  H21  1  0.83001300  0.04486300  0.80491800  1
  H  H22  1  0.33001300  0.54486300  0.30491800  1
  H  H23  1  0.41778600  0.92098400  0.39319300  1
  H  H24  1  0.91778600  0.42098400  0.89319300  1
  H  H25  1  0.72822700  0.96997200  0.70322800  1
  H  H26  1  0.22822700  0.46997200  0.20322800  1
  H  H27  1  0.16880400  0.81237700  0.80002700  1
  H  H28  1  0.66880400  0.31237700  0.30002700  1
  H  H29  1  0.78223500  0.51830300  0.32172200  1
  H  H30  1  0.28223500  0.01830300  0.82172200  1
  H  H31  1  0.31276300  0.81226600  0.14319200  1
  H  H32  1  0.81276300  0.31226600  0.64319200  1
  H  H33  1  0.94939800  0.51807600  0.48903700  1
  H  H34  1  0.44939800  0.01807600  0.98903700  1
  H  H35  1  0.57960500  0.31842000  0.55501700  1
  H  H36  1  0.07960500  0.81842000  0.05501700  1
  H  H37  1  0.86387900  0.16869600  0.83881000  1
  H  H38  1  0.36387900  0.66869600  0.33881000  1
  H  H39  1  0.66169700  0.92100800  0.63677800  1
  H  H40  1  0.16169700  0.42100800  0.13677800  1
  H  H41  1  0.34752200  0.51809000  0.48909100  1
  H  H42  1  0.84752200  0.01809000  0.98909100  1
  H  H43  1  0.92880200  0.42664100  0.04775400  1
  H  H44  1  0.42880200  0.92664100  0.54775400  1
  H  H45  1  0.45931800  0.72061400  0.86921900  1
  H  H46  1  0.95931800  0.22061400  0.36921900  1
  H  H47  1  0.27270700  0.42627000  0.39205200  1
  H  H48  1  0.77270700  0.92627000  0.89205200  1
  H  H49  1  0.51306900  0.26947200  0.48858300  1
  H  H50  1  0.01306900  0.76947200  0.98858300  1
  H  H51  1  0.82353900  0.31845900  0.79860500  1
  H  H52  1  0.32353900  0.81845900  0.29860500  1
  C  C1  1  0.34771900  0.61932800  0.59605800  1
  C  C2  1  0.84771900  0.11932800  0.09605800  1
  C  C3  1  0.23094700  0.61931300  0.59604500  1
  C  C4  1  0.73094700  0.11931300  0.09604500  1
  C  C5  1  0.25818000  0.51809300  0.48907800  1
  C  C6  1  0.75818000  0.01809300  0.98907800  1
  C  C7  1  0.21693800  0.46747700  0.43559400  1
  C  C8  1  0.71693800  0.96747700  0.93559400  1
  C  C9  1  0.10721900  0.46746700  0.43558400  1
  C  C10  1  0.60721900  0.96746700  0.93558400  1
  C  C11  1  0.03873800  0.51808100  0.48906100  1
  C  C12  1  0.53873800  0.01808100  0.98906100  1
  C  C13  1  0.07998000  0.56869700  0.54254500  1
  C  C14  1  0.57998000  0.06869700  0.04254500  1
  C  C15  1  0.18970400  0.56870000  0.54255300  1
  C  C16  1  0.68970400  0.06870000  0.04255300  1
  C  C17  1  0.05274600  0.66992000  0.64950400  1
  C  C18  1  0.55274600  0.16992000  0.14950400  1
  C  C19  1  0.16246500  0.66992700  0.64952200  1
  C  C20  1  0.66246500  0.16992700  0.14952200  1
  C  C21  1  0.98426500  0.72053300  0.70298100  1
  C  C22  1  0.48426500  0.22053300  0.20298100  1
  C  C23  1  0.02550800  0.77114700  0.75647300  1
  C  C24  1  0.52550800  0.27114700  0.25647300  1
  C  C25  1  0.13523400  0.77115400  0.75648300  1
  C  C26  1  0.63523400  0.27115400  0.25648300  1
  C  C27  1  0.20370800  0.72054300  0.70300600  1
  C  C28  1  0.70370800  0.22054300  0.20300600  1
  C  C29  1  0.67582100  0.41396000  0.65119600  1
  C  C30  1  0.17582100  0.91396000  0.15119600  1
  C  C31  1  0.69950300  0.32610700  0.67475600  1
  C  C32  1  0.19950300  0.82610700  0.17475600  1
  C  C33  1  0.44121300  0.03714400  0.41667800  1
  C  C34  1  0.94121300  0.53714400  0.91667800  1
  C  C35  1  0.46346800  0.95459200  0.43885000  1
  C  C36  1  0.96346800  0.45459200  0.93885000  1
  C  C37  1  0.59790800  0.95461300  0.57309700  1
  C  C38  1  0.09790800  0.45461300  0.07309700  1
  C  C39  1  0.57566800  0.03716600  0.55093300  1
  C  C40  1  0.07566800  0.53716600  0.05093300  1
  C  C41  1  0.49731900  0.07842500  0.47272300  1
  C  C42  1  0.99731900  0.57842500  0.97272300  1
  C  C43  1  0.63177400  0.07844700  0.60697800  1
  C  C44  1  0.13177400  0.57844700  0.10697800  1
  C  C45  1  0.60953200  0.16099300  0.58481900  1
  C  C46  1  0.10953200  0.66099300  0.08481900  1
  C  C47  1  0.53118400  0.20225800  0.50661500  1
  C  C48  1  0.03118400  0.70225800  0.00661500  1
  C  C49  1  0.47507700  0.16097100  0.45056500  1
  C  C50  1  0.97507700  0.66097100  0.95056500  1
  C  C51  1  0.71011800  0.03718600  0.68519200  1
  C  C52  1  0.21011800  0.53718600  0.18519200  1
  C  C53  1  0.76622400  0.07846800  0.74123700  1
  C  C54  1  0.26622400  0.57846800  0.24123700  1
  C  C55  1  0.74398700  0.16101500  0.71907400  1
  C  C56  1  0.24398700  0.66101500  0.21907400  1
  C  C57  1  0.66563900  0.20228000  0.64087000  1
  C  C58  1  0.16563900  0.70228000  0.14087000  1
  C  C59  1  0.80009400  0.20230200  0.77512400  1
  C  C60  1  0.30009400  0.70230200  0.27512400  1
  C  C61  1  0.77785200  0.28484800  0.75296600  1
  C  C62  1  0.27785200  0.78484800  0.25296600  1
  C  C63  1  0.64339700  0.28482600  0.61871100  1
  C  C64  1  0.14339700  0.78482600  0.11871100  1
  C  C65  1  0.89472600  0.61930800  0.59602600  1
  C  C66  1  0.39472600  0.11930800  0.09602600  1
  C  C67  1  0.01150300  0.61930400  0.59602000  1
  C  C68  1  0.51150300  0.11930400  0.09602000  1
  C  C69  1  0.62073900  0.61940000  0.32198700  1
  C  C70  1  0.12073900  0.11940000  0.82198700  1
  C  C71  1  0.62076000  0.61943500  0.20520100  1
  C  C72  1  0.12076000  0.11943500  0.70520100  1
  C  C73  1  0.56537100  0.82547800  0.54065000  1
  C  C74  1  0.06537100  0.32547800  0.04065000  1
  C  C75  1  0.54179800  0.91333200  0.51704500  1
  C  C76  1  0.04179800  0.41333200  0.01704500  1
  C  C77  1  0.45925900  0.72054300  0.17802500  1
  C  C78  1  0.95925900  0.22054300  0.67802500  1
  C  C79  1  0.37852300  0.77111300  0.10957200  1
  C  C80  1  0.87852300  0.27111300  0.60957200  1
  C  C81  1  0.37854700  0.77114100  0.99984200  1
  C  C82  1  0.87854700  0.27114100  0.49984200  1
  C  C83  1  0.45931300  0.72059300  0.95856500  1
  C  C84  1  0.95931300  0.22059300  0.45856500  1
  C  C85  1  0.54004900  0.67002300  0.02701900  1
  C  C86  1  0.04004900  0.17002300  0.52701900  1
  C  C87  1  0.54001800  0.67000200  0.13674800  1
  C  C88  1  0.04001800  0.17000200  0.63674800  1
  C  C89  1  0.70154400  0.56891200  0.05419500  1
  C  C90  1  0.20154400  0.06891200  0.55419500  1
  C  C91  1  0.70152600  0.56888600  0.16392400  1
  C  C92  1  0.20152600  0.06888600  0.66392400  1
  C  C93  1  0.78231000  0.51836400  0.01291800  1
  C  C94  1  0.28231000  0.01836400  0.51291800  1
  C  C95  1  0.86305200  0.46779700  0.08137100  1
  C  C96  1  0.36305200  0.96779700  0.58137100  1
  C  C97  1  0.86302500  0.46777100  0.19110600  1
  C  C98  1  0.36302500  0.96777100  0.69110600  1
  C  C99  1  0.78226200  0.51831600  0.23237700  1
  C  C100  1  0.28226200  0.01831600  0.73237700  1
  C  C101  1  0.62068500  0.61929400  0.86901600  1
  C  C102  1  0.12068500  0.11929400  0.36901600  1
  C  C103  1  0.62080800  0.61948200  0.98574200  1
  C  C104  1  0.12080800  0.11948200  0.48574200  1
  O  O1  1  0.62068900  0.61931800  0.59604200  1
  O  O2  1  0.12068900  0.11931800  0.09604200  1
  O  O3  1  0.84252400  0.66787200  0.51845600  1
  O  O4  1  0.34252400  0.16787200  0.01845600  1
  O  O5  1  0.69819800  0.57070300  0.84394700  1
  O  O6  1  0.19819800  0.07070300  0.34394700  1
  O  O7  1  0.50874400  0.79598100  0.61310500  1
  O  O8  1  0.00874400  0.29598100  0.11310500  1
  O  O9  1  0.86855200  0.57074700  0.67360200  1
  O  O10  1  0.36855200  0.07074700  0.17360200  1
  O  O11  1  0.63781900  0.79601400  0.48403700  1
  O  O12  1  0.13781900  0.29601400  0.98403700  1
  O  O13  1  0.54309600  0.66779400  0.81786900  1
  O  O14  1  0.04309600  0.16779400  0.31786900  1
  O  O15  1  0.37280300  0.66785100  0.64754300  1
  O  O16  1  0.87280300  0.16785100  0.14754300  1
  O  O17  1  0.56923100  0.57084700  0.37422400  1
  O  O18  1  0.06923100  0.07084700  0.87422400  1
  O  O19  1  0.39887800  0.57080300  0.54456900  1
  O  O20  1  0.89887800  0.07080300  0.04456900  1
  O  O21  1  0.67223200  0.66792900  0.34813000  1
  O  O22  1  0.17223200  0.16792900  0.84813000  1
  O  O23  1  0.73261100  0.44261700  0.70804000  1
  O  O24  1  0.23261100  0.94261700  0.20804000  1
  O  O25  1  0.60358300  0.44266100  0.57898700  1
  O  O26  1  0.10358300  0.94266100  0.07898700  1
