# generated using pymatgen
data_ZnH2C5NO4
_symmetry_space_group_name_H-M   'P 1'
_cell_length_a   9.06521800
_cell_length_b   10.72302400
_cell_length_c   8.14023900
_cell_angle_alpha   89.99764400
_cell_angle_beta   89.99719800
_cell_angle_gamma   84.74187700
_symmetry_Int_Tables_number   1
_chemical_formula_structural   ZnH2C5NO4
_chemical_formula_sum   'Zn2 H4 C10 N2 O8'
_cell_volume   787.95478052
_cell_formula_units_Z   2
loop_
 _symmetry_equiv_pos_site_id
 _symmetry_equiv_pos_as_xyz
  1  'x, y, z'
loop_
 _atom_site_type_symbol
 _atom_site_label
 _atom_site_symmetry_multiplicity
 _atom_site_fract_x
 _atom_site_fract_y
 _atom_site_fract_z
 _atom_site_occupancy
  Zn  Zn1  1  0.74465900  0.19048600  0.17999400  1
  Zn  Zn2  1  0.74467600  0.19048900  0.82000500  1
  H  H1  1  0.98537300  0.79167500  0.00000700  1
  H  H2  1  0.63793100  0.78160200  0.99998700  1
  H  H3  1  0.97761300  0.54218500  0.99999600  1
  H  H4  1  0.63293000  0.62108900  0.99999900  1
  C  C1  1  0.47500400  0.19655000  0.99999800  1
  C  C2  1  0.31118600  0.19223700  0.99999700  1
  C  C3  1  0.75313000  0.96244600  0.00000400  1
  C  C4  1  0.74881700  0.82387400  0.99999800  1
  C  C5  1  0.87448600  0.74940200  0.99999600  1
  C  C6  1  0.87003100  0.60618100  0.99999000  1
  C  C7  1  0.01433100  0.18442500  0.99999700  1
  C  C8  1  0.17815000  0.18873800  0.99998700  1
  C  C9  1  0.73620500  0.41852900  0.99999200  1
  C  C10  1  0.74051800  0.55710100  0.99998700  1
  N  N1  1  0.74465900  0.19048300  0.42567600  1
  N  N2  1  0.74468800  0.19048200  0.57432300  1
  O  O1  1  0.95935900  0.18298400  0.86338700  1
  O  O2  1  0.52998900  0.19799300  0.86338500  1
  O  O3  1  0.75457800  0.00895300  0.86339200  1
  O  O4  1  0.73477000  0.37202500  0.86338000  1
  O  O5  1  0.75456500  0.00895000  0.13661900  1
  O  O6  1  0.52997600  0.19799100  0.13661200  1
  O  O7  1  0.95934600  0.18298200  0.13661400  1
  O  O8  1  0.73475700  0.37202200  0.13660700  1
