# Generated by REPEAT Assigner based on pymatgen
data_DB5-hypotheticalMOF_21387_0_0_1_11_9_5
_audit_creation_date              2022-05-24
_audit_creation_method            REPEAT_Assigner
_cell_length_a                    10.654550
_cell_length_b                    10.065875
_cell_length_c                    10.654550
_cell_angle_alpha                 98.874771
_cell_angle_beta                  95.515069
_cell_angle_gamma                 98.829657
_cell_volume                      1107.183689
_symmetry_space_group_name_H-M    P1
_symmetry_Int_Tables_number       1
loop_
    _symmetry_equiv_pos_site_id
    _symmetry_equiv_pos_as_xyz
    1  x,y,z
loop_
    _atom_site_type_symbol
    _atom_site_label
    _atom_site_fract_x
    _atom_site_fract_y
    _atom_site_fract_z
    _atom_type_partial_charge
    O   O1   0.686040  0.113390  0.841885  -0.764832
    O   O2   0.320565  0.113415  0.825083  -0.681162
    O   O3   0.511704  0.113393  0.016222  -0.707033
    O   O4   0.494901  0.113412  0.650746  -0.677803
    O   O5   0.475258  0.886409  0.979627  -0.713474
    O   O6   0.284119  0.886430  0.788488  -0.630141
    O   O7   0.649593  0.886405  0.805290  -0.707113
    Zn  Zn1  0.461069  0.850379  0.791079  0.882988
    Zn  Zn2  0.509089  0.149441  0.839294  1.009014
    O   O8   0.458454  0.886427  0.614151  -0.642901
    C   C1   0.255544  0.999926  0.808020  0.857660
    C   C2   0.116103  0.999935  0.811713  0.027467
    C   C3   0.036617  0.999937  0.699172  -0.287251
    C   C4   0.905593  0.999913  0.702645  -0.105532
    C   C5   0.933552  0.999891  0.931211  0.394405
    C   C6   0.064573  0.999905  0.927735  -0.321752
    N   N1   0.428306  0.646277  0.758173  0.196662
    C   C7   0.497682  0.578491  0.827854  -0.260766
    C   C8   0.472476  0.421326  0.802519  0.038842
    C   C9   0.714614  0.999898  0.822354  1.076702
    C   C10  0.854058  0.999897  0.818662  -0.269658
    C   C11  0.492247  0.999902  0.044722  0.961547
    C   C12  0.488555  0.999904  0.184166  -0.019661
    N   N2   0.541862  0.353543  0.872209  -0.294900
    C   C13  0.477912  0.999922  0.585651  0.950491
    C   C14  0.481605  0.999928  0.446209  -0.207668
    C   C15  0.601096  0.999897  0.263650  -0.462751
    C   C16  0.597622  0.999914  0.394674  0.456485
    C   C17  0.369057  0.999939  0.366715  -0.258342
    C   C18  0.372533  0.999932  0.235695  -0.024974
    H   H1   0.840880  0.999912  0.611002  0.154923
    H   H2   0.619918  0.411855  0.950631  0.236523
    N   N3   0.324902  0.569046  0.654313  -0.673138
    H   H3   0.321551  0.467720  0.650940  0.322618
    H   H4   0.344406  0.593953  0.569140  0.308053
    H   H5   0.078567  0.999951  0.604698  0.119141
    H   H6   0.695569  0.999877  0.221700  0.177954
    N   N4   0.877972  0.999852  0.056342  -0.898929
    H   H7   0.782910  0.999844  0.041469  0.356510
    H   H8   0.920476  0.083992  0.119214  0.300996
    N   N5   0.719004  0.999907  0.480405  -0.772950
    H   H9   0.793026  0.999887  0.427876  0.334324
    H   H10  0.709023  0.915765  0.521818  0.221983
    H   H11  0.274595  0.999960  0.408686  0.118076
    N   N6   0.251147  0.999950  0.149955  -0.318684
    H   H12  0.177118  0.999959  0.202476  0.243674
    H   H13  0.234098  0.915804  0.081423  0.228177
    H   H14  0.394411  0.363014  0.724107  0.151505
    N   N7   0.150313  0.999888  0.049122  -0.052791
    H   H15  0.097792  0.999874  0.123150  0.211510
    H   H16  0.218788  0.084035  0.066229  0.211065
    H   H17  0.575733  0.636806  0.906270  0.204910
