# generated using pymatgen
data_Zn4H52C48O13
_symmetry_space_group_name_H-M   'P 1'
_cell_length_a   12.82789300
_cell_length_b   14.90852000
_cell_length_c   14.90885400
_cell_angle_alpha   90.22166500
_cell_angle_beta   86.71979800
_cell_angle_gamma   93.32057500
_symmetry_Int_Tables_number   1
_chemical_formula_structural   Zn4H52C48O13
_chemical_formula_sum   'Zn4 H52 C48 O13'
_cell_volume   2841.79134121
_cell_formula_units_Z   1
loop_
 _symmetry_equiv_pos_site_id
 _symmetry_equiv_pos_as_xyz
  1  'x, y, z'
loop_
 _atom_site_type_symbol
 _atom_site_label
 _atom_site_symmetry_multiplicity
 _atom_site_fract_x
 _atom_site_fract_y
 _atom_site_fract_z
 _atom_site_occupancy
  Zn  Zn1  1  0.54028100  0.67138700  0.52900700  1
  Zn  Zn2  1  0.53899600  0.51233400  0.38732100  1
  Zn  Zn3  1  0.37499300  0.66267500  0.37867000  1
  Zn  Zn4  1  0.35486200  0.52106700  0.53763400  1
  H  H1  1  0.02632000  0.63601300  0.40876100  1
  H  H2  1  0.30015500  0.25558000  0.58211500  1
  H  H3  1  0.28821600  0.08520300  0.59197000  1
  H  H4  1  0.30628600  0.72599100  0.96572000  1
  H  H5  1  0.52217100  0.44968500  0.76127900  1
  H  H6  1  0.61285700  0.52331900  0.75707300  1
  H  H7  1  0.56333700  0.41202800  0.89834200  1
  H  H8  1  0.65403500  0.48563700  0.89415400  1
  H  H9  1  0.72979000  0.41626600  0.77772000  1
  H  H10  1  0.63909700  0.34263800  0.78192800  1
  H  H11  1  0.71416900  0.35226600  0.85979900  1
  H  H12  1  0.86546200  0.68293200  0.35596700  1
  H  H13  1  0.95208300  0.69165100  0.42446400  1
  H  H14  1  0.92823000  0.55529500  0.30531000  1
  H  H15  1  0.01486800  0.56399900  0.37378000  1
  H  H16  1  0.07725700  0.69151100  0.30899400  1
  H  H17  1  0.99062800  0.68278900  0.24050300  1
  H  H18  1  0.07652900  0.61365700  0.23964500  1
  H  H19  1  0.36020700  0.67665900  0.10987900  1
  H  H20  1  0.64989100  0.48943500  0.17001300  1
  H  H21  1  0.55908400  0.41591300  0.17420800  1
  H  H22  1  0.70791300  0.43618900  0.03817700  1
  H  H23  1  0.61713700  0.36265200  0.04235500  1
  H  H24  1  0.67769300  0.30707400  0.16597200  1
  H  H25  1  0.76849400  0.38060400  0.16177500  1
  H  H26  1  0.76259800  0.30757700  0.08754600  1
  H  H27  1  0.83471500  0.49612700  0.56529100  1
  H  H28  1  0.28983700  0.97235800  0.59097300  1
  H  H29  1  0.28306500  0.89035400  0.52677100  1
  H  H30  1  0.42656500  0.91730200  0.65211300  1
  H  H31  1  0.41980700  0.83528500  0.58794000  1
  H  H32  1  0.26118400  0.79605100  0.64777800  1
  H  H33  1  0.26795900  0.87806200  0.71197300  1
  H  H34  1  0.34216500  0.80049900  0.72130100  1
  H  H35  1  0.58311500  0.87637300  0.28239800  1
  H  H36  1  0.66795100  0.95484700  0.28294300  1
  H  H37  1  0.63804400  0.82513900  0.41017900  1
  H  H38  1  0.72289600  0.90358600  0.41073800  1
  H  H39  1  0.79532000  0.85373400  0.28249500  1
  H  H40  1  0.71047600  0.77526500  0.28195300  1
  H  H41  1  0.79108400  0.77980300  0.35577000  1
  H  H42  1  0.55593900  0.24358400  0.37365100  1
  H  H43  1  0.61655400  0.09943000  0.32434800  1
  H  H44  1  0.04384500  0.49615900  0.56526700  1
  H  H45  1  0.59852700  0.45811700  0.95150400  1
  H  H46  1  0.31902300  0.79221500  0.79364300  1
  H  H47  1  0.31336300  0.71900200  0.71958000  1
  H  H48  1  0.18148200  0.72449000  0.86788700  1
  H  H49  1  0.17578500  0.65127900  0.79383600  1
  H  H50  1  0.14712800  0.75539500  0.69333300  1
  H  H51  1  0.15279700  0.82860600  0.76739900  1
  H  H52  1  0.06221800  0.75487600  0.77175600  1
  C  C1  1  0.18077600  0.59188200  0.45814000  1
  C  C2  1  0.06462100  0.59186800  0.45815500  1
  C  C3  1  0.00554400  0.54029700  0.51586700  1
  C  C4  1  0.88549200  0.54028200  0.51588400  1
  C  C5  1  0.43567000  0.35824900  0.47160200  1
  C  C6  1  0.42865700  0.25830800  0.47738400  1
  C  C7  1  0.55647900  0.06389400  0.37334600  1
  C  C8  1  0.54989300  0.96999100  0.37877500  1
  C  C9  1  0.40890400  0.97659700  0.49367600  1
  C  C10  1  0.41549000  0.07050000  0.48824700  1
  C  C11  1  0.48927900  0.11414500  0.42807900  1
  C  C12  1  0.49586000  0.20805000  0.42264500  1
  C  C13  1  0.35487600  0.21465500  0.53755000  1
  C  C14  1  0.34829000  0.12075100  0.54298000  1
  C  C15  1  0.72485100  0.59184800  0.45817700  1
  C  C16  1  0.84100300  0.59184100  0.45818500  1
  C  C17  1  0.43758300  0.60547400  0.69268100  1
  C  C18  1  0.43131800  0.61127300  0.79262100  1
  C  C19  1  0.46898800  0.82639600  0.44468100  1
  C  C20  1  0.47610700  0.92633900  0.43893700  1
  C  C21  1  0.46699100  0.57837500  0.22454400  1
  C  C22  1  0.47347600  0.57282900  0.12459000  1
  C  C23  1  0.54504000  0.50715600  0.98703800  1
  C  C24  1  0.53915700  0.51260200  0.08094000  1
  C  C25  1  0.41367600  0.62761500  0.07433000  1
  C  C26  1  0.41955900  0.62216900  0.98042700  1
  C  C27  1  0.48524200  0.56193700  0.93678500  1
  C  C28  1  0.49111800  0.55648700  0.84288100  1
  C  C29  1  0.36564300  0.67150400  0.83627100  1
  C  C30  1  0.35976100  0.67695000  0.93017400  1
  C  C31  1  0.56252800  0.49106800  0.79565900  1
  C  C32  1  0.61365800  0.44427800  0.85977100  1
  C  C33  1  0.67946200  0.38401500  0.81630700  1
  C  C34  1  0.90882000  0.65057000  0.39225100  1
  C  C35  1  0.97148900  0.59636000  0.33752100  1
  C  C36  1  0.03399300  0.65043000  0.27678100  1
  C  C37  1  0.60412100  0.45301600  0.13534600  1
  C  C38  1  0.66288000  0.39909000  0.07702400  1
  C  C39  1  0.72273100  0.34417800  0.12711000  1
  C  C40  1  0.32895900  0.92908500  0.55905700  1
  C  C41  1  0.38068900  0.87857400  0.61983100  1
  C  C42  1  0.30707800  0.83478300  0.68006400  1
  C  C43  1  0.62300700  0.91541200  0.31951800  1
  C  C44  1  0.68298200  0.86456900  0.37362000  1
  C  C45  1  0.75037700  0.81429900  0.31907000  1
  C  C46  1  0.30052900  0.73087800  0.78176500  1
  C  C47  1  0.19431100  0.71260700  0.80571700  1
  C  C48  1  0.13429400  0.76727200  0.75551700  1
  O  O1  1  0.45228300  0.59186600  0.45815800  1
  O  O2  1  0.68634600  0.65027900  0.51022200  1
  O  O3  1  0.52512800  0.52497500  0.26035000  1
  O  O4  1  0.40588100  0.78965800  0.39138200  1
  O  O5  1  0.68540200  0.53342300  0.40612600  1
  O  O6  1  0.52731800  0.79605800  0.50183400  1
  O  O7  1  0.40463500  0.63543000  0.25399400  1
  O  O8  1  0.22608800  0.64389900  0.39974700  1
  O  O9  1  0.37157100  0.54830900  0.66231300  1
  O  O10  1  0.21129800  0.53986100  0.51653700  1
  O  O11  1  0.50779800  0.65874800  0.65597500  1
  O  O12  1  0.50560800  0.38766500  0.41449100  1
  O  O13  1  0.37032600  0.39408100  0.52492500  1
