data_DB5-hypotheticalMOF_15431_0_0_0_22_9_5_repeat
_audit_creation_date              2024-02-23
_audit_creation_method            'Materials Studio'
_symmetry_space_group_name_H-M    'P1'
_symmetry_Int_Tables_number       1
_symmetry_cell_setting            triclinic
loop_
_symmetry_equiv_pos_as_xyz
  x,y,z
_cell_length_a                    12.7594
_cell_length_b                    17.6377
_cell_length_c                    12.7594
_cell_angle_alpha                 78.7511
_cell_angle_beta                  89.9791
_cell_angle_gamma                 101.2206
loop_
_atom_site_label
_atom_site_type_symbol
_atom_site_fract_x
_atom_site_fract_y
_atom_site_fract_z
_atom_site_U_iso_or_equiv
_atom_site_adp_type
_atom_site_occupancy
Zn1    Zn    0.52171   0.68530   0.49065   0.00000  Uiso   1.00
Zn2    Zn    0.48606   0.55306   0.70191   0.00000  Uiso   1.00
Zn3    Zn    0.34599   0.68526   0.66632   0.00000  Uiso   1.00
Zn4    Zn    0.31048   0.55312   0.52625   0.00000  Uiso   1.00
O1     O     0.41606   0.61919   0.59628   0.00000  Uiso   1.00
O2     O     0.66400   0.66775   0.51866   0.00000  Uiso   1.00
O3     O     0.46743   0.57056   0.84422   0.00000  Uiso   1.00
O4     O     0.39908   0.79591   0.61323   0.00000  Uiso   1.00
O5     O     0.63781   0.57060   0.67387   0.00000  Uiso   1.00
O6     O     0.52818   0.79594   0.48416   0.00000  Uiso   1.00
O7     O     0.36452   0.66768   0.81808   0.00000  Uiso   1.00
O8     O     0.19426   0.66774   0.64775   0.00000  Uiso   1.00
O9     O     0.33855   0.57069   0.37450   0.00000  Uiso   1.00
O10    O     0.16817   0.57065   0.54484   0.00000  Uiso   1.00
O11    O     0.49374   0.66781   0.34834   0.00000  Uiso   1.00
O12    O     0.43299   0.44243   0.70840   0.00000  Uiso   1.00
O13    O     0.30399   0.44247   0.57935   0.00000  Uiso   1.00
C1     C     0.14310   0.61920   0.59630   0.00000  Uiso   1.00
C2     C     0.02631   0.61918   0.59629   0.00000  Uiso   1.00
C3     C     0.95787   0.56855   0.54283   0.00000  Uiso   1.00
C4     C     0.84815   0.56855   0.54281   0.00000  Uiso   1.00
C5     C     0.87532   0.66980   0.64972   0.00000  Uiso   1.00
C6     C     0.98504   0.66981   0.64973   0.00000  Uiso   1.00
C7     C     0.36080   0.41376   0.65157   0.00000  Uiso   1.00
C8     C     0.33725   0.32588   0.67519   0.00000  Uiso   1.00
C9     C     0.59561   0.03722   0.41653   0.00000  Uiso   1.00
C10    C     0.57345   0.95465   0.43874   0.00000  Uiso   1.00
C11    C     0.43911   0.95451   0.57327   0.00000  Uiso   1.00
C12    C     0.46126   0.03709   0.55107   0.00000  Uiso   1.00
C13    C     0.53951   0.07844   0.47270   0.00000  Uiso   1.00
C14    C     0.40517   0.07830   0.60724   0.00000  Uiso   1.00
C15    C     0.42731   0.16087   0.58504   0.00000  Uiso   1.00
C16    C     0.50555   0.20223   0.50667   0.00000  Uiso   1.00
C17    C     0.56166   0.16101   0.45050   0.00000  Uiso   1.00
C18    C     0.32691   0.03695   0.68561   0.00000  Uiso   1.00
C19    C     0.27082   0.07816   0.74178   0.00000  Uiso   1.00
C20    C     0.29297   0.16074   0.71959   0.00000  Uiso   1.00
C21    C     0.37121   0.20209   0.64122   0.00000  Uiso   1.00
C22    C     0.23686   0.20196   0.77576   0.00000  Uiso   1.00
C23    C     0.25901   0.28453   0.75356   0.00000  Uiso   1.00
C24    C     0.39335   0.28467   0.61902   0.00000  Uiso   1.00
C25    C     0.69009   0.61918   0.59626   0.00000  Uiso   1.00
C26    C     0.80687   0.61917   0.59626   0.00000  Uiso   1.00
C27    C     0.41616   0.61926   0.32223   0.00000  Uiso   1.00
C28    C     0.41620   0.61929   0.20544   0.00000  Uiso   1.00
C29    C     0.47157   0.82541   0.54075   0.00000  Uiso   1.00
C30    C     0.49522   0.91329   0.51709   0.00000  Uiso   1.00
C31    C     0.49701   0.66987   0.13696   0.00000  Uiso   1.00
C32    C     0.49704   0.66990   0.02722   0.00000  Uiso   1.00
C33    C     0.33544   0.56878   0.05448   0.00000  Uiso   1.00
C34    C     0.33541   0.56875   0.16421   0.00000  Uiso   1.00
C35    C     0.41604   0.61917   0.86926   0.00000  Uiso   1.00
C36    C     0.41626   0.61936   0.98598   0.00000  Uiso   1.00
H1     H     0.79243   0.52733   0.49928   0.00000  Uiso   1.00
H2     H     0.26959   0.52757   0.21997   0.00000  Uiso   1.00
N1     N     0.00239   0.51395   0.48519   0.00000  Uiso   1.00
H3     H     0.98662   0.52616   0.40681   0.00000  Uiso   1.00
H4     H     0.08227   0.52165   0.49339   0.00000  Uiso   1.00
H5     H     0.84170   0.71102   0.69323   0.00000  Uiso   1.00
N2     N     0.05887   0.72443   0.70737   0.00000  Uiso   1.00
H6     H     0.01608   0.75650   0.74123   0.00000  Uiso   1.00
H7     H     0.09574   0.69230   0.76472   0.00000  Uiso   1.00
H8     H     0.20711   0.04448   0.80559   0.00000  Uiso   1.00
H9     H     0.26966   0.52763   0.02089   0.00000  Uiso   1.00
H10    H     0.45708   0.31834   0.55521   0.00000  Uiso   1.00
H11    H     0.56280   0.71103   0.17053   0.00000  Uiso   1.00
H12    H     0.56285   0.71109   0.97146   0.00000  Uiso   1.00
H13    H     0.62538   0.19468   0.38669   0.00000  Uiso   1.00
N3     N     0.52945   0.29129   0.48272   0.00000  Uiso   1.00
H14    H     0.46270   0.31116   0.45813   0.00000  Uiso   1.00
H15    H     0.55416   0.31109   0.54946   0.00000  Uiso   1.00
H16    H     0.65933   0.07090   0.35272   0.00000  Uiso   1.00
N4     N     0.63397   0.91019   0.37816   0.00000  Uiso   1.00
H17    H     0.68690   0.94892   0.32515   0.00000  Uiso   1.00
H18    H     0.67342   0.87594   0.43010   0.00000  Uiso   1.00
H19    H     0.37540   0.92083   0.63708   0.00000  Uiso   1.00
H20    H     0.30888   0.96971   0.70367   0.00000  Uiso   1.00
N5     N     0.15247   0.15735   0.86028   0.00000  Uiso   1.00
H21    H     0.14695   0.09879   0.86582   0.00000  Uiso   1.00
H22    H     0.17273   0.17175   0.93143   0.00000  Uiso   1.00
N6     N     0.19850   0.32899   0.81414   0.00000  Uiso   1.00
H23    H     0.14557   0.29026   0.86716   0.00000  Uiso   1.00
H24    H     0.25048   0.36325   0.85351   0.00000  Uiso   1.00
