# generated using pymatgen
data_Zn4H7C16Br3O13
_symmetry_space_group_name_H-M   'P 1'
_cell_length_a   10.68598000
_cell_length_b   13.03286800
_cell_length_c   13.03405900
_cell_angle_alpha   74.93508000
_cell_angle_beta   77.85405800
_cell_angle_gamma   77.91977500
_symmetry_Int_Tables_number   1
_chemical_formula_structural   Zn4H7C16Br3O13
_chemical_formula_sum   'Zn4 H7 C16 Br3 O13'
_cell_volume   1690.48153000
_cell_formula_units_Z   1
loop_
 _symmetry_equiv_pos_site_id
 _symmetry_equiv_pos_as_xyz
  1  'x, y, z'
loop_
 _atom_site_type_symbol
 _atom_site_label
 _atom_site_symmetry_multiplicity
 _atom_site_fract_x
 _atom_site_fract_y
 _atom_site_fract_z
 _atom_site_occupancy
  Zn  Zn1  1  0.98864400  0.38597600  0.23380200  1
  Zn  Zn2  1  0.93978700  0.54404800  0.39157700  1
  Zn  Zn3  1  0.74936600  0.37722900  0.42483400  1
  Zn  Zn4  1  0.74964700  0.57697400  0.22481000  1
  H  H1  1  0.31051900  0.55010500  0.39793400  1
  H  H2  1  0.40449800  0.39196100  0.23948600  1
  H  H3  1  0.78287200  0.40668500  0.93560300  1
  H  H4  1  0.97611200  0.01712200  0.42307300  1
  H  H5  1  0.73777500  0.92391300  0.21453900  1
  H  H6  1  0.93134900  0.53515500  0.70084900  1
  H  H7  1  0.73676800  0.36751900  0.77163800  1
  C  C1  1  0.52319500  0.48984500  0.33760900  1
  C  C2  1  0.38045200  0.49791100  0.34564600  1
  C  C3  1  0.81915500  0.74908700  0.28590200  1
  C  C4  1  0.80314600  0.86802700  0.27180500  1
  C  C5  1  0.86520300  0.90905200  0.32608900  1
  C  C6  1  0.84865900  0.03198200  0.31152000  1
  C  C7  1  0.19182900  0.45219600  0.29982900  1
  C  C8  1  0.33457300  0.44415900  0.29176300  1
  C  C9  1  0.89519200  0.50356400  0.03965400  1
  C  C10  1  0.91152600  0.51741700  0.92071700  1
  C  C11  1  0.89470900  0.19194300  0.35172700  1
  C  C12  1  0.91072500  0.07300400  0.36581300  1
  C  C13  1  0.81876400  0.43859400  0.59677700  1
  C  C14  1  0.80271900  0.42442600  0.71573400  1
  C  C15  1  0.86540900  0.47823900  0.75675400  1
  C  C16  1  0.84882700  0.46359700  0.87970200  1
  Br  Br1  1  0.02144200  0.61228900  0.82755600  1
  Br  Br2  1  0.97418800  0.81591600  0.42152100  1
  Br  Br3  1  0.73969600  0.12511600  0.21606400  1
  O  O1  1  0.85686100  0.47105700  0.31875600  1
  O  O2  1  0.16187600  0.39682600  0.24457700  1
  O  O3  1  0.89396200  0.50447800  0.54572900  1
  O  O4  1  0.80143600  0.22864200  0.41717500  1
  O  O5  1  0.12598100  0.51296000  0.36049400  1
  O  O6  1  0.97723300  0.23506800  0.27682500  1
  O  O7  1  0.75406100  0.38191700  0.57016300  1
  O  O8  1  0.56969000  0.41384400  0.40845500  1
  O  O9  1  0.80191500  0.56907800  0.07626200  1
  O  O10  1  0.56989600  0.56059600  0.26149800  1
  O  O11  1  0.97750500  0.42875300  0.08286900  1
  O  O12  1  0.89423500  0.69816300  0.35177400  1
  O  O13  1  0.75454000  0.72235300  0.22925000  1
