# Generated by REPEAT Assigner based on pymatgen
data_DB5-hypotheticalMOF_36547_1_0_2_16_25_5
_audit_creation_date              2022-05-24
_audit_creation_method            REPEAT_Assigner
_cell_length_a                    14.853567
_cell_length_b                    14.853567
_cell_length_c                    16.176319
_cell_angle_alpha                 89.996997
_cell_angle_beta                  89.995559
_cell_angle_gamma                 83.634930
_cell_volume                      3546.956066
_symmetry_space_group_name_H-M    P1
_symmetry_Int_Tables_number       1
loop_
    _symmetry_equiv_pos_site_id
    _symmetry_equiv_pos_as_xyz
    1  x,y,z
loop_
    _atom_site_type_symbol
    _atom_site_label
    _atom_site_fract_x
    _atom_site_fract_y
    _atom_site_fract_z
    _atom_type_partial_charge
    O   O1   0.196368  0.117706  0.931318  -0.641115
    O   O2   0.933909  0.131728  0.931304  -0.644370
    O   O3   0.072149  0.993487  0.931309  -0.664220
    O   O4   0.058128  0.255947  0.931313  -0.712606
    O   O5   0.072130  0.993479  0.068802  -0.585408
    O   O6   0.933890  0.131719  0.068797  -0.627838
    O   O7   0.196349  0.117698  0.068811  -0.548465
    Cu  Cu1  0.065118  0.124707  0.081358  0.818688
    Cu  Cu2  0.065140  0.124718  0.918757  0.754428
    O   O8   0.058109  0.255938  0.068806  -0.727953
    C   C1   0.900311  0.131088  0.000049  0.743743
    C   C2   0.800227  0.129184  0.000044  0.215057
    C   C3   0.387693  0.039019  0.000061  -0.213473
    C   C4   0.366412  0.203251  0.000063  -0.425681
    C   C5   0.460446  0.205041  0.000060  0.311677
    C   C6   0.518108  0.123819  0.000056  0.027996
    C   C7   0.481736  0.040806  0.000056  -0.068078
    C   C8   0.496825  0.288053  0.000052  -0.308905
    C   C9   0.590864  0.289846  0.000049  -0.254464
    C   C10  0.648528  0.208623  0.000051  0.360992
    C   C11  0.612150  0.125607  0.000051  -0.161497
    C   C12  0.669812  0.044384  0.000048  0.288596
    C   C13  0.633437  0.961367  0.000054  -0.426794
    C   C14  0.539399  0.959583  0.000058  0.360648
    C   C15  0.742565  0.210407  0.000047  -0.508031
    C   C16  0.763855  0.046172  0.000043  -0.378637
    C   C17  0.071504  0.959894  0.000053  1.070498
    C   C18  0.069601  0.859811  0.000046  -0.309791
    C   C19  0.979435  0.447277  0.000057  0.612338
    C   C20  0.143668  0.425996  0.000065  0.558603
    C   C21  0.145458  0.520029  0.000060  -0.450604
    C   C22  0.064235  0.577691  0.000055  0.369186
    C   C23  0.981223  0.541320  0.000055  -0.509622
    C   C24  0.228469  0.556409  0.000069  0.540097
    C   C25  0.230262  0.650448  0.000065  -0.473855
    C   C26  0.149039  0.708111  0.000054  0.080372
    C   C27  0.066023  0.671734  0.000053  -0.198719
    C   C28  0.984800  0.729396  0.000047  0.310876
    C   C29  0.901783  0.693021  0.000040  -0.538075
    C   C30  0.899999  0.598983  0.000043  0.562318
    C   C31  0.150823  0.802149  0.000051  0.301624
    C   C32  0.986588  0.823439  0.000045  -0.274094
    C   C33  0.229947  0.118337  0.000064  0.751682
    C   C34  0.330031  0.120241  0.000064  0.090523
    C   C35  0.058754  0.289531  0.000060  1.257533
    C   C36  0.060657  0.389615  0.000062  -0.748209
    N   N1   0.065108  0.124700  0.195724  -0.109215
    N   N2   0.065157  0.124719  0.804392  0.164182
    C   C37  0.126340  0.063512  0.238990  0.256365
    C   C38  0.126344  0.063511  0.325537  0.116668
    C   C39  0.065121  0.124703  0.368816  -0.109425
    C   C40  0.003883  0.185893  0.325544  0.252735
    C   C41  0.003875  0.185889  0.238998  -0.159751
    C   C42  0.003914  0.185910  0.674572  -0.238620
    C   C43  0.003929  0.185912  0.761124  -0.134204
    C   C44  0.126383  0.063532  0.761111  -0.342275
    C   C45  0.126375  0.063528  0.674565  0.293426
    C   C46  0.065135  0.124715  0.631300  0.203662
    C   C47  0.065129  0.124714  0.537456  -0.242028
    C   C48  0.065130  0.124709  0.462659  0.089559
    H   H1   0.358072  0.971428  0.000069  0.114723
    N   N3   0.192368  0.997515  0.192302  -0.665745
    H   H2   0.256366  0.008011  0.207349  0.278915
    H   H3   0.181829  0.933539  0.207387  0.337301
    N   N4   0.500167  0.870050  0.000071  -0.751916
    H   H4   0.431846  0.881244  0.000072  0.315305
    H   H5   0.521251  0.834501  0.949102  0.287692
    H   H6   0.772178  0.277998  0.000044  0.184718
    H   H7   0.297860  0.680056  0.000070  0.188886
    H   H8   0.835652  0.739981  0.000042  0.206346
    H   H9   0.920445  0.870382  0.000037  0.118221
    H   H10  0.954052  0.235733  0.639353  0.164246
    N   N5   0.810466  0.559751  0.000039  -0.886268
    H   H11  0.821661  0.491429  0.000046  0.430143
    H   H12  0.774915  0.580837  0.051008  0.296526
    N   N6   0.889898  0.408052  0.000045  -0.778849
    H   H13  0.901085  0.339730  0.000045  0.313227
    H   H14  0.854345  0.429135  0.051013  0.239302
    N   N7   0.231268  0.363810  0.000084  -0.693182
    H   H15  0.217539  0.298718  0.000090  0.276887
    H   H16  0.267450  0.375593  0.949115  0.212000
    N   N8   0.316068  0.494220  0.000090  -0.859205
    H   H17  0.302337  0.429129  0.000089  0.398477
    H   H18  0.352256  0.506007  0.949126  0.283094
    H   H19  0.810798  0.980029  0.000043  0.143132
    N   N9   0.240350  0.841385  0.000068  -0.745866
    H   H20  0.291533  0.790587  0.000076  0.311607
    H   H21  0.244682  0.879937  0.949096  0.240338
    H   H22  0.680397  0.895236  0.000045  0.197801
    H   H23  0.449870  0.354180  0.000047  0.183580
    N   N10  0.192417  0.997547  0.372204  -0.594565
    H   H24  0.231215  0.958796  0.331654  0.239852
    H   H25  0.232298  0.032175  0.408086  0.277837
    H   H26  0.620472  0.357443  0.000044  0.144711
    H   H27  0.319459  0.269379  0.000058  0.175998
    N   N11  0.192412  0.997533  0.627885  -0.678369
    H   H28  0.231203  0.958768  0.668427  0.292821
    H   H29  0.157846  0.957612  0.591986  0.288877
    H   H30  0.176246  0.013707  0.796346  0.222489
    H   H31  0.954070  0.235743  0.796360  0.176528
    N   N12  0.937842  0.251889  0.372219  -0.700652
    H   H32  0.947138  0.242609  0.433611  0.307553
    H   H33  0.948328  0.315865  0.357083  0.289352
    H   H34  0.954013  0.235713  0.203772  0.188085
