# generated using pymatgen
data_ZnH11C18NO4
_symmetry_space_group_name_H-M   'P 1'
_cell_length_a   15.53786200
_cell_length_b   10.65455000
_cell_length_c   9.73022300
_cell_angle_alpha   90.00374900
_cell_angle_beta   89.99786300
_cell_angle_gamma   114.12533200
_symmetry_Int_Tables_number   1
_chemical_formula_structural   ZnH11C18NO4
_chemical_formula_sum   'Zn2 H22 C36 N2 O8'
_cell_volume   1470.12788032
_cell_formula_units_Z   2
loop_
 _symmetry_equiv_pos_site_id
 _symmetry_equiv_pos_as_xyz
  1  'x, y, z'
loop_
 _atom_site_type_symbol
 _atom_site_label
 _atom_site_symmetry_multiplicity
 _atom_site_fract_x
 _atom_site_fract_y
 _atom_site_fract_z
 _atom_site_occupancy
  Zn  Zn1  1  0.13820700  0.57952800  0.15048100  1
  Zn  Zn2  1  0.13820200  0.57952300  0.84931700  1
  H  H1  1  0.40428400  0.49974100  0.99986200  1
  H  H2  1  0.25298100  0.78679300  0.63044200  1
  H  H3  1  0.82642500  0.77550700  0.99991300  1
  H  H4  1  0.36226000  0.11956600  0.09554300  1
  H  H5  1  0.44997700  0.38354700  0.99988000  1
  H  H6  1  0.35824500  0.31977100  0.90418600  1
  H  H7  1  0.51990000  0.20572700  0.99986300  1
  H  H8  1  0.35508400  0.10988500  0.90119000  1
  H  H9  1  0.35088800  0.32027200  0.09853800  1
  H  H10  1  0.65641900  0.15006600  0.99986800  1
  H  H11  1  0.83418400  0.22689600  0.99989900  1
  H  H12  1  0.25299300  0.78680900  0.36940600  1
  H  H13  1  0.92968100  0.32104200  0.38888200  1
  H  H14  1  0.02475000  0.25286600  0.38329700  1
  H  H15  1  0.93364100  0.33196700  0.61643500  1
  H  H16  1  0.01795500  0.24436500  0.61085700  1
  H  H17  1  0.87213500  0.65930600  0.99990900  1
  H  H18  1  0.61999200  0.00897700  0.99990500  1
  H  H19  1  0.75651800  0.95330900  0.99990700  1
  H  H20  1  0.98078400  0.09941300  0.99987600  1
  H  H21  1  0.44222000  0.93217100  0.99990000  1
  H  H22  1  0.98549700  0.86391700  0.99996600  1
  C  C1  1  0.14356600  0.81156900  0.99991300  1
  C  C2  1  0.14080500  0.94972100  0.99992200  1
  C  C3  1  0.96654200  0.49209300  0.99990600  1
  C  C4  1  0.86225700  0.44702600  0.99990300  1
  C  C5  1  0.13284300  0.34748100  0.99988200  1
  C  C6  1  0.13560400  0.20932900  0.99986400  1
  C  C7  1  0.70482200  0.26434900  0.99989200  1
  C  C8  1  0.80281400  0.30671000  0.99989500  1
  C  C9  1  0.82372300  0.54503600  0.99990200  1
  C  C10  1  0.72573000  0.50269500  0.99989200  1
  C  C11  1  0.66628700  0.36234900  0.99988900  1
  C  C12  1  0.68719600  0.60069500  0.99988900  1
  C  C13  1  0.58921100  0.55835600  0.99988700  1
  C  C14  1  0.52976200  0.41801700  0.99988800  1
  C  C15  1  0.56830300  0.32001000  0.99988600  1
  C  C16  1  0.74664100  0.74104000  0.99990300  1
  C  C17  1  0.70810600  0.83904000  0.99990000  1
  C  C18  1  0.61012000  0.79670200  0.99988700  1
  C  C19  1  0.55067100  0.65636300  0.99988800  1
  C  C20  1  0.57157900  0.89470800  0.99988900  1
  C  C21  1  0.47359500  0.85236900  0.99988600  1
  C  C22  1  0.45268600  0.61402400  0.99988600  1
  C  C23  1  0.30986700  0.66695700  0.99988900  1
  C  C24  1  0.41415200  0.71202400  0.99988300  1
  C  C25  1  0.22497100  0.06856000  0.99989700  1
  C  C26  1  0.22237100  0.19836500  0.99987300  1
  C  C27  1  0.05143200  0.09047700  0.99989300  1
  C  C28  1  0.05403300  0.96067500  0.99992700  1
  C  C29  1  0.32366100  0.13084900  0.99988000  1
  C  C30  1  0.32106100  0.26065400  0.99985600  1
  C  C31  1  0.07493300  0.46527700  0.42794200  1
  C  C32  1  0.07492200  0.46527500  0.57182500  1
  C  C33  1  0.20147100  0.69377100  0.57184600  1
  C  C34  1  0.20147700  0.69377500  0.42796600  1
  C  C35  1  0.00187400  0.33333333  0.42793100  1
  C  C36  1  0.00186300  0.33333333  0.57181400  1
  N  N1  1  0.13820900  0.57952200  0.35601700  1
  N  N2  1  0.13819200  0.57951500  0.64378100  1
  O  O1  1  0.13191800  0.39384600  0.88559800  1
  O  O2  1  0.14448700  0.76520100  0.88562000  1
  O  O3  1  0.00153800  0.50722100  0.88561700  1
  O  O4  1  0.27486700  0.65182500  0.88560200  1
  O  O5  1  0.00154200  0.50722500  0.11419600  1
  O  O6  1  0.14449100  0.76520500  0.11420000  1
  O  O7  1  0.13192200  0.39385000  0.11417800  1
  O  O8  1  0.27487000  0.65182900  0.11418200  1
