# Generated by REPEAT Assigner based on pymatgen
data_DB5-hypotheticalMOF_29885_0_0_2_24_2_12
_audit_creation_date              2022-05-24
_audit_creation_method            REPEAT_Assigner
_cell_length_a                    16.992695
_cell_length_b                    9.065218
_cell_length_c                    7.540329
_cell_angle_alpha                 90.003038
_cell_angle_beta                  89.996072
_cell_angle_gamma                 92.157946
_cell_volume                      1160.707279
_symmetry_space_group_name_H-M    P1
_symmetry_Int_Tables_number       1
loop_
    _symmetry_equiv_pos_site_id
    _symmetry_equiv_pos_as_xyz
    1  x,y,z
loop_
    _atom_site_type_symbol
    _atom_site_label
    _atom_site_fract_x
    _atom_site_fract_y
    _atom_site_fract_z
    _atom_type_partial_charge
    O   O1   0.115065  0.028926  0.852510  -0.644674
    O   O2   0.124504  0.457336  0.852508  -0.606965
    O   O3   0.005630  0.244848  0.852523  -0.625875
    O   O4   0.233939  0.241414  0.852495  -0.641670
    O   O5   0.005628  0.244862  0.147488  -0.621194
    O   O6   0.124502  0.457349  0.147473  -0.621741
    O   O7   0.115064  0.028940  0.147476  -0.626691
    Cu  Cu1  0.119783  0.243146  0.174407  0.908267
    Cu  Cu2  0.119785  0.243130  0.825576  0.922890
    O   O8   0.233938  0.241427  0.147460  -0.597106
    C   C1   0.123596  0.512413  0.999990  0.883909
    C   C2   0.120884  0.676508  0.999989  -0.191136
    C   C3   0.976385  0.249274  0.000005  0.763752
    C   C4   0.889247  0.262458  0.000005  0.040947
    N   N1   0.119781  0.243147  0.419755  0.013454
    C   C5   0.839910  0.135252  0.000008  -0.291674
    C   C6   0.758036  0.147648  0.999991  -0.007534
    C   C7   0.725500  0.287252  0.999984  0.085773
    C   C8   0.774843  0.414467  0.999976  -0.248606
    C   C9   0.856716  0.402069  0.999980  -0.006563
    C   C10  0.481537  0.338636  0.999959  -0.190091
    C   C11  0.399657  0.351024  0.999960  -0.015980
    C   C12  0.382856  0.084203  0.999972  0.023217
    C   C13  0.464731  0.071818  0.999987  -0.375721
    C   C14  0.514067  0.199033  0.999969  0.356721
    N   N2   0.641811  0.299926  0.999972  0.143696
    N   N3   0.597755  0.186358  0.999968  -0.336367
    C   C15  0.263183  0.237002  0.999974  0.799960
    C   C16  0.350320  0.223818  0.999963  -0.156036
    C   C17  0.115972  0.973862  0.999989  0.985098
    C   C18  0.118684  0.809768  0.999978  -0.234235
    N   N4   0.119780  0.243118  0.580228  0.034672
    H   H1   0.866394  0.021572  0.000024  0.189175
    C   C19  0.364221  0.502506  0.999669  -0.121067
    C   C20  0.317692  0.517376  0.847943  0.305745
    C   C21  0.285024  0.656883  0.847631  -0.240617
    H   H2   0.405244  0.576639  0.999565  0.064091
    H   H3   0.332585  0.512909  0.102479  0.052548
    H   H4   0.349325  0.506988  0.745159  -0.072819
    H   H5   0.276656  0.443276  0.848014  -0.016772
    H   H6   0.253389  0.667286  0.950442  0.111493
    H   H7   0.326053  0.731004  0.847532  0.079643
    H   H8   0.253445  0.666985  0.744696  0.005485
    H   H9   0.717868  0.044063  0.999997  0.052451
    H   H10  0.491215  0.958138  0.999992  0.153528
    C   C22  0.535192  0.476624  0.000228  0.239156
    C   C23  0.582698  0.477293  0.151955  0.060546
    C   C24  0.632147  0.604378  0.152251  -0.035596
    H   H11  0.504187  0.561652  0.000321  -0.017231
    H   H12  0.567527  0.477333  0.897418  -0.088320
    H   H13  0.550366  0.476597  0.254739  -0.042328
    H   H14  0.613719  0.392293  0.151895  0.035101
    H   H15  0.664482  0.605087  0.049440  -0.027514
    H   H16  0.601136  0.689397  0.152338  -0.002614
    H   H17  0.664390  0.604842  0.255186  0.009218
    C   C25  0.329329  0.946039  0.000333  0.253837
    C   C26  0.344154  0.862559  0.152107  0.175116
    C   C27  0.294854  0.735276  0.152503  -0.079047
    H   H18  0.339256  0.889022  0.897592  -0.067849
    H   H19  0.275897  0.973349  0.000423  -0.071415
    H   H20  0.397574  0.835246  0.152001  -0.060046
    H   H21  0.334222  0.919532  0.254873  -0.069652
    H   H22  0.241422  0.762586  0.152592  0.017720
    H   H23  0.304785  0.678272  0.049755  0.038283
    H   H24  0.304901  0.678626  0.255486  -0.017785
    C   C28  0.910154  0.540355  0.000066  -0.070404
    C   C29  0.864139  0.665270  0.000105  0.399257
    C   C30  0.913337  0.792688  0.000197  -0.261614
    H   H25  0.942460  0.541263  0.897232  0.038394
    H   H26  0.942428  0.541157  0.102967  0.046852
    H   H27  0.831878  0.664469  0.897216  -0.070771
    H   H28  0.831834  0.664411  0.102933  -0.070473
    H   H29  0.945612  0.793489  0.103098  0.046197
    H   H30  0.945641  0.793581  0.897361  0.054052
    H   H31  0.882123  0.877457  0.000240  0.024133
    H   H32  0.748346  0.528136  0.999959  0.129414
