# Generated by REPEAT Assigner based on pymatgen
data_DB5-hypotheticalMOF_17652_0_0_1_21_9_7
_audit_creation_date              2022-05-24
_audit_creation_method            REPEAT_Assigner
_cell_length_a                    10.654550
_cell_length_b                    16.109301
_cell_length_c                    9.730223
_cell_angle_alpha                 89.994178
_cell_angle_beta                  89.999957
_cell_angle_gamma                 83.973206
_cell_volume                      1660.839076
_symmetry_space_group_name_H-M    P1
_symmetry_Int_Tables_number       1
loop_
    _symmetry_equiv_pos_site_id
    _symmetry_equiv_pos_as_xyz
    1  x,y,z
loop_
    _atom_site_type_symbol
    _atom_site_label
    _atom_site_fract_x
    _atom_site_fract_y
    _atom_site_fract_z
    _atom_type_partial_charge
    O   O1   0.666255  0.116774  0.885808  -0.720700
    O   O2   0.300625  0.127899  0.885782  -0.719208
    O   O3   0.493484  0.001365  0.885810  -0.696654
    O   O4   0.473396  0.243308  0.885780  -0.696412
    O   O5   0.493472  0.001362  0.114390  -0.696592
    O   O6   0.300613  0.127896  0.114362  -0.718954
    O   O7   0.666243  0.116770  0.114388  -0.720366
    Zn  Zn1  0.483426  0.122333  0.150667  0.968680
    Zn  Zn2  0.483442  0.122337  0.849503  0.969435
    O   O8   0.473384  0.243304  0.114360  -0.696245
    C   C1   0.253832  0.127081  0.000069  0.869229
    C   C2   0.114422  0.124637  0.000060  0.018136
    C   C3   0.033926  0.199138  0.000054  -0.130821
    C   C4   0.902936  0.196836  0.000079  -0.198618
    C   C5   0.932952  0.045526  0.000107  -0.144960
    C   C6   0.063939  0.047828  0.000093  -0.185109
    C   C7   0.492664  0.970384  0.000100  1.087056
    C   C8   0.490225  0.878074  0.000102  -0.426324
    C   C9   0.598991  0.656448  0.000088  0.029243
    C   C10  0.596689  0.569714  0.000076  0.007522
    C   C11  0.367868  0.588228  0.000066  -0.169503
    C   C12  0.370172  0.674961  0.000067  -0.191619
    C   C13  0.485737  0.709068  0.000085  0.039907
    C   C14  0.481131  0.535602  0.000072  0.056733
    C   C15  0.478634  0.441561  0.000060  0.026098
    C   C16  0.488234  0.803115  0.000095  0.052777
    C   C17  0.713036  0.117589  0.000098  0.865588
    C   C18  0.852446  0.120033  0.000098  0.032162
    C   C19  0.474203  0.274286  0.000067  1.085526
    C   C20  0.476643  0.366596  0.000056  -0.413725
    N   N1   0.483424  0.122329  0.356203  0.099733
    N   N2   0.483454  0.122334  0.643967  0.100071
    C   C21  0.568851  0.066324  0.428141  -0.080081
    C   C22  0.568863  0.066324  0.572024  -0.080003
    C   C23  0.398018  0.178342  0.572018  -0.078184
    C   C24  0.398001  0.178337  0.428138  -0.077235
    H   H1   0.891833  0.982991  0.000143  0.101254
    H   H2   0.638424  0.020718  0.630592  0.178911
    C   C25  0.726106  0.693965  0.000092  -0.088713
    H   H3   0.793225  0.650201  0.000079  0.046110
    H   H4   0.731765  0.727409  0.079803  0.048928
    H   H5   0.731759  0.727418  0.920371  0.048950
    H   H6   0.075024  0.261680  0.000038  0.096977
    H   H7   0.277941  0.717806  0.000061  0.144696
    H   H8   0.328470  0.223944  0.630602  0.176768
    C   C26  0.721265  0.511832  0.000074  -0.161727
    H   H9   0.703347  0.455292  0.000053  0.084444
    H   H10  0.768654  0.522234  0.079785  0.066557
    H   H11  0.768646  0.522254  0.920354  0.066563
    H   H12  0.638406  0.020717  0.369575  0.178903
    H   H13  0.328430  0.223944  0.369562  0.176542
    H   H14  0.273779  0.560447  0.000054  0.136532
    H   H15  0.837401  0.257503  0.000077  0.115492
    H   H16  0.129483  0.987157  0.000101  0.116233
