data_DB5-hypotheticalMOF_18213_3_1_1_21_21_5_repeat
_audit_creation_date              2024-02-20
_audit_creation_method            'Materials Studio'
_symmetry_space_group_name_H-M    'P1'
_symmetry_Int_Tables_number       1
_symmetry_cell_setting            triclinic
loop_
_symmetry_equiv_pos_as_xyz
  x,y,z
_cell_length_a                    16.1093
_cell_length_b                    16.1093
_cell_length_c                    15.1862
_cell_angle_alpha                 90.0052
_cell_angle_beta                  89.9994
_cell_angle_gamma                 96.5385
loop_
_atom_site_label
_atom_site_type_symbol
_atom_site_fract_x
_atom_site_fract_y
_atom_site_fract_z
_atom_site_U_iso_or_equiv
_atom_site_adp_type
_atom_site_occupancy
O1     O     0.10313   0.89313   0.92682   0.00000  Uiso   1.00
O2     O     0.60313   0.39313   0.42682   0.00000  Uiso   1.00
O3     O     0.86107   0.87983   0.92681   0.00000  Uiso   1.00
O4     O     0.36107   0.37984   0.42681   0.00000  Uiso   1.00
O5     O     0.98875   0.00752   0.92683   0.00000  Uiso   1.00
O6     O     0.48875   0.50751   0.42683   0.00000  Uiso   1.00
O7     O     0.97545   0.76545   0.92681   0.00000  Uiso   1.00
O8     O     0.47545   0.26545   0.42681   0.00000  Uiso   1.00
O9     O     0.98874   0.00752   0.07328   0.00000  Uiso   1.00
O10    O     0.48874   0.50752   0.57328   0.00000  Uiso   1.00
O11    O     0.86106   0.87984   0.07327   0.00000  Uiso   1.00
O12    O     0.36106   0.37984   0.57327   0.00000  Uiso   1.00
O13    O     0.10312   0.89314   0.07328   0.00000  Uiso   1.00
O14    O     0.60312   0.39314   0.57328   0.00000  Uiso   1.00
Zn1    Zn    0.98209   0.88649   0.09653   0.00000  Uiso   1.00
Zn2    Zn    0.48209   0.38649   0.59653   0.00000  Uiso   1.00
Zn3    Zn    0.98210   0.88648   0.90356   0.00000  Uiso   1.00
Zn4    Zn    0.48210   0.38648   0.40356   0.00000  Uiso   1.00
O15    O     0.97544   0.76546   0.07327   0.00000  Uiso   1.00
O16    O     0.47544   0.26545   0.57327   0.00000  Uiso   1.00
C1     C     0.83009   0.88037   0.00004   0.00000  Uiso   1.00
C2     C     0.33009   0.38037   0.50004   0.00000  Uiso   1.00
C3     C     0.73779   0.88199   0.00003   0.00000  Uiso   1.00
C4     C     0.23779   0.38199   0.50003   0.00000  Uiso   1.00
N1     N     0.98209   0.88649   0.22822   0.00000  Uiso   1.00
N2     N     0.48209   0.38649   0.72822   0.00000  Uiso   1.00
C5     C     0.98821   0.03849   0.00006   0.00000  Uiso   1.00
C6     C     0.48821   0.53849   0.50006   0.00000  Uiso   1.00
C7     C     0.98659   0.13079   0.00006   0.00000  Uiso   1.00
C8     C     0.48659   0.63079   0.50006   0.00000  Uiso   1.00
C9     C     0.51552   0.80998   0.00004   0.00000  Uiso   1.00
C10    C     0.01552   0.30998   0.50004   0.00000  Uiso   1.00
C11    C     0.42880   0.81151   0.00004   0.00000  Uiso   1.00
C12    C     0.92880   0.31151   0.50004   0.00000  Uiso   1.00
C13    C     0.44868   0.96299   0.00005   0.00000  Uiso   1.00
C14    C     0.94868   0.46299   0.50005   0.00000  Uiso   1.00
C15    C     0.53539   0.96147   0.00005   0.00000  Uiso   1.00
C16    C     0.03539   0.46147   0.50005   0.00000  Uiso   1.00
C17    C     0.56882   0.88496   0.00004   0.00000  Uiso   1.00
C18    C     0.06882   0.38496   0.50004   0.00000  Uiso   1.00
C19    C     0.39538   0.88801   0.00005   0.00000  Uiso   1.00
C20    C     0.89538   0.38801   0.50005   0.00000  Uiso   1.00
C21    C     0.30135   0.88966   0.00005   0.00000  Uiso   1.00
C22    C     0.80135   0.38966   0.50005   0.00000  Uiso   1.00
C23    C     0.66285   0.88331   0.00004   0.00000  Uiso   1.00
C24    C     0.16285   0.38331   0.50004   0.00000  Uiso   1.00
C25    C     0.13410   0.89260   0.00005   0.00000  Uiso   1.00
C26    C     0.63410   0.39260   0.50005   0.00000  Uiso   1.00
C27    C     0.22640   0.89098   0.00005   0.00000  Uiso   1.00
C28    C     0.72640   0.39098   0.50005   0.00000  Uiso   1.00
C29    C     0.97598   0.73448   0.00003   0.00000  Uiso   1.00
C30    C     0.47598   0.23448   0.50003   0.00000  Uiso   1.00
C31    C     0.97760   0.64218   0.00003   0.00000  Uiso   1.00
C32    C     0.47760   0.14218   0.50003   0.00000  Uiso   1.00
C33    C     0.05860   0.35306   0.00005   0.00000  Uiso   1.00
C34    C     0.55860   0.85306   0.50005   0.00000  Uiso   1.00
C35    C     0.05707   0.43978   0.00004   0.00000  Uiso   1.00
C36    C     0.55708   0.93978   0.50004   0.00000  Uiso   1.00
C37    C     0.90559   0.41991   0.00003   0.00000  Uiso   1.00
C38    C     0.40559   0.91990   0.50003   0.00000  Uiso   1.00
C39    C     0.90711   0.33319   0.00004   0.00000  Uiso   1.00
C40    C     0.40711   0.83319   0.50004   0.00000  Uiso   1.00
C41    C     0.98362   0.29977   0.00005   0.00000  Uiso   1.00
C42    C     0.48362   0.79977   0.50005   0.00000  Uiso   1.00
C43    C     0.98057   0.47320   0.00004   0.00000  Uiso   1.00
C44    C     0.48057   0.97320   0.50004   0.00000  Uiso   1.00
C45    C     0.97892   0.56723   0.00003   0.00000  Uiso   1.00
C46    C     0.47892   0.06723   0.50003   0.00000  Uiso   1.00
C47    C     0.98527   0.20573   0.00005   0.00000  Uiso   1.00
C48    C     0.48527   0.70573   0.50005   0.00000  Uiso   1.00
N3     N     0.98211   0.88649   0.77187   0.00000  Uiso   1.00
N4     N     0.48211   0.38649   0.27187   0.00000  Uiso   1.00
C49    C     0.03864   0.94301   0.45395   0.00000  Uiso   1.00
C50    C     0.53864   0.44301   0.95395   0.00000  Uiso   1.00
C51    C     0.03865   0.94301   0.54614   0.00000  Uiso   1.00
C52    C     0.53865   0.44301   0.04614   0.00000  Uiso   1.00
C53    C     0.92555   0.82997   0.54614   0.00000  Uiso   1.00
C54    C     0.42555   0.32997   0.04614   0.00000  Uiso   1.00
C55    C     0.92554   0.82997   0.45395   0.00000  Uiso   1.00
C56    C     0.42554   0.32997   0.95395   0.00000  Uiso   1.00
C57    C     0.98209   0.88649   0.40786   0.00000  Uiso   1.00
C58    C     0.48209   0.38649   0.90786   0.00000  Uiso   1.00
C59    C     0.98210   0.88649   0.59223   0.00000  Uiso   1.00
C60    C     0.48210   0.38649   0.09223   0.00000  Uiso   1.00
C61    C     0.98210   0.88649   0.69219   0.00000  Uiso   1.00
C62    C     0.48210   0.38649   0.19219   0.00000  Uiso   1.00
C63    C     0.98209   0.88649   0.30789   0.00000  Uiso   1.00
C64    C     0.48209   0.38649   0.80789   0.00000  Uiso   1.00
H1     H     0.54273   0.74768   0.00003   0.00000  Uiso   1.00
H2     H     0.04273   0.24768   0.50003   0.00000  Uiso   1.00
H3     H     0.57879   0.02253   0.00006   0.00000  Uiso   1.00
H4     H     0.07879   0.52253   0.50006   0.00000  Uiso   1.00
N5     N     0.14112   0.31701   0.00006   0.00000  Uiso   1.00
N6     N     0.64112   0.81701   0.50006   0.00000  Uiso   1.00
H5     H     0.17397   0.33644   0.94577   0.00000  Uiso   1.00
H6     H     0.67397   0.83644   0.44577   0.00000  Uiso   1.00
H7     H     0.13064   0.25400   0.00010   0.00000  Uiso   1.00
H8     H     0.63064   0.75400   0.50009   0.00000  Uiso   1.00
H9     H     0.08469   0.98903   0.41643   0.00000  Uiso   1.00
H10    H     0.58469   0.48903   0.91643   0.00000  Uiso   1.00
H11    H     0.84605   0.28979   0.00003   0.00000  Uiso   1.00
H12    H     0.34605   0.78979   0.50003   0.00000  Uiso   1.00
H13    H     0.08469   0.98903   0.58367   0.00000  Uiso   1.00
H14    H     0.58469   0.48903   0.08367   0.00000  Uiso   1.00
N7     N     0.37134   0.73062   0.00007   0.00000  Uiso   1.00
N8     N     0.87134   0.23062   0.50007   0.00000  Uiso   1.00
H15    H     0.38208   0.69723   0.94579   0.00000  Uiso   1.00
H16    H     0.88208   0.19723   0.44579   0.00000  Uiso   1.00
H17    H     0.31135   0.74324   0.00012   0.00000  Uiso   1.00
H18    H     0.81135   0.24324   0.50012   0.00000  Uiso   1.00
N9     N     0.86456   0.76900   0.59584   0.00000  Uiso   1.00
N10    N     0.36456   0.26900   0.09584   0.00000  Uiso   1.00
H19    H     0.80556   0.77859   0.57981   0.00000  Uiso   1.00
H20    H     0.30556   0.27859   0.07981   0.00000  Uiso   1.00
H21    H     0.87322   0.77760   0.66122   0.00000  Uiso   1.00
H22    H     0.37322   0.27760   0.16122   0.00000  Uiso   1.00
H23    H     0.87949   0.78395   0.41641   0.00000  Uiso   1.00
H24    H     0.37949   0.28395   0.91641   0.00000  Uiso   1.00
H25    H     0.11813   0.48317   0.00004   0.00000  Uiso   1.00
H26    H     0.61813   0.98317   0.50004   0.00000  Uiso   1.00
N11    N     0.41263   0.04551   0.00007   0.00000  Uiso   1.00
N12    N     0.91263   0.54551   0.50007   0.00000  Uiso   1.00
H27    H     0.34961   0.03510   0.00007   0.00000  Uiso   1.00
H28    H     0.84961   0.53510   0.50007   0.00000  Uiso   1.00
H29    H     0.43213   0.07832   0.94578   0.00000  Uiso   1.00
H30    H     0.93213   0.57832   0.44578   0.00000  Uiso   1.00
H31    H     0.84330   0.44713   0.00003   0.00000  Uiso   1.00
H32    H     0.34329   0.94713   0.50003   0.00000  Uiso   1.00
