# Generated by REPEAT Assigner based on pymatgen
data_DB6-cuf_2535
_audit_creation_date              2022-05-24
_audit_creation_method            REPEAT_Assigner
_cell_length_a                    15.625200
_cell_length_b                    9.065200
_cell_length_c                    14.421500
_cell_angle_alpha                 90.005600
_cell_angle_beta                  71.925400
_cell_angle_gamma                 84.600200
_cell_volume                      1932.394993
_symmetry_space_group_name_H-M    P1
_symmetry_Int_Tables_number       1
loop_
    _symmetry_equiv_pos_site_id
    _symmetry_equiv_pos_as_xyz
    1  x,y,z
loop_
    _atom_site_type_symbol
    _atom_site_label
    _atom_site_fract_x
    _atom_site_fract_y
    _atom_site_fract_z
    _atom_type_partial_charge
    Cu  Cu1  0.223710  0.028720  0.127580  0.810825
    Cu  Cu2  0.223730  0.028750  0.309970  0.729414
    C   C1   0.629630  0.025770  0.998200  -0.156211
    C   C2   0.535570  0.022840  0.029850  -0.180260
    C   C3   0.535590  0.022870  0.197970  0.192009
    C   C4   0.629650  0.025800  0.166340  -0.008013
    C   C5   0.676670  0.027240  0.066460  0.059258
    C   C6   0.676690  0.027280  0.234590  0.042163
    C   C7   0.770740  0.030200  0.202960  -0.085208
    C   C8   0.817760  0.031640  0.103080  -0.130105
    C   C9   0.770720  0.030170  0.034820  0.215778
    C   C10  0.629670  0.025820  0.334480  -0.286148
    C   C11  0.676710  0.027300  0.402730  0.385946
    C   C12  0.770770  0.030230  0.371100  -0.040217
    C   C13  0.817790  0.031670  0.271210  0.062712
    C   C14  0.817810  0.031710  0.439350  -0.150742
    C   C15  0.911860  0.034630  0.407720  -0.146723
    C   C16  0.911840  0.034600  0.239580  0.178969
    N   N1   0.958840  0.116910  0.157250  -0.493290
    H   H1   0.926230  0.210870  0.136120  0.235186
    H   H2   0.029210  0.099990  0.127280  0.261709
    N   N2   0.624800  0.025480  0.504370  -1.007926
    H   H3   0.651260  0.979650  0.557120  0.359212
    H   H4   0.554610  0.050180  0.526590  0.524857
    N   N3   0.488710  0.939900  0.280050  -0.513308
    H   H5   0.418350  0.956710  0.310090  0.246108
    H   H6   0.521460  0.845830  0.300870  0.253971
    N   N4   0.823320  0.019680  0.933160  -0.912824
    H   H7   0.889850  0.047740  0.911070  0.374069
    H   H8   0.803050  0.966170  0.880690  0.374040
    H   H9   0.894350  0.034020  0.077330  0.025092
    H   H10  0.667910  0.026940  0.916870  0.087726
    H   H11  0.497280  0.021640  0.974270  0.127667
    H   H12  0.553090  0.023430  0.360220  0.104178
    H   H13  0.779520  0.030530  0.520680  0.104889
    H   H14  0.950160  0.035830  0.463300  0.110842
    C   C17  0.058980  0.039190  0.274170  0.572278
    C   C18  0.958880  0.036080  0.307830  -0.112893
    O   O1   0.092560  0.040220  0.182140  -0.478626
    O   O2   0.092580  0.040240  0.343610  -0.485860
    C   C19  0.388450  0.018280  0.163380  0.540400
    C   C20  0.488550  0.021390  0.129720  -0.090459
    O   O3   0.354870  0.017250  0.255410  -0.426787
    O   O4   0.354850  0.017230  0.093940  -0.496257
    C   C21  0.228100  0.759010  0.217300  0.762060
    C   C22  0.224990  0.595230  0.218350  -0.182518
    O   O5   0.229160  0.813990  0.297690  -0.540324
    O   O6   0.229140  0.813960  0.136210  -0.555056
    C   C23  0.219330  0.298450  0.220250  0.832997
    C   C24  0.222460  0.462230  0.219200  -0.214759
    O   O7   0.218290  0.243500  0.301340  -0.573497
    O   O8   0.218280  0.243480  0.139860  -0.581599
    C   C25  0.286760  0.923880  0.728480  0.377969
    C   C26  0.205010  0.895430  0.694130  -0.137693
    C   C27  0.223710  0.028720  0.810140  -0.065447
    C   C28  0.305470  0.057120  0.660390  0.064254
    C   C29  0.223720  0.028740  0.627410  0.497566
    C   C30  0.141920  0.000210  0.777170  0.574280
    C   C31  0.242430  0.161960  0.743420  0.448555
    C   C32  0.160620  0.133570  0.709120  -0.041328
    C   C33  0.223700  0.028710  0.915410  -0.037168
    C   C34  0.223720  0.028750  0.522160  -0.182894
    O   O9   0.387050  0.089880  0.590940  -0.415204
    C   C35  0.457890  0.077320  0.632310  0.016379
    H   H15  0.484380  0.959350  0.632150  0.023994
    H   H16  0.437700  0.128580  0.707050  0.055991
    H   H17  0.514040  0.136710  0.586050  0.068335
    O   O10  0.260310  0.298730  0.776860  -0.407831
    C   C36  0.297680  0.388310  0.697250  0.061382
    H   H18  0.279390  0.506140  0.722050  0.069253
    H   H19  0.272440  0.372110  0.634030  0.019643
    H   H20  0.372470  0.368570  0.673220  0.044222
    O   O11  0.093290  0.232720  0.689530  -0.333803
    C   C37  0.073630  0.361530  0.750080  0.030548
    H   H21  0.002110  0.404610  0.761630  0.056662
    H   H22  0.116160  0.448520  0.713110  0.123191
    H   H23  0.081300  0.342630  0.823360  -0.014754
    O   O12  0.060620  0.951510  0.838360  -0.426799
    C   C38  0.001310  0.072050  0.888660  -0.120161
    H   H24  0.945380  0.028330  0.946570  0.214671
    H   H25  0.970450  0.134610  0.838980  0.074945
    H   H26  0.034630  0.145720  0.925380  0.083308
    O   O13  0.189590  0.750490  0.671860  -0.297805
    C   C39  0.115830  0.754270  0.634940  0.016907
    H   H27  0.085290  0.647790  0.650890  0.040130
    H   H28  0.139970  0.763290  0.554500  0.078707
    H   H29  0.061290  0.844540  0.668040  0.033103
    O   O14  0.351550  0.801990  0.724980  -0.373888
    C   C40  0.389010  0.810010  0.801490  0.141187
    H   H30  0.450580  0.730400  0.784270  0.039574
    H   H31  0.341350  0.775030  0.870490  0.046439
    H   H32  0.410470  0.921250  0.809880  -0.010290
    N   N5   0.223700  0.028700  0.999310  -0.125881
    N   N6   0.223730  0.028770  0.438240  -0.034992
