# Generated by REPEAT Assigner based on pymatgen
data_DB6-cuf_10369
_audit_creation_date              2022-05-24
_audit_creation_method            REPEAT_Assigner
_cell_length_a                    14.971500
_cell_length_b                    12.811400
_cell_length_c                    14.586300
_cell_angle_alpha                 84.568200
_cell_angle_beta                  90.007900
_cell_angle_gamma                 83.829900
_cell_volume                      2768.890722
_symmetry_space_group_name_H-M    P1
_symmetry_Int_Tables_number       1
loop_
    _symmetry_equiv_pos_site_id
    _symmetry_equiv_pos_as_xyz
    1  x,y,z
loop_
    _atom_site_type_symbol
    _atom_site_label
    _atom_site_fract_x
    _atom_site_fract_y
    _atom_site_fract_z
    _atom_type_partial_charge
    Cu  Cu1  0.179870  0.180660  0.034750  0.854569
    Cu  Cu2  0.179900  0.180650  0.215080  0.751362
    C   C1   0.870440  0.184870  0.207700  0.349310
    C   C2   0.777140  0.182810  0.207860  -0.318427
    C   C3   0.730470  0.181780  0.124830  0.047439
    C   C4   0.777120  0.182820  0.041620  0.197682
    C   C5   0.870420  0.184890  0.041450  -0.176363
    C   C6   0.582650  0.178510  0.041970  0.200770
    C   C7   0.489340  0.176440  0.042140  -0.192058
    C   C8   0.489360  0.176430  0.208380  0.339488
    C   C9   0.582660  0.178500  0.208220  -0.312708
    C   C10  0.629300  0.179540  0.125010  0.047479
    F   F1   0.915790  0.186440  0.288010  -0.207279
    F   F2   0.739920  0.225860  0.960250  -0.160182
    F   F3   0.619870  0.135470  0.967770  -0.157989
    F   F4   0.444050  0.174870  0.288920  -0.207393
    H   H1   0.739170  0.181980  0.275620  0.172591
    H   H2   0.620660  0.179330  0.275830  0.170992
    H   H3   0.451350  0.175600  0.974520  0.158999
    H   H4   0.908390  0.185720  0.973700  0.152052
    C   C11  0.016390  0.188110  0.124310  0.619765
    C   C12  0.917080  0.185910  0.124490  -0.170610
    O   O1   0.049690  0.188850  0.044410  -0.510103
    O   O2   0.049720  0.188850  0.204070  -0.423078
    C   C13  0.343390  0.173200  0.125530  0.609309
    C   C14  0.442690  0.175400  0.125340  -0.156203
    O   O3   0.310080  0.172460  0.205420  -0.431633
    O   O4   0.310050  0.172470  0.045760  -0.503680
    C   C15  0.179360  0.653290  0.002510  0.473860
    C   C16  0.177290  0.543810  0.011610  -0.336851
    C   C17  0.177310  0.543800  0.177850  -0.234432
    C   C18  0.179380  0.653280  0.168750  -0.020640
    C   C19  0.180400  0.708030  0.081080  -0.018993
    C   C20  0.182460  0.817510  0.071980  -0.239302
    C   C21  0.182490  0.817500  0.238230  -0.325962
    C   C22  0.180420  0.708010  0.247320  0.464708
    N   N1   0.183800  0.704060  0.910650  -0.941404
    H   H5   0.212930  0.773810  0.895390  0.366626
    H   H6   0.168760  0.664310  0.854240  0.377029
    N   N2   0.182900  0.656200  0.339270  -0.932324
    H   H7   0.169470  0.700280  0.395320  0.374464
    H   H8   0.209320  0.577980  0.355240  0.362972
    H   H9   0.183290  0.862080  0.000590  0.144054
    H   H10  0.176450  0.499260  0.947630  0.148264
    H   H11  0.176490  0.499220  0.249230  0.147038
    H   H12  0.183330  0.862070  0.302210  0.148225
    C   C23  0.185710  0.988770  0.140870  0.610922
    C   C24  0.183510  0.872250  0.150560  0.000107
    O   O5   0.186460  0.027870  0.217450  -0.522789
    O   O6   0.186430  0.027870  0.057790  -0.533457
    C   C25  0.174070  0.372540  0.108960  0.610967
    C   C26  0.176270  0.489060  0.099280  0.003821
    O   O7   0.173320  0.333450  0.032390  -0.522987
    O   O8   0.173340  0.333440  0.192040  -0.536453
    C   C27  0.119470  0.252070  0.666960  0.412979
    C   C28  0.119480  0.252070  0.570980  -0.277726
    C   C29  0.240320  0.109240  0.582880  0.423005
    C   C30  0.240310  0.109240  0.678860  -0.299848
    C   C31  0.179880  0.180660  0.720900  -0.091014
    C   C32  0.179900  0.180650  0.528940  -0.094750
    C   C33  0.179910  0.180650  0.424870  0.253657
    C   C34  0.179870  0.180660  0.824970  0.256531
    N   N3   0.303280  0.034810  0.542320  -0.885405
    H   H13  0.307220  0.030160  0.471410  0.391850
    H   H14  0.347840  0.982150  0.583790  0.374238
    N   N4   0.056500  0.326500  0.707520  -0.894291
    H   H15  0.052560  0.331150  0.778430  0.394857
    H   H16  0.011950  0.379160  0.666050  0.381096
    H   H17  0.070290  0.310240  0.527070  0.192074
    H   H18  0.289510  0.051080  0.722780  0.198611
    N   N5   0.179860  0.180660  0.907920  -0.297106
    N   N6   0.179920  0.180650  0.341910  -0.250318
