# Generated by REPEAT Assigner based on pymatgen
data_DB6-cuf_6140
_audit_creation_date              2022-05-24
_audit_creation_method            REPEAT_Assigner
_cell_length_a                    14.853500
_cell_length_b                    19.188900
_cell_length_c                    14.472300
_cell_angle_alpha                 90.001700
_cell_angle_beta                  90.004000
_cell_angle_gamma                 83.383800
_cell_volume                      4097.457516
_symmetry_space_group_name_H-M    P1
_symmetry_Int_Tables_number       1
loop_
    _symmetry_equiv_pos_site_id
    _symmetry_equiv_pos_as_xyz
    1  x,y,z
loop_
    _atom_site_type_symbol
    _atom_site_label
    _atom_site_fract_x
    _atom_site_fract_y
    _atom_site_fract_z
    _atom_type_partial_charge
    Cu  Cu1  0.155700  0.208390  0.033980  0.737509
    Cu  Cu2  0.155710  0.208400  0.215720  0.871372
    C   C1   0.467640  0.205610  0.041070  -0.156535
    C   C2   0.467650  0.205630  0.208620  -0.155243
    C   C3   0.561680  0.207020  0.208620  0.048936
    C   C4   0.608690  0.207700  0.124850  -0.052730
    C   C5   0.561670  0.207000  0.041070  0.050038
    C   C6   0.608700  0.207710  0.292400  0.127523
    C   C7   0.702730  0.209100  0.292410  0.123778
    C   C8   0.749740  0.209790  0.208630  0.047733
    C   C9   0.702720  0.209090  0.124850  -0.054329
    C   C10  0.749730  0.209780  0.041080  0.051855
    C   C11  0.702720  0.209080  0.957290  0.119761
    C   C12  0.608690  0.207700  0.957300  0.129413
    C   C13  0.843770  0.211180  0.208630  -0.147194
    C   C14  0.843770  0.211170  0.041080  -0.149954
    F   F1   0.564380  0.207070  0.374430  -0.146368
    F   F2   0.747070  0.209760  0.374430  -0.140865
    F   F3   0.747030  0.209720  0.875270  -0.139148
    F   F4   0.564340  0.207040  0.875270  -0.146482
    H   H1   0.882040  0.211730  0.972860  0.132796
    H   H2   0.429350  0.205050  0.972850  0.135037
    H   H3   0.429380  0.205070  0.276830  0.136050
    H   H4   0.882050  0.211740  0.276840  0.133662
    C   C15  0.990860  0.213340  0.124850  0.553691
    C   C16  0.890780  0.211870  0.124860  0.002498
    O   O1   0.024430  0.213830  0.044400  -0.520199
    O   O2   0.024450  0.213840  0.205310  -0.515466
    C   C17  0.320550  0.203450  0.124850  0.539357
    C   C18  0.420630  0.204930  0.124840  0.013293
    O   O3   0.286970  0.202970  0.205300  -0.511657
    O   O4   0.286960  0.202940  0.044390  -0.515817
    C   C19  0.160640  0.966830  0.208640  -0.298691
    C   C20  0.159250  0.894010  0.208630  0.685079
    C   C21  0.158550  0.857590  0.124860  -0.631386
    C   C22  0.159230  0.894010  0.041080  -0.190730
    C   C23  0.160610  0.966840  0.041080  0.539592
    N   N1   0.207680  0.738100  0.062500  -0.380906
    N   N2   0.206360  0.668910  0.062500  -0.388149
    C   C24  0.154380  0.638170  0.124840  0.993621
    N   N3   0.103770  0.679220  0.187200  -0.353605
    N   N4   0.105080  0.748410  0.187200  -0.354462
    C   C25  0.157050  0.778620  0.124840  0.999407
    C   C26  0.152180  0.522790  0.208610  0.688359
    C   C27  0.150780  0.449960  0.208610  -0.301320
    C   C28  0.150770  0.449970  0.041050  0.527257
    C   C29  0.152160  0.522790  0.041060  -0.184446
    C   C30  0.152870  0.559200  0.124840  -0.629830
    N   N5   0.158330  0.004460  0.954950  -1.031460
    H   H5   0.159220  0.058780  0.954040  0.426614
    H   H6   0.158020  0.978010  0.891860  0.394378
    N   N6   0.164010  0.858760  0.295400  -1.120390
    H   H7   0.191320  0.806450  0.301280  0.423437
    H   H8   0.153690  0.887110  0.356900  0.441802
    N   N7   0.158140  0.557010  0.295360  -1.123521
    H   H9   0.187070  0.603770  0.301230  0.424324
    H   H10  0.146850  0.530840  0.356860  0.440116
    N   N8   0.147090  0.412990  0.954860  -1.017392
    H   H11  0.145920  0.358700  0.953970  0.420730
    H   H12  0.147790  0.439390  0.891840  0.386533
    H   H13  0.161210  0.996480  0.276860  0.156897
    H   H14  0.158670  0.864360  0.972870  0.135369
    H   H15  0.150230  0.420320  0.276820  0.155111
    H   H16  0.152720  0.552440  0.972850  0.134609
    C   C31  0.162800  0.080750  0.124860  0.694020
    C   C32  0.161320  0.003240  0.124870  -0.242554
    O   O5   0.163300  0.106770  0.205320  -0.524156
    O   O6   0.163280  0.106760  0.044400  -0.472217
    C   C33  0.148610  0.336040  0.124840  0.693394
    C   C34  0.150090  0.413550  0.124830  -0.233311
    O   O7   0.148120  0.310030  0.044380  -0.470763
    O   O8   0.148120  0.310040  0.205300  -0.521519
    C   C35  0.155710  0.208400  0.532050  -0.140022
    C   C36  0.230070  0.151180  0.571260  0.230431
    C   C37  0.229880  0.150970  0.678340  0.195371
    C   C38  0.155700  0.208390  0.717650  -0.193668
    C   C39  0.061630  0.192590  0.678760  0.229635
    C   C40  0.062070  0.192180  0.571640  0.215150
    C   C41  0.174570  0.281610  0.571540  0.202874
    C   C42  0.176710  0.281120  0.678670  0.243784
    C   C43  0.155690  0.208390  0.822530  0.261915
    C   C44  0.155710  0.208410  0.427170  0.241019
    F   F5   0.216600  0.085490  0.537960  -0.234922
    F   F6   0.992990  0.240380  0.538190  -0.214888
    F   F7   0.260250  0.296670  0.710690  -0.226578
    F   F8   0.215500  0.085290  0.711530  -0.219210
    F   F9   0.255790  0.299770  0.537190  -0.223428
    F   F10  0.993430  0.241920  0.711690  -0.223931
    H   H17  0.299810  0.160370  0.704640  0.093932
    H   H18  0.300240  0.160420  0.545510  0.088356
    H   H19  0.045430  0.138800  0.546650  0.080911
    H   H20  0.044580  0.139810  0.705580  0.081209
    H   H21  0.126050  0.325690  0.705420  0.074595
    H   H22  0.120340  0.324190  0.546190  0.080554
    N   N9   0.155690  0.208380  0.906150  -0.265922
    N   N10  0.155720  0.208410  0.343550  -0.269317
