# generated using pymatgen
data_CuH8C12N3O4F
_symmetry_space_group_name_H-M   'P 1'
_cell_length_a   10.65460000
_cell_length_b   12.81140000
_cell_length_c   9.13031000
_cell_angle_alpha   84.56820000
_cell_angle_beta   90.00510000
_cell_angle_gamma   84.26320000
_symmetry_Int_Tables_number   1
_chemical_formula_structural   CuH8C12N3O4F
_chemical_formula_sum   'Cu2 H16 C24 N6 O8 F2'
_cell_volume   1234.42275685
_cell_formula_units_Z   2
loop_
 _symmetry_equiv_pos_site_id
 _symmetry_equiv_pos_as_xyz
  1  'x, y, z'
loop_
 _atom_site_type_symbol
 _atom_site_label
 _atom_site_symmetry_multiplicity
 _atom_site_fract_x
 _atom_site_fract_y
 _atom_site_fract_z
 _atom_site_occupancy
  Cu  Cu1  1  0.13637000  0.22386000  0.97667000  1
  Cu  Cu2  1  0.13639000  0.22386000  0.26475000  1
  H  H1  1  0.51757000  0.22124000  0.36197000  1
  H  H2  1  0.75520000  0.22650000  0.87943000  1
  H  H3  1  0.18280000  0.81731000  0.75398000  1
  H  H4  1  0.12078000  0.70742000  0.68830000  1
  H  H5  1  0.12172000  0.74340000  0.55271000  1
  H  H6  1  0.17768000  0.62145000  0.48863000  1
  H  H7  1  0.14117000  0.90532000  0.92209000  1
  H  H8  1  0.13158000  0.54243000  0.83748000  1
  H  H9  1  0.13160000  0.54239000  0.31932000  1
  H  H10  1  0.14120000  0.90531000  0.40394000  1
  H  H11  1  0.96452000  0.36849000  0.87091000  1
  H  H12  1  0.90177000  0.42092000  0.69373000  1
  H  H13  1  0.31403000  0.08488000  0.37000000  1
  H  H14  1  0.38488000  0.04132000  0.54633000  1
  H  H15  1  0.98250000  0.35245000  0.46452000  1
  H  H16  1  0.29029000  0.09527000  0.77692000  1
  C  C1  1  0.70189000  0.22531000  0.25331000  1
  C  C2  1  0.57088000  0.22241000  0.25369000  1
  C  C3  1  0.57088000  0.22242000  0.98810000  1
  C  C4  1  0.70188000  0.22532000  0.98773000  1
  C  C5  1  0.90681000  0.22985000  0.11992000  1
  C  C6  1  0.76739000  0.22676000  0.12034000  1
  C  C7  1  0.36595000  0.21787000  0.12150000  1
  C  C8  1  0.50537000  0.22096000  0.12109000  1
  C  C9  1  0.13565000  0.69650000  0.92516000  1
  C  C10  1  0.13275000  0.58700000  0.93970000  1
  C  C11  1  0.13276000  0.58699000  0.20528000  1
  C  C12  1  0.13566000  0.69649000  0.19074000  1
  C  C13  1  0.13711000  0.75124000  0.05068000  1
  C  C14  1  0.14000000  0.86074000  0.03614000  1
  C  C15  1  0.14002000  0.86073000  0.30173000  1
  C  C16  1  0.13712000  0.75123000  0.31626000  1
  C  C17  1  0.14455000  0.03203000  0.14619000  1
  C  C18  1  0.14146000  0.91549000  0.16167000  1
  C  C19  1  0.12821000  0.41570000  0.09523000  1
  C  C20  1  0.13130000  0.53224000  0.07975000  1
  C  C21  1  0.05153000  0.29473000  0.68794000  1
  C  C22  1  0.05156000  0.29473000  0.53461000  1
  C  C23  1  0.22124000  0.15299000  0.55349000  1
  C  C24  1  0.22121000  0.15299000  0.70682000  1
  N  N1  1  0.14189000  0.74730000  0.77840000  1
  N  N2  1  0.14059000  0.69943000  0.46316000  1
  N  N3  1  0.96558000  0.36761000  0.75668000  1
  N  N4  1  0.31023000  0.08265000  0.48453000  1
  N  N5  1  0.13636000  0.22387000  0.77405000  1
  N  N6  1  0.13640000  0.22386000  0.46738000  1
  O  O1  1  0.95359000  0.23089000  0.99225000  1
  O  O2  1  0.95361000  0.23089000  0.24731000  1
  O  O3  1  0.31917000  0.21683000  0.24917000  1
  O  O4  1  0.31915000  0.21684000  0.99411000  1
  O  O5  1  0.14560000  0.07113000  0.26853000  1
  O  O6  1  0.14557000  0.07114000  0.01347000  1
  O  O7  1  0.12717000  0.37659000  0.97289000  1
  O  O8  1  0.12718000  0.37659000  0.22796000  1
  F  F1  1  0.76559000  0.22654000  0.38146000  1
  F  F2  1  0.50710000  0.22129000  0.85994000  1
