# generated using pymatgen
data_CuH11C18N4O4F
_symmetry_space_group_name_H-M   'P 1'
_cell_length_a   15.62520000
_cell_length_b   10.65460000
_cell_length_c   14.58630000
_cell_angle_alpha   90.00100000
_cell_angle_beta   71.92890000
_cell_angle_gamma   84.35230000
_symmetry_Int_Tables_number   1
_chemical_formula_structural   CuH11C18N4O4F
_chemical_formula_sum   'Cu2 H22 C36 N8 O8 F2'
_cell_volume   2296.14323410
_cell_formula_units_Z   2
loop_
 _symmetry_equiv_pos_site_id
 _symmetry_equiv_pos_as_xyz
  1  'x, y, z'
loop_
 _atom_site_type_symbol
 _atom_site_label
 _atom_site_symmetry_multiplicity
 _atom_site_fract_x
 _atom_site_fract_y
 _atom_site_fract_z
 _atom_site_occupancy
  Cu  Cu1  1  0.26880000  0.12920000  0.99973000  1
  Cu  Cu2  1  0.26883000  0.12920000  0.18004000  1
  H  H1  1  0.97081000  0.28425000  0.00833000  1
  H  H2  1  0.07410000  0.18987000  0.99950000  1
  H  H3  1  0.69652000  0.08737000  0.42435000  1
  H  H4  1  0.59967000  0.14741000  0.39423000  1
  H  H5  1  0.46366000  0.06788000  0.18010000  1
  H  H6  1  0.56708000  0.97350000  0.17087000  1
  H  H7  1  0.93487000  0.14543000  0.78568000  1
  H  H8  1  0.84830000  0.07600000  0.75557000  1
  H  H9  1  0.93942000  0.13372000  0.95004000  1
  H  H10  1  0.71299000  0.12772000  0.79139000  1
  H  H11  1  0.54238000  0.12319000  0.84814000  1
  H  H12  1  0.59821000  0.12466000  0.22973000  1
  H  H13  1  0.82464000  0.13068000  0.38837000  1
  H  H14  1  0.99526000  0.13520000  0.33164000  1
  H  H15  1  0.27385000  0.85926000  0.91922000  1
  H  H16  1  0.27107000  0.71386000  0.85865000  1
  H  H17  1  0.27049000  0.39812000  0.25784000  1
  H  H18  1  0.28329000  0.54199000  0.31385000  1
  H  H19  1  0.26654000  0.51038000  0.93984000  1
  H  H20  1  0.27110000  0.74802000  0.23994000  1
  H  H21  1  0.15884000  0.28422000  0.53937000  1
  H  H22  1  0.37881000  0.97418000  0.64040000  1
  C  C1  1  0.67472000  0.12671000  0.87181000  1
  C  C2  1  0.58067000  0.12421000  0.90310000  1
  C  C3  1  0.58070000  0.12421000  0.06931000  1
  C  C4  1  0.67476000  0.12671000  0.03804000  1
  C  C5  1  0.72176000  0.12795000  0.93929000  1
  C  C6  1  0.72179000  0.12796000  0.10552000  1
  C  C7  1  0.81584000  0.13045000  0.07425000  1
  C  C8  1  0.86285000  0.13169000  0.97550000  1
  C  C9  1  0.81580000  0.13045000  0.90802000  1
  C  C10  1  0.67479000  0.12670000  0.20427000  1
  C  C11  1  0.72182000  0.12795000  0.27175000  1
  C  C12  1  0.81587000  0.13045000  0.24048000  1
  C  C13  1  0.86288000  0.13169000  0.14173000  1
  C  C14  1  0.86291000  0.13170000  0.30797000  1
  C  C15  1  0.95696000  0.13419000  0.27670000  1
  C  C16  1  0.95693000  0.13419000  0.11046000  1
  C  C17  1  0.10405000  0.13809000  0.14466000  1
  C  C18  1  0.00396000  0.13544000  0.17794000  1
  C  C19  1  0.43358000  0.12031000  0.03511000  1
  C  C20  1  0.53367000  0.12296000  0.00183000  1
  C  C21  1  0.27004000  0.69469000  0.00636000  1
  C  C22  1  0.26755000  0.56370000  0.00719000  1
  C  C23  1  0.26759000  0.56371000  0.17342000  1
  C  C24  1  0.27008000  0.69470000  0.17258000  1
  C  C25  1  0.27396000  0.89961000  0.08817000  1
  C  C26  1  0.27130000  0.76019000  0.08905000  1
  C  C27  1  0.26367000  0.35879000  0.09160000  1
  C  C28  1  0.26633000  0.49820000  0.09072000  1
  C  C29  1  0.20818000  0.21464000  0.65802000  1
  C  C30  1  0.20820000  0.21464000  0.56203000  1
  C  C31  1  0.32945000  0.04376000  0.52176000  1
  C  C32  1  0.32944000  0.04376000  0.61774000  1
  C  C33  1  0.26880000  0.12920000  0.68587000  1
  C  C34  1  0.26882000  0.12920000  0.49390000  1
  C  C35  1  0.26884000  0.12920000  0.38983000  1
  C  C36  1  0.26879000  0.12920000  0.78995000  1
  N  N1  1  0.00369000  0.20426000  0.02914000  1
  N  N2  1  0.66993000  0.12638000  0.37225000  1
  N  N3  1  0.53406000  0.05357000  0.15039000  1
  N  N4  1  0.86842000  0.12154000  0.80750000  1
  N  N5  1  0.27199000  0.76158000  0.92087000  1
  N  N6  1  0.26890000  0.49633000  0.25782000  1
  N  N7  1  0.26878000  0.12920000  0.87290000  1
  N  N8  1  0.26885000  0.12919000  0.30687000  1
  O  O1  1  0.13763000  0.13898000  0.05367000  1
  O  O2  1  0.13765000  0.13897000  0.21332000  1
  O  O3  1  0.40000000  0.11941000  0.12610000  1
  O  O4  1  0.39997000  0.11942000  0.96645000  1
  O  O5  1  0.27486000  0.94639000  0.16770000  1
  O  O6  1  0.27483000  0.94639000  0.00805000  1
  O  O7  1  0.26276000  0.31201000  0.01207000  1
  O  O8  1  0.26280000  0.31200000  0.17172000  1
  F  F1  1  0.14910000  0.29790000  0.72339000  1
  F  F2  1  0.38888000  0.96001000  0.45702000  1
