# Generated by REPEAT Assigner based on pymatgen
data_DB6-cuf_5302
_audit_creation_date              2022-05-24
_audit_creation_method            REPEAT_Assigner
_cell_length_a                    10.654600
_cell_length_b                    17.019300
_cell_length_c                    14.586300
_cell_angle_alpha                 86.122000
_cell_angle_beta                  90.009200
_cell_angle_gamma                 83.937600
_cell_volume                      2624.104095
_symmetry_space_group_name_H-M    P1
_symmetry_Int_Tables_number       1
loop_
    _symmetry_equiv_pos_site_id
    _symmetry_equiv_pos_as_xyz
    1  x,y,z
loop_
    _atom_site_type_symbol
    _atom_site_label
    _atom_site_fract_x
    _atom_site_fract_y
    _atom_site_fract_z
    _atom_type_partial_charge
    Cu  Cu1  0.121970  0.280220  0.995180  0.775294
    Cu  Cu2  0.122010  0.280220  0.175510  0.774997
    C   C1   0.687500  0.281310  0.168380  0.515692
    C   C2   0.556510  0.279130  0.168550  -0.302433
    C   C3   0.556490  0.279140  0.002300  0.493892
    C   C4   0.687470  0.281320  0.002140  -0.295447
    N   N1   0.754390  0.283020  0.253090  -0.946784
    H   H1   0.852070  0.284650  0.253980  0.394072
    H   H2   0.706690  0.282220  0.315670  0.350841
    N   N2   0.489090  0.280270  0.917380  -0.922624
    H   H3   0.390870  0.281660  0.916720  0.381263
    H   H4   0.534680  0.292850  0.855570  0.343370
    H   H5   0.503210  0.278250  0.236300  0.163341
    H   H6   0.740770  0.282200  0.934380  0.163396
    C   C5   0.892380  0.284720  0.084990  0.718011
    C   C6   0.752970  0.282400  0.085180  -0.264061
    O   O1   0.939140  0.285500  0.005100  -0.506176
    O   O2   0.939180  0.285500  0.164760  -0.493120
    C   C7   0.351600  0.275720  0.085700  0.702731
    C   C8   0.491000  0.278040  0.085510  -0.246960
    O   O3   0.304840  0.274940  0.165590  -0.504200
    O   O4   0.304790  0.274950  0.005930  -0.481146
    C   C9   0.127990  0.007320  0.023770  -0.090917
    C   C10  0.125810  0.925030  0.030270  0.116648
    C   C11  0.124750  0.883880  0.116640  0.091975
    C   C12  0.125870  0.925040  0.196510  -0.333023
    C   C13  0.128050  0.007330  0.190010  0.312813
    C   C14  0.118170  0.635420  0.140430  0.110049
    C   C15  0.115990  0.553120  0.146930  -0.092302
    C   C16  0.115940  0.553120  0.980680  0.306742
    C   C17  0.118110  0.635410  0.974190  -0.336494
    C   C18  0.119240  0.676550  0.054060  0.101833
    C   C19  0.122520  0.799770  0.123290  -0.098524
    C   C20  0.121470  0.760670  0.047410  -0.107007
    O   O5   0.129780  0.052070  0.268240  -0.146078
    C   C21  0.130920  0.012110  0.357570  -0.135188
    H   H7   0.043980  0.982020  0.368380  0.061934
    H   H8   0.132870  0.056490  0.409670  0.100063
    H   H9   0.216790  0.969300  0.367460  0.073183
    O   O6   0.163720  0.890550  0.948620  -0.342707
    C   C22  0.297510  0.879110  0.937110  0.125659
    H   H10  0.318560  0.850050  0.872290  0.036377
    H   H11  0.337900  0.936850  0.932620  0.023545
    H   H12  0.342830  0.840410  0.994870  0.006171
    O   O7   0.114220  0.508090  0.902770  -0.140898
    C   C23  0.113270  0.547860  0.813320  -0.137446
    H   H13  0.027400  0.590670  0.803290  0.074400
    H   H14  0.111320  0.503300  0.761370  0.099872
    H   H15  0.200120  0.577950  0.802440  0.061342
    O   O8   0.080210  0.670140  0.222010  -0.340454
    C   C24  0.946420  0.681520  0.233450  0.125010
    H   H16  0.901090  0.720280  0.175680  0.007373
    H   H17  0.906020  0.623840  0.237930  0.022165
    H   H18  0.925270  0.710650  0.298270  0.036465
    H   H19  0.128850  0.040820  0.953440  0.132721
    H   H20  0.118980  0.668910  0.903860  0.148704
    H   H21  0.115120  0.519620  0.217260  0.132992
    H   H22  0.125000  0.891530  0.266840  0.147512
    H   H23  0.122350  0.794170  0.977090  0.131529
    H   H24  0.121650  0.766260  0.193610  0.130264
    C   C25  0.131420  0.136050  0.096720  0.670073
    C   C26  0.129100  0.048470  0.103630  -0.237001
    O   O9   0.132220  0.165440  0.174230  -0.544533
    O   O10  0.132180  0.165440  0.014580  -0.547927
    C   C27  0.112560  0.424390  0.073970  0.660207
    C   C28  0.114880  0.511970  0.067060  -0.228817
    O   O11  0.111750  0.395000  0.996460  -0.549435
    O   O12  0.111810  0.395000  0.156120  -0.547545
    C   C29  0.036680  0.333480  0.629120  0.312903
    C   C30  0.036700  0.333490  0.533140  -0.284212
    C   C31  0.207300  0.226950  0.541580  0.313192
    C   C32  0.207290  0.226960  0.637560  -0.280111
    C   C33  0.121970  0.280220  0.681330  -0.014220
    C   C34  0.122000  0.280220  0.489370  -0.013668
    C   C35  0.122020  0.280220  0.385300  0.213054
    C   C36  0.121960  0.280220  0.785400  0.213799
    F   F1   0.953560  0.385390  0.670750  -0.162595
    F   F2   0.290920  0.174740  0.500730  -0.162189
    H   H25  0.967250  0.376860  0.490640  0.202476
    H   H26  0.276750  0.183580  0.680060  0.201597
    N   N3   0.121940  0.280220  0.868350  -0.221951
    N   N4   0.122030  0.280220  0.302340  -0.223343
