# Generated by REPEAT Assigner based on pymatgen
data_DB6-cuf_4274
_audit_creation_date              2022-05-24
_audit_creation_method            REPEAT_Assigner
_cell_length_a                    15.995300
_cell_length_b                    14.971500
_cell_length_c                    9.130310
_cell_angle_alpha                 90.002300
_cell_angle_beta                  90.011100
_cell_angle_gamma                 83.548600
_cell_volume                      2172.622707
_symmetry_space_group_name_H-M    P1
_symmetry_Int_Tables_number       1
loop_
    _symmetry_equiv_pos_site_id
    _symmetry_equiv_pos_as_xyz
    1  x,y,z
loop_
    _atom_site_type_symbol
    _atom_site_label
    _atom_site_fract_x
    _atom_site_fract_y
    _atom_site_fract_z
    _atom_type_partial_charge
    Cu  Cu1  0.259120  0.163300  0.924410  0.441101
    Cu  Cu2  0.259130  0.163300  0.212490  0.667184
    C   C1   0.675340  0.161720  0.068460  -0.723855
    C   C2   0.710670  0.162730  0.908000  0.500473
    C   C3   0.807400  0.164210  0.907900  0.442749
    C   C4   0.842910  0.164880  0.068440  -0.739361
    C   C5   0.818190  0.078860  0.148130  0.562926
    C   C6   0.721480  0.076970  0.147090  0.429850
    C   C7   0.700730  0.246950  0.150400  0.508098
    C   C8   0.797310  0.249900  0.147390  0.366512
    C   C9   0.937600  0.166660  0.068430  0.433889
    C   C10  0.580640  0.159930  0.068470  0.405511
    O   O1   0.690590  0.072660  0.293000  -0.413559
    C   C11  0.660850  0.989100  0.321030  0.086411
    H   H1   0.605320  0.980370  0.251250  0.005415
    H   H2   0.640730  0.987510  0.437120  0.036477
    H   H3   0.711240  0.932590  0.303730  0.015552
    O   O2   0.848680  0.077670  0.294780  -0.436235
    C   C12  0.900010  0.996930  0.325230  0.102990
    H   H4   0.919810  0.997640  0.441650  0.030709
    H   H5   0.957740  0.991080  0.256450  -0.000203
    H   H6   0.865070  0.937590  0.308900  0.012787
    O   O3   0.688620  0.086100  0.830700  -0.441714
    C   C13  0.646590  0.111300  0.698710  0.077682
    H   H7   0.634020  0.049560  0.639340  0.087134
    H   H8   0.685960  0.149500  0.626760  0.031782
    H   H9   0.585070  0.151370  0.721050  0.000677
    O   O4   0.847160  0.087880  0.831810  -0.446460
    C   C14  0.886570  0.113420  0.702580  0.171705
    H   H10  0.914230  0.051900  0.645080  0.062477
    H   H11  0.938420  0.154480  0.728550  -0.038823
    H   H12  0.840320  0.150740  0.627440  0.012540
    O   O5   0.658900  0.325680  0.083820  -0.406562
    C   C15  0.613980  0.381480  0.188310  0.114780
    H   H13  0.585800  0.443600  0.132890  0.040847
    H   H14  0.656330  0.401420  0.276150  0.000776
    H   H15  0.561950  0.347620  0.236160  -0.003223
    O   O6   0.817190  0.329010  0.074750  -0.374689
    C   C16  0.853300  0.386960  0.172240  0.078582
    H   H16  0.865380  0.448550  0.112010  0.050910
    H   H17  0.914560  0.354700  0.214740  -0.004802
    H   H18  0.809910  0.407490  0.264240  0.018946
    H   H19  0.823690  0.225840  0.845380  -0.029629
    H   H20  0.679970  0.223500  0.845010  -0.039887
    H   H21  0.706670  0.012730  0.090460  -0.024669
    H   H22  0.850120  0.015790  0.092780  -0.046553
    H   H23  0.820850  0.255520  0.264510  -0.008188
    H   H24  0.677780  0.247100  0.268610  -0.036575
    C   C17  0.106050  0.169850  0.068430  0.838361
    C   C18  0.013090  0.168090  0.068420  -0.484530
    O   O7   0.137230  0.170440  0.940900  -0.498069
    O   O8   0.137250  0.170430  0.195970  -0.542423
    C   C19  0.412200  0.156760  0.068470  0.805896
    C   C20  0.505150  0.158520  0.068490  -0.467825
    O   O9   0.381050  0.155900  0.196000  -0.511244
    O   O10  0.380970  0.156430  0.940940  -0.516726
    C   C21  0.262480  0.853820  0.935650  0.464852
    C   C22  0.260840  0.760530  0.935660  -0.389003
    C   C23  0.260020  0.713880  0.068450  0.018749
    C   C24  0.260860  0.760540  0.201240  0.284104
    C   C25  0.262510  0.853830  0.201230  -0.333778
    C   C26  0.257420  0.566080  0.201250  0.266028
    C   C27  0.255770  0.472780  0.201250  -0.312889
    C   C28  0.255750  0.472770  0.935670  0.456587
    C   C29  0.257400  0.566070  0.935660  -0.388211
    C   C30  0.258230  0.612720  0.068460  0.052305
    N   N1   0.254200  0.424760  0.800320  -0.914651
    H   H25  0.253410  0.355060  0.799430  0.366628
    H   H26  0.253650  0.458370  0.699990  0.360937
    N   N2   0.264020  0.901850  0.800350  -0.939136
    H   H27  0.264810  0.971480  0.799370  0.380434
    H   H28  0.264490  0.868250  0.700020  0.371603
    N   N3   0.209860  0.604660  0.323960  -0.622941
    H   H29  0.158830  0.653820  0.308300  0.266383
    H   H30  0.217180  0.575840  0.428120  0.273452
    N   N4   0.308420  0.721940  0.323990  -0.610339
    H   H31  0.301120  0.750820  0.428140  0.265124
    H   H32  0.359450  0.672850  0.308330  0.265462
    H   H33  0.260170  0.722550  0.827520  0.167682
    H   H34  0.258050  0.604050  0.827530  0.160757
    H   H35  0.255110  0.434800  0.309390  0.169020
    H   H36  0.263180  0.891810  0.309370  0.172487
    C   C31  0.265070  0.999770  0.068440  0.500954
    C   C32  0.263310  0.900480  0.068430  -0.117999
    O   O11  0.265670  0.033090  0.195970  -0.417303
    O   O12  0.265650  0.033090  0.940910  -0.371946
    C   C33  0.253180  0.326830  0.068460  0.538118
    C   C34  0.254930  0.426130  0.068470  -0.148807
    O   O13  0.252580  0.293510  0.940930  -0.328110
    O   O14  0.252600  0.293510  0.195990  -0.465039
    C   C35  0.202370  0.224230  0.645090  0.312124
    C   C36  0.202390  0.224230  0.491750  -0.194692
    C   C37  0.315890  0.102370  0.491820  0.330108
    C   C38  0.315870  0.102380  0.645160  -0.091387
    N   N5   0.144870  0.286870  0.723500  -0.602093
    H   H37  0.144160  0.287630  0.837840  0.296074
    H   H38  0.102190  0.332700  0.667620  0.291974
    N   N6   0.375410  0.041870  0.413530  -0.804714
    H   H39  0.377930  0.043750  0.299290  0.390133
    H   H40  0.425290  0.006180  0.469840  0.330025
    H   H41  0.156190  0.273850  0.429330  0.170624
    H   H42  0.362080  0.052750  0.707590  0.143164
    N   N7   0.259110  0.163300  0.721790  -0.118999
    N   N8   0.259140  0.163300  0.415120  -0.099779
