# Generated by REPEAT Assigner based on pymatgen
data_DB6-cuf_1495
_audit_creation_date              2022-05-24
_audit_creation_method            REPEAT_Assigner
_cell_length_a                    14.853500
_cell_length_b                    12.811400
_cell_length_c                    11.295700
_cell_angle_alpha                 88.715500
_cell_angle_beta                  85.910500
_cell_angle_gamma                 83.836000
_cell_volume                      2131.400924
_symmetry_space_group_name_H-M    P1
_symmetry_Int_Tables_number       1
loop_
    _symmetry_equiv_pos_site_id
    _symmetry_equiv_pos_as_xyz
    1  x,y,z
loop_
    _atom_site_type_symbol
    _atom_site_label
    _atom_site_fract_x
    _atom_site_fract_y
    _atom_site_fract_z
    _atom_type_partial_charge
    Cu  Cu1  0.241430  0.144380  0.985870  0.744059
    Cu  Cu2  0.227290  0.160980  0.218290  0.752024
    C   C1   0.552770  0.140890  0.995390  -0.132906
    C   C2   0.539730  0.156190  0.209650  -0.164958
    C   C3   0.633780  0.158260  0.209440  0.107731
    C   C4   0.687330  0.151650  0.102190  -0.081255
    C   C5   0.646830  0.142960  0.995170  0.022908
    C   C6   0.674290  0.166940  0.316460  0.068844
    C   C7   0.768350  0.169020  0.316240  0.187963
    C   C8   0.821900  0.162410  0.209000  0.071239
    C   C9   0.781390  0.153720  0.101970  -0.124651
    C   C10  0.834940  0.147100  0.994730  0.139569
    C   C11  0.794430  0.138420  0.887700  0.044684
    C   C12  0.700380  0.136350  0.887920  0.232181
    C   C13  0.915960  0.164480  0.208770  -0.177230
    C   C14  0.929000  0.149170  0.994510  -0.187889
    O   O1   0.848620  0.130780  0.780500  -0.314496
    C   C15  0.853410  0.031760  0.722900  0.236470
    H   H1   0.925530  0.998510  0.711170  -0.009106
    H   H2   0.826450  0.043900  0.633970  -0.077988
    H   H3   0.814890  0.973510  0.773800  -0.027968
    O   O2   0.659220  0.128660  0.780740  -0.365784
    C   C16  0.662730  0.218000  0.702790  0.113516
    H   H4   0.592470  0.249070  0.684130  0.079227
    H   H5   0.700210  0.193510  0.617820  0.085500
    H   H6   0.695800  0.282570  0.740430  0.018502
    O   O3   0.809510  0.176700  0.423430  -0.341776
    C   C17  0.805990  0.087360  0.501370  0.100959
    H   H7   0.768450  0.111920  0.586340  0.098155
    H   H8   0.876260  0.056290  0.520040  0.079494
    H   H9   0.772920  0.022790  0.463730  0.019766
    O   O4   0.620110  0.174580  0.423660  -0.319037
    C   C18  0.615310  0.273600  0.481270  0.225635
    H   H10  0.543200  0.306850  0.492990  -0.009479
    H   H11  0.653840  0.331850  0.430360  -0.022916
    H   H12  0.642280  0.261460  0.570190  -0.074110
    H   H13  0.972590  0.143780  0.907170  0.126336
    H   H14  0.519780  0.133820  0.908250  0.107193
    H   H15  0.496130  0.161580  0.296970  0.124812
    H   H16  0.948930  0.171540  0.295920  0.121335
    C   C19  0.069610  0.160060  0.101290  0.564482
    C   C20  0.969500  0.157860  0.101530  -0.014903
    O   O5   0.109460  0.153450  0.998320  -0.501001
    O   O6   0.096940  0.168150  0.204100  -0.502951
    C   C21  0.399110  0.145310  0.102870  0.595672
    C   C22  0.499220  0.147500  0.102630  -0.054904
    O   O7   0.359260  0.151930  0.205840  -0.522599
    O   O8   0.371780  0.137210  0.000070  -0.507416
    C   C23  0.243450  0.614050  0.944310  0.256485
    C   C24  0.240650  0.505410  0.956040  -0.202691
    C   C25  0.227610  0.520700  0.170310  -0.146082
    C   C26  0.230400  0.629350  0.158580  -0.009804
    C   C27  0.238320  0.676020  0.045580  0.028049
    C   C28  0.241110  0.784660  0.033860  -0.184124
    C   C29  0.228080  0.799960  0.248120  -0.228821
    C   C30  0.225280  0.691310  0.259850  0.287557
    O   O9   0.251390  0.664990  0.832020  -0.307732
    C   C31  0.256760  0.603920  0.727040  0.071514
    H   H17  0.318040  0.545770  0.723970  0.036317
    H   H18  0.262640  0.657050  0.648640  0.058585
    H   H19  0.194190  0.564350  0.721970  0.041095
    O   O10  0.217330  0.640380  0.372140  -0.322745
    C   C32  0.211970  0.701440  0.477120  0.104220
    H   H20  0.206080  0.648310  0.555520  0.030543
    H   H21  0.150690  0.759600  0.480190  0.030381
    H   H22  0.274530  0.741010  0.482200  0.034378
    H   H23  0.247560  0.822660  0.941850  0.102350
    H   H24  0.244830  0.454960  0.873580  0.098125
    H   H25  0.221170  0.482690  0.262310  0.090956
    H   H26  0.223900  0.850420  0.330580  0.107008
    C   C33  0.238970  0.962260  0.122640  0.627533
    C   C34  0.235990  0.846640  0.135130  -0.059725
    O   O11  0.233710  0.008410  0.221340  -0.513253
    O   O12  0.246230  0.993720  0.015570  -0.490748
    C   C35  0.229750  0.343100  0.081520  0.645297
    C   C36  0.232730  0.458730  0.069030  -0.093317
    O   O13  0.235010  0.296950  0.982820  -0.520860
    O   O14  0.222490  0.311650  0.188600  -0.494604
    C   C37  0.145600  0.256770  0.559670  0.380040
    C   C38  0.153140  0.247940  0.435960  -0.113072
    C   C39  0.274000  0.106210  0.451280  -0.014767
    C   C40  0.266460  0.115040  0.574990  -0.039747
    C   C41  0.202260  0.190330  0.629170  -0.091721
    C   C42  0.194720  0.199160  0.752880  0.019799
    C   C43  0.315580  0.057430  0.768200  -0.092696
    C   C44  0.323120  0.048600  0.644500  0.335790
    N   N1   0.080720  0.338330  0.609250  -0.896052
    H   H27  0.087650  0.373860  0.689650  0.376316
    H   H28  0.030490  0.374820  0.557570  0.379536
    N   N2   0.392710  0.972400  0.594340  -0.861159
    H   H29  0.423540  0.913850  0.648390  0.374325
    H   H30  0.423630  0.979920  0.509300  0.360121
    H   H31  0.142440  0.260450  0.797000  0.117686
    H   H32  0.107010  0.302060  0.379370  0.146562
    H   H33  0.326280  0.044920  0.407140  0.129931
    H   H34  0.361710  0.003320  0.824810  0.143166
    N   N3   0.251380  0.132710  0.822400  -0.139371
    N   N4   0.217340  0.172660  0.381760  -0.123506
