# Generated by REPEAT Assigner based on pymatgen
data_DB6-cuf_2995
_audit_creation_date              2022-05-24
_audit_creation_method            REPEAT_Assigner
_cell_length_a                    14.971500
_cell_length_b                    14.853500
_cell_length_c                    14.184900
_cell_angle_alpha                 76.791800
_cell_angle_beta                  103.144000
_cell_angle_gamma                 83.621400
_cell_volume                      2945.960946
_symmetry_space_group_name_H-M    P1
_symmetry_Int_Tables_number       1
loop_
    _symmetry_equiv_pos_site_id
    _symmetry_equiv_pos_as_xyz
    1  x,y,z
loop_
    _atom_site_type_symbol
    _atom_site_label
    _atom_site_fract_x
    _atom_site_fract_y
    _atom_site_fract_z
    _atom_type_partial_charge
    Cu  Cu1  0.105550  0.173650  0.115290  0.666161
    Cu  Cu2  0.153410  0.125230  0.312610  0.652549
    C   C1   0.842070  0.130740  0.304910  0.345768
    C   C2   0.748770  0.128970  0.304910  -0.336275
    C   C3   0.680060  0.150410  0.213950  0.070564
    C   C4   0.704660  0.173620  0.123000  0.191766
    C   C5   0.797960  0.175390  0.123000  -0.155059
    C   C6   0.510200  0.169920  0.122990  0.169793
    C   C7   0.416890  0.168140  0.122990  -0.080987
    C   C8   0.461010  0.123500  0.304900  0.381015
    C   C9   0.554310  0.125270  0.304900  -0.318246
    C   C10  0.578900  0.148480  0.213950  0.038278
    F   F1   0.908750  0.110490  0.392930  -0.197771
    F   F2   0.646720  0.231470  0.037880  -0.148649
    F   F3   0.526910  0.153830  0.037880  -0.148990
    F   F4   0.437030  0.100570  0.392880  -0.204866
    H   H1   0.728760  0.110090  0.378970  0.193546
    H   H2   0.610250  0.107810  0.378970  0.167684
    H   H3   0.360960  0.185590  0.048920  0.126937
    H   H4   0.817980  0.194280  0.048940  0.149297
    C   C11  0.965960  0.155840  0.213960  0.639572
    C   C12  0.866670  0.153950  0.213960  -0.209860
    O   O1   0.978100  0.177910  0.126600  -0.509761
    O   O2   0.020470  0.135040  0.301310  -0.406917
    C   C13  0.293000  0.143040  0.213940  0.635461
    C   C14  0.392300  0.144930  0.213940  -0.274687
    O   O3   0.280870  0.120970  0.301300  -0.408564
    O   O4   0.238500  0.163850  0.126590  -0.474617
    C   C15  0.147990  0.439050  0.304910  0.037339
    C   C16  0.103860  0.483680  0.123000  -0.058134
    C   C17  0.105640  0.577720  0.123000  -0.023294
    C   C18  0.128590  0.602420  0.213950  0.005371
    C   C19  0.149760  0.533090  0.304910  -0.073553
    C   C20  0.084470  0.647050  0.032040  0.140178
    C   C21  0.086240  0.741090  0.032030  0.176420
    C   C22  0.109200  0.765800  0.122990  -0.026075
    C   C23  0.130370  0.696460  0.213950  -0.021654
    C   C24  0.153320  0.721170  0.304900  -0.001782
    C   C25  0.174500  0.651830  0.395870  0.147450
    C   C26  0.172720  0.557790  0.395860  0.167644
    C   C27  0.110980  0.859830  0.122990  -0.090047
    C   C28  0.155100  0.815210  0.304900  -0.081600
    F   F5   0.062040  0.624580  0.942980  -0.145787
    F   F6   0.065480  0.807290  0.942980  -0.162330
    F   F7   0.196930  0.674300  0.484920  -0.149041
    F   F8   0.193480  0.491600  0.484920  -0.151433
    H   H5   0.173780  0.835310  0.378970  0.110990
    H   H6   0.165230  0.382590  0.378970  0.086696
    H   H7   0.085180  0.463570  0.048950  0.112140
    H   H8   0.093730  0.916280  0.048930  0.116447
    C   C29  0.135820  0.984620  0.213950  0.497307
    C   C30  0.133930  0.884540  0.213940  -0.045443
    O   O5   0.157640  0.996770  0.301300  -0.497417
    O   O6   0.115260  0.039640  0.126590  -0.444180
    C   C31  0.123150  0.314260  0.213950  0.503598
    C   C32  0.125040  0.414340  0.213960  -0.131454
    O   O7   0.101340  0.302110  0.126600  -0.443501
    O   O8   0.143690  0.259240  0.301310  -0.448782
    C   C33  0.285870  0.991180  0.608950  -0.275883
    C   C34  0.260400  0.016960  0.503910  0.113262
    C   C35  0.139180  0.139640  0.503900  0.371027
    C   C36  0.164640  0.113870  0.608930  -0.142858
    C   C37  0.237980  0.039640  0.661450  0.088377
    C   C38  0.116760  0.162330  0.661440  0.111605
    C   C39  0.142210  0.136560  0.766460  0.093163
    C   C40  0.215550  0.062330  0.818990  -0.341367
    C   C41  0.263440  0.013870  0.766480  0.268965
    C   C42  0.043410  0.236560  0.608920  -0.368704
    C   C43  0.995520  0.285010  0.661420  0.268658
    C   C44  0.020980  0.259250  0.766450  0.141518
    C   C45  0.094330  0.185020  0.818970  -0.157721
    C   C46  0.973100  0.307710  0.818960  -0.271873
    C   C47  0.998550  0.281940  0.923990  0.032097
    C   C48  0.119780  0.159250  0.924000  0.324243
    O   O9   0.213290  0.122530  0.979300  -0.198318
    C   C49  0.229340  0.041290  0.062870  0.141986
    H   H9   0.285760  0.988450  0.059200  -0.091121
    H   H10  0.166430  0.007840  0.063230  0.011968
    H   H11  0.254390  0.060200  0.134360  0.060207
    O   O10  0.921130  0.359130  0.609200  -0.317041
    C   C50  0.845450  0.336340  0.542120  0.079900
    H   H12  0.843650  0.371750  0.463660  0.030163
    H   H13  0.779300  0.362660  0.557420  0.045120
    H   H14  0.849590  0.259480  0.550820  0.011159
    O   O11  0.105340  0.234450  0.448690  -0.179514
    C   C51  0.024240  0.252990  0.365260  -0.156379
    H   H15  0.973300  0.311060  0.369680  0.004791
    H   H16  0.989140  0.190860  0.364500  0.102955
    H   H17  0.043140  0.277680  0.293700  0.119001
    O   O12  0.336080  0.936190  0.815400  -0.269232
    C   C52  0.372360  0.913940  0.921630  0.019923
    H   H18  0.435020  0.858680  0.943990  0.062663
    H   H19  0.320720  0.885110  0.959810  0.054383
    H   H20  0.393280  0.976490  0.945420  0.063008
    H   H21  0.236280  0.041340  0.904510  0.159242
    H   H22  0.345590  0.930730  0.651700  0.129270
    H   H23  0.299400  0.977490  0.461170  0.108115
    H   H24  0.022680  0.257530  0.523400  0.222300
    H   H25  0.913380  0.368150  0.776200  0.144235
    H   H26  0.959560  0.321400  0.966740  0.117959
    N   N1   0.071900  0.207710  0.976500  -0.174066
    N   N2   0.187070  0.091180  0.451400  -0.216399
