# generated using pymatgen
data_CuH6C12NO4
_symmetry_space_group_name_H-M   'P 1'
_cell_length_a   10.65460000
_cell_length_b   16.10930000
_cell_length_c   9.13031000
_cell_angle_alpha   90.00240000
_cell_angle_beta   90.00510000
_cell_angle_gamma   83.97620000
_symmetry_Int_Tables_number   1
_chemical_formula_structural   CuH6C12NO4
_chemical_formula_sum   'Cu2 H12 C24 N2 O8'
_cell_volume   1558.45652205
_cell_formula_units_Z   2
loop_
 _symmetry_equiv_pos_site_id
 _symmetry_equiv_pos_as_xyz
  1  'x, y, z'
loop_
 _atom_site_type_symbol
 _atom_site_label
 _atom_site_symmetry_multiplicity
 _atom_site_fract_x
 _atom_site_fract_y
 _atom_site_fract_z
 _atom_site_occupancy
  Cu  Cu1  1  0.16665000  0.20833000  0.96012000  1
  Cu  Cu2  1  0.16668000  0.20833000  0.24821000  1
  H  H1  1  0.78549000  0.21040000  0.34509000  1
  H  H2  1  0.54787000  0.20626000  0.34508000  1
  H  H3  1  0.54783000  0.20626000  0.86324000  1
  H  H4  1  0.78547000  0.21042000  0.86323000  1
  H  H5  1  0.16872000  0.78700000  0.86324000  1
  H  H6  1  0.16458000  0.62966000  0.86325000  1
  H  H7  1  0.16461000  0.62966000  0.34509000  1
  H  H8  1  0.16877000  0.78701000  0.34510000  1
  H  H9  1  0.01202000  0.31018000  0.74321000  1
  H  H10  1  0.01208000  0.31019000  0.46506000  1
  H  H11  1  0.32131000  0.10649000  0.46511000  1
  H  H12  1  0.32128000  0.10648000  0.74329000  1
  C  C1  1  0.73217000  0.20948000  0.23696000  1
  C  C2  1  0.60118000  0.20718000  0.23695000  1
  C  C3  1  0.60117000  0.20719000  0.97136000  1
  C  C4  1  0.73216000  0.20949000  0.97137000  1
  C  C5  1  0.93706000  0.21308000  0.10417000  1
  C  C6  1  0.79765000  0.21063000  0.10418000  1
  C  C7  1  0.39627000  0.20359000  0.10416000  1
  C  C8  1  0.53567000  0.20604000  0.10416000  1
  C  C9  1  0.16780000  0.75170000  0.97138000  1
  C  C10  1  0.16551000  0.66496000  0.97138000  1
  C  C11  1  0.16553000  0.66497000  0.23697000  1
  C  C12  1  0.16783000  0.75171000  0.23696000  1
  C  C13  1  0.16896000  0.79507000  0.10416000  1
  C  C14  1  0.16437000  0.62160000  0.10417000  1
  C  C15  1  0.16188000  0.52756000  0.10418000  1
  C  C16  1  0.17145000  0.88911000  0.10415000  1
  C  C17  1  0.17588000  0.05638000  0.10415000  1
  C  C18  1  0.17343000  0.96407000  0.10415000  1
  C  C19  1  0.15745000  0.36028000  0.10418000  1
  C  C20  1  0.15990000  0.45259000  0.10419000  1
  C  C21  1  0.08143000  0.26447000  0.68082000  1
  C  C22  1  0.08146000  0.26447000  0.52748000  1
  C  C23  1  0.25191000  0.15219000  0.52753000  1
  C  C24  1  0.25189000  0.15220000  0.68086000  1
  N  N1  1  0.16664000  0.20833000  0.75750000  1
  N  N2  1  0.16669000  0.20833000  0.45083000  1
  O  O1  1  0.98383000  0.21390000  0.97664000  1
  O  O2  1  0.98386000  0.21390000  0.23170000  1
  O  O3  1  0.34950000  0.20276000  0.23169000  1
  O  O4  1  0.34947000  0.20277000  0.97663000  1
  O  O5  1  0.17672000  0.08736000  0.23169000  1
  O  O6  1  0.17669000  0.08736000  0.97663000  1
  O  O7  1  0.15662000  0.32931000  0.97664000  1
  O  O8  1  0.15662000  0.32931000  0.23171000  1
