# Generated by REPEAT Assigner based on pymatgen
data_DB6-cuf_6418
_audit_creation_date              2022-05-24
_audit_creation_method            REPEAT_Assigner
_cell_length_a                    15.995300
_cell_length_b                    14.853500
_cell_length_c                    11.295700
_cell_angle_alpha                 94.116900
_cell_angle_beta                  85.922500
_cell_angle_gamma                 83.554600
_cell_volume                      2651.359830
_symmetry_space_group_name_H-M    P1
_symmetry_Int_Tables_number       1
loop_
    _symmetry_equiv_pos_site_id
    _symmetry_equiv_pos_as_xyz
    1  x,y,z
loop_
    _atom_site_type_symbol
    _atom_site_label
    _atom_site_fract_x
    _atom_site_fract_y
    _atom_site_fract_z
    _atom_type_partial_charge
    Cu  Cu1  0.198890  0.185120  0.985540  0.704411
    Cu  Cu2  0.185620  0.199510  0.219750  0.669384
    C   C1   0.608470  0.190720  0.102650  -0.126504
    C   C2   0.651200  0.183720  0.972190  0.231386
    C   C3   0.747940  0.185210  0.972120  0.240423
    C   C4   0.776040  0.193900  0.102630  -0.149377
    C   C5   0.747630  0.111180  0.167420  0.248189
    C   C6   0.650970  0.109220  0.166580  0.219840
    C   C7   0.630080  0.280720  0.169260  0.261859
    C   C8   0.726810  0.283540  0.166810  0.211942
    C   C9   0.870740  0.195700  0.102630  0.103743
    C   C10  0.513770  0.188920  0.102660  0.086652
    F   F1   0.633600  0.105400  0.909390  -0.241764
    F   F2   0.614850  0.110620  0.282120  -0.238440
    F   F3   0.749490  0.358540  0.111000  -0.242461
    F   F4   0.790390  0.107420  0.910120  -0.245927
    F   F5   0.592460  0.355670  0.118460  -0.249071
    F   F6   0.771200  0.115520  0.283480  -0.248016
    H   H1   0.767120  0.244210  0.921290  0.064164
    H   H2   0.623420  0.241830  0.920980  0.062068
    H   H3   0.638770  0.041650  0.120530  0.065280
    H   H4   0.782110  0.044850  0.122420  0.065430
    H   H5   0.744950  0.295050  0.262030  0.069850
    H   H6   0.601690  0.286770  0.265370  0.056580
    C   C11  0.039180  0.198910  0.102620  0.923624
    C   C12  0.946230  0.197130  0.102610  -0.393933
    O   O1   0.076250  0.193130  0.998940  -0.575392
    O   O2   0.064500  0.205870  0.206310  -0.559356
    C   C13  0.345330  0.185720  0.102660  0.921251
    C   C14  0.438280  0.187490  0.102670  -0.384947
    O   O3   0.308290  0.191230  0.206340  -0.570832
    O   O4   0.319980  0.179020  0.998970  -0.562384
    C   C15  0.182800  0.510880  0.210600  -0.109892
    C   C16  0.195040  0.497610  0.994690  -0.090388
    C   C17  0.196710  0.591640  0.994680  0.009184
    C   C18  0.191420  0.645290  0.102640  -0.027001
    C   C19  0.184470  0.604920  0.210600  0.022819
    C   C20  0.203650  0.632030  0.886720  0.141423
    C   C21  0.205320  0.726060  0.886720  0.131151
    C   C22  0.200040  0.779720  0.994670  0.033554
    C   C23  0.193090  0.739330  0.102640  -0.043693
    C   C24  0.187800  0.792990  0.210600  0.017662
    C   C25  0.180850  0.752600  0.318560  0.139926
    C   C26  0.179190  0.658570  0.318560  0.134343
    C   C27  0.201710  0.873750  0.994680  -0.115223
    C   C28  0.189470  0.887030  0.210590  -0.100485
    F   F7   0.208870  0.581210  0.781010  -0.139197
    F   F8   0.212090  0.763910  0.781020  -0.137921
    F   F9   0.175640  0.803420  0.424270  -0.138422
    F   F10  0.172410  0.620720  0.424260  -0.138544
    H   H7   0.185160  0.930700  0.298510  0.110971
    H   H8   0.177150  0.477990  0.298510  0.115503
    H   H9   0.199350  0.453930  0.906790  0.107622
    H   H10  0.207360  0.906630  0.906770  0.116451
    C   C29  0.198190  0.027480  0.102640  0.520975
    C   C30  0.196420  0.927400  0.102630  -0.031033
    O   O5   0.192900  0.067440  0.206320  -0.474859
    O   O6   0.204650  0.054700  0.998960  -0.466743
    C   C31  0.186320  0.357140  0.102640  0.530386
    C   C32  0.188090  0.457220  0.102650  -0.039773
    O   O7   0.191620  0.317190  0.998960  -0.485540
    O   O8   0.179840  0.329930  0.206330  -0.465814
    C   C33  0.108920  0.282530  0.571450  0.289502
    C   C34  0.116000  0.274870  0.446790  -0.172277
    C   C35  0.229480  0.152040  0.446830  -0.066244
    C   C36  0.222400  0.159690  0.571480  -0.003795
    C   C37  0.162120  0.224940  0.633790  -0.031347
    C   C38  0.155030  0.232590  0.758460  -0.043514
    C   C39  0.268510  0.109760  0.758480  -0.160503
    C   C40  0.275590  0.102110  0.633820  0.277682
    F   F11  0.049980  0.346310  0.629930  -0.175012
    F   F12  0.334530  0.038320  0.575350  -0.170297
    H   H11  0.105950  0.285710  0.809190  0.163445
    H   H12  0.072690  0.321770  0.396040  0.178854
    H   H13  0.278560  0.098920  0.396080  0.167469
    H   H14  0.311820  0.062860  0.809250  0.177708
    N   N1   0.208230  0.175000  0.820810  -0.000678
    N   N2   0.176280  0.209630  0.384480  0.023893
