# Generated by REPEAT Assigner based on pymatgen
data_DB6-cuf_4687
_audit_creation_date              2022-05-24
_audit_creation_method            REPEAT_Assigner
_cell_length_a                    15.944500
_cell_length_b                    10.654600
_cell_length_c                    15.500400
_cell_angle_alpha                 92.870200
_cell_angle_beta                  87.184800
_cell_angle_gamma                 83.988100
_cell_volume                      2611.555707
_symmetry_space_group_name_H-M    P1
_symmetry_Int_Tables_number       1
loop_
    _symmetry_equiv_pos_site_id
    _symmetry_equiv_pos_as_xyz
    1  x,y,z
loop_
    _atom_site_type_symbol
    _atom_site_label
    _atom_site_fract_x
    _atom_site_fract_y
    _atom_site_fract_z
    _atom_type_partial_charge
    Cu  Cu1  0.219920  0.075930  0.091570  0.651786
    Cu  Cu2  0.210820  0.089750  0.261730  0.781834
    C   C1   0.747630  0.076920  0.094710  0.357069
    C   C2   0.698090  0.975290  0.135660  0.019496
    C   C3   0.797840  0.085010  0.176640  0.050907
    C   C4   0.681210  0.182210  0.135680  0.099466
    C   C5   0.632900  0.080660  0.176650  0.419297
    C   C6   0.749540  0.983330  0.217590  0.302241
    C   C7   0.732650  0.190340  0.217600  0.341903
    C   C8   0.683130  0.088690  0.258610  0.210096
    C   C9   0.892860  0.087520  0.176640  -0.194371
    C   C10  0.537890  0.078150  0.176660  -0.349335
    O   O1   0.636690  0.284040  0.096550  -0.372212
    C   C11  0.692810  0.347760  0.046290  0.017178
    H   H1   0.707910  0.296270  0.982500  0.047938
    H   H2   0.751460  0.363230  0.079550  0.047602
    H   H3   0.660880  0.442260  0.034000  0.074172
    O   O2   0.757400  0.299570  0.260490  -0.423643
    C   C12  0.688450  0.394400  0.272200  0.111732
    H   H4   0.697660  0.454610  0.330680  0.057525
    H   H5   0.626200  0.356850  0.281900  -0.012087
    H   H6   0.687040  0.455770  0.216560  0.021970
    O   O3   0.641270  0.086290  0.341020  -0.417976
    C   C13  0.681620  0.153250  0.404750  0.168543
    H   H7   0.670890  0.110300  0.467570  0.024057
    H   H8   0.652640  0.252570  0.412120  0.007005
    H   H9   0.751070  0.150190  0.392330  -0.036393
    O   O4   0.787820  0.871050  0.250200  -0.325275
    C   C14  0.809520  0.892520  0.335990  -0.026406
    H   H10  0.850870  0.808890  0.354360  0.068870
    H   H11  0.752350  0.901770  0.380560  0.052509
    H   H12  0.845700  0.975560  0.343950  0.046394
    O   O5   0.684640  0.863410  0.087950  -0.369855
    C   C15  0.632450  0.791050  0.136590  0.054243
    H   H13  0.646890  0.690350  0.113820  0.067727
    H   H14  0.565270  0.819300  0.124750  0.059293
    H   H15  0.642020  0.796860  0.207300  -0.009704
    O   O6   0.769660  0.061180  0.004890  -0.406214
    C   C16  0.847590  0.105890  0.984130  0.173639
    H   H16  0.853340  0.114550  0.913160  0.025925
    H   H17  0.900400  0.036600  0.000690  0.009542
    H   H18  0.852480  0.201210  0.014600  -0.042499
    C   C17  0.061850  0.092010  0.176640  0.771774
    C   C18  0.968590  0.089530  0.176630  -0.180000
    O   O7   0.097180  0.086720  0.101310  -0.540514
    O   O8   0.089120  0.098960  0.251970  -0.608840
    C   C19  0.368880  0.073670  0.176660  0.772367
    C   C20  0.462140  0.076150  0.176670  -0.119749
    O   O9   0.333560  0.078960  0.251980  -0.588828
    O   O10  0.341620  0.066720  0.101330  -0.580447
    C   C21  0.220720  0.641960  0.098210  0.510933
    C   C22  0.218400  0.510970  0.098220  -0.409668
    C   C23  0.210020  0.523730  0.255090  0.399545
    C   C24  0.212340  0.654710  0.255080  -0.340645
    N   N1   0.226830  0.702340  0.018160  -0.895474
    H   H19  0.228620  0.799940  0.017190  0.363099
    H   H20  0.229140  0.649830  0.959160  0.324221
    N   N2   0.206940  0.462850  0.335150  -0.787119
    H   H21  0.208390  0.364670  0.335660  0.323479
    H   H22  0.217270  0.513140  0.392530  0.291540
    H   H23  0.220880  0.452470  0.034350  0.199353
    H   H24  0.209860  0.713220  0.318960  0.184899
    C   C25  0.220160  0.853240  0.176640  0.662927
    C   C26  0.217690  0.713830  0.176640  -0.204582
    O   O11  0.216960  0.906140  0.251970  -0.494676
    O   O12  0.225020  0.893900  0.101320  -0.492503
    C   C27  0.210570  0.312440  0.176650  0.596889
    C   C28  0.213050  0.451850  0.176650  -0.115724
    O   O13  0.213770  0.259540  0.101320  -0.457391
    O   O14  0.205720  0.271770  0.251980  -0.469611
    C   C29  0.172270  0.148060  0.926580  -0.056299
    C   C30  0.177150  0.140700  0.836010  0.107446
    C   C31  0.236070  0.051490  0.790750  0.112543
    C   C32  0.290130  0.969630  0.836050  -0.362903
    C   C33  0.285260  0.977000  0.926620  0.346772
    C   C34  0.253600  0.024980  0.517290  0.107133
    C   C35  0.258460  0.017610  0.426710  -0.020249
    C   C36  0.145480  0.188690  0.426680  0.386846
    C   C37  0.140610  0.196040  0.517250  -0.382751
    C   C38  0.194670  0.114190  0.562550  0.114890
    C   C39  0.241050  0.043960  0.698170  -0.099662
    C   C40  0.189700  0.121720  0.655120  -0.098261
    O   O15  0.338420  0.897210  0.975920  -0.065330
    C   C41  0.400320  0.806410  0.932140  -0.060040
    H   H25  0.369500  0.737350  0.891760  0.044624
    H   H26  0.435820  0.753670  0.981060  0.087418
    H   H27  0.445980  0.854150  0.892370  0.058595
    O   O16  0.139120  0.250460  0.801330  -0.327301
    C   C42  0.191020  0.352010  0.800060  0.101355
    H   H28  0.156840  0.433110  0.769900  0.044534
    H   H29  0.204950  0.383130  0.866890  0.031438
    H   H30  0.251100  0.323280  0.761380  0.014900
    O   O17  0.092550  0.268160  0.377060  -0.058569
    C   C43  0.030660  0.359210  0.420650  -0.147195
    H   H31  0.984900  0.311620  0.460420  0.071307
    H   H32  0.995260  0.411800  0.371540  0.116358
    H   H33  0.061380  0.428280  0.461030  0.067158
    O   O18  0.291540  0.915250  0.552230  -0.324153
    C   C44  0.239600  0.813770  0.553450  0.072919
    H   H34  0.179510  0.842500  0.592180  0.014679
    H   H35  0.225670  0.782660  0.486680  0.040424
    H   H36  0.273730  0.732610  0.583670  0.055974
    H   H37  0.124290  0.220710  0.963430  0.157910
    H   H38  0.092630  0.268690  0.554100  0.149432
    H   H39  0.306450  0.944960  0.389860  0.153826
    H   H40  0.338110  0.896990  0.799190  0.144110
    H   H41  0.141730  0.194370  0.691980  0.141266
    H   H42  0.289020  0.971320  0.661310  0.145671
    N   N3   0.226330  0.066210  0.971890  -0.159145
    N   N4   0.204410  0.099470  0.381410  -0.226914
