# generated using pymatgen
data_CuH13C19NO4
_symmetry_space_group_name_H-M   'P 1'
_cell_length_a   10.65460000
_cell_length_b   15.99530000
_cell_length_c   14.18490000
_cell_angle_alpha   76.80490000
_cell_angle_beta   103.25900000
_cell_angle_gamma   83.98370000
_symmetry_Int_Tables_number   1
_chemical_formula_structural   CuH13C19NO4
_chemical_formula_sum   'Cu2 H26 C38 N2 O8'
_cell_volume   2259.15093906
_cell_formula_units_Z   2
loop_
 _symmetry_equiv_pos_site_id
 _symmetry_equiv_pos_as_xyz
  1  'x, y, z'
loop_
 _atom_site_type_symbol
 _atom_site_label
 _atom_site_symmetry_multiplicity
 _atom_site_fract_x
 _atom_site_fract_y
 _atom_site_fract_z
 _atom_site_occupancy
  Cu  Cu1  1  0.07162000  0.21965000  0.08548000  1
  Cu  Cu2  1  0.13890000  0.17502000  0.28281000  1
  H  H1  1  0.78034000  0.16210000  0.34918000  1
  H  H2  1  0.54271000  0.15793000  0.34917000  1
  H  H3  1  0.43018000  0.23257000  0.01912000  1
  H  H4  1  0.66782000  0.23676000  0.01912000  1
  H  H5  1  0.24517000  0.72781000  0.33695000  1
  H  H6  1  0.24197000  0.58401000  0.33720000  1
  H  H7  1  0.07046000  0.59697000  0.33699000  1
  H  H8  1  0.07328000  0.74115000  0.33722000  1
  H  H9  1  0.88872000  0.64721000  0.16907000  1
  H  H10  1  0.93212000  0.66653000  0.04964000  1
  H  H11  1  0.93668000  0.80978000  0.04872000  1
  H  H12  1  0.89247000  0.79104000  0.16748000  1
  H  H13  1  0.30576000  0.61247000  0.16320000  1
  H  H14  1  0.31126000  0.75508000  0.16988000  1
  H  H15  1  0.18895000  0.79008000  0.04986000  1
  H  H16  1  0.17617000  0.64759000  0.04705000  1
  H  H17  1  0.17559000  0.15066000  0.93696000  1
  H  H18  1  0.25540000  0.09770000  0.87472000  1
  H  H19  1  0.37756000  0.01666000  0.77946000  1
  H  H20  1  0.40908000  0.99575000  0.62193000  1
  H  H21  1  0.34414000  0.03885000  0.43140000  1
  H  H22  1  0.03494000  0.24401000  0.43132000  1
  H  H23  1  0.95511000  0.29696000  0.49359000  1
  H  H24  1  0.83298000  0.37801000  0.58883000  1
  H  H25  1  0.80145000  0.39892000  0.74636000  1
  H  H26  1  0.86638000  0.35583000  0.93691000  1
  C  C1  1  0.70177000  0.17792000  0.27511000  1
  C  C2  1  0.57077000  0.17561000  0.27510000  1
  C  C3  1  0.50877000  0.21676000  0.09318000  1
  C  C4  1  0.63976000  0.21907000  0.09319000  1
  C  C5  1  0.87566000  0.20211000  0.18415000  1
  C  C6  1  0.73626000  0.19965000  0.18415000  1
  C  C7  1  0.33486000  0.19256000  0.18415000  1
  C  C8  1  0.47427000  0.19503000  0.18414000  1
  C  C9  1  0.10304000  0.61355000  0.18414000  1
  C  C10  1  0.14193000  0.62403000  0.29406000  1
  C  C11  1  0.14403000  0.72075000  0.29412000  1
  C  C12  1  0.10748000  0.78113000  0.18416000  1
  C  C13  1  0.96810000  0.76813000  0.12957000  1
  C  C14  1  0.96568000  0.67125000  0.13028000  1
  C  C15  1  0.20357000  0.65222000  0.12802000  1
  C  C16  1  0.20842000  0.74836000  0.13008000  1
  C  C17  1  0.10999000  0.87584000  0.18416000  1
  C  C18  1  0.10053000  0.51884000  0.18413000  1
  C  C19  1  0.11446000  0.04430000  0.18416000  1
  C  C20  1  0.11199000  0.95133000  0.18417000  1
  C  C21  1  0.09607000  0.35037000  0.18413000  1
  C  C22  1  0.09854000  0.44334000  0.18412000  1
  C  C23  1  0.32512000  0.05146000  0.57917000  1
  C  C24  1  0.28931000  0.07523000  0.47413000  1
  C  C25  1  0.11889000  0.18830000  0.47410000  1
  C  C26  1  0.15469000  0.16455000  0.57914000  1
  C  C27  1  0.25780000  0.09613000  0.63166000  1
  C  C28  1  0.08737000  0.20921000  0.63163000  1
  C  C29  1  0.12316000  0.18546000  0.73666000  1
  C  C30  1  0.22627000  0.11704000  0.78920000  1
  C  C31  1  0.29359000  0.07238000  0.73669000  1
  C  C32  1  0.98425000  0.27763000  0.57911000  1
  C  C33  1  0.91694000  0.32230000  0.63160000  1
  C  C34  1  0.95273000  0.29855000  0.73663000  1
  C  C35  1  0.05584000  0.23013000  0.78917000  1
  C  C36  1  0.88541000  0.34321000  0.78914000  1
  C  C37  1  0.92120000  0.31946000  0.89417000  1
  C  C38  1  0.09163000  0.20637000  0.89420000  1
  N  N1  1  0.02431000  0.25104000  0.94669000  1
  N  N2  1  0.18622000  0.14363000  0.42160000  1
  O  O1  1  0.89266000  0.22270000  0.09680000  1
  O  O2  1  0.95223000  0.18318000  0.27151000  1
  O  O3  1  0.31787000  0.17197000  0.27150000  1
  O  O4  1  0.25829000  0.21149000  0.09679000  1
  O  O5  1  0.14507000  0.05574000  0.27152000  1
  O  O6  1  0.08550000  0.09526000  0.09681000  1
  O  O7  1  0.06509000  0.33896000  0.09678000  1
  O  O8  1  0.12540000  0.29939000  0.27149000  1
