# Generated by REPEAT Assigner based on pymatgen
data_DB6-cuf_7537
_audit_creation_date              2022-05-24
_audit_creation_method            REPEAT_Assigner
_cell_length_a                    10.654600
_cell_length_b                    19.188900
_cell_length_c                    14.472300
_cell_angle_alpha                 90.001700
_cell_angle_beta                  90.004100
_cell_angle_gamma                 83.812900
_cell_volume                      2941.627886
_symmetry_space_group_name_H-M    P1
_symmetry_Int_Tables_number       1
loop_
    _symmetry_equiv_pos_site_id
    _symmetry_equiv_pos_as_xyz
    1  x,y,z
loop_
    _atom_site_type_symbol
    _atom_site_label
    _atom_site_fract_x
    _atom_site_fract_y
    _atom_site_fract_z
    _atom_type_partial_charge
    Cu  Cu1  0.096660  0.243970  0.055290  0.664230
    Cu  Cu2  0.096680  0.243980  0.237040  0.808029
    C   C1   0.662170  0.244940  0.229940  0.312221
    C   C2   0.531190  0.243010  0.229940  -0.260439
    C   C3   0.531190  0.243010  0.062380  0.304133
    C   C4   0.662160  0.244940  0.062390  -0.254988
    F   F1   0.725850  0.245770  0.310890  -0.190885
    F   F2   0.467430  0.242250  0.981440  -0.192062
    H   H1   0.477880  0.242240  0.298150  0.172056
    H   H2   0.715470  0.245720  0.994160  0.172524
    C   C5   0.867050  0.247960  0.146170  0.620974
    C   C6   0.727650  0.245900  0.146170  -0.120186
    O   O1   0.913820  0.248640  0.065710  -0.516709
    O   O2   0.913840  0.248650  0.226630  -0.459127
    C   C7   0.326290  0.239990  0.146160  0.606163
    C   C8   0.465690  0.242050  0.146160  -0.107158
    O   O3   0.279530  0.239300  0.226620  -0.509256
    O   O4   0.279510  0.239300  0.065710  -0.457376
    C   C9   0.103550  0.002440  0.229950  -0.315391
    C   C10  0.101610  0.929600  0.229950  0.691450
    C   C11  0.100640  0.893180  0.146170  -0.642047
    C   C12  0.101580  0.929610  0.062400  -0.182858
    C   C13  0.103510  0.002440  0.062400  0.517713
    N   N1   0.169070  0.773970  0.083810  -0.379930
    N   N2   0.167240  0.704780  0.083810  -0.387832
    C   C14  0.094820  0.673740  0.146160  0.993058
    N   N3   0.024330  0.714490  0.208510  -0.356576
    N   N4   0.026160  0.783690  0.208510  -0.355384
    C   C15  0.098550  0.814210  0.146160  1.003760
    C   C16  0.091770  0.558340  0.229930  0.688763
    C   C17  0.089820  0.485510  0.229920  -0.315964
    C   C18  0.089800  0.485510  0.062370  0.509254
    C   C19  0.091740  0.558350  0.062370  -0.182600
    C   C20  0.092730  0.594760  0.146160  -0.629870
    N   N5   0.100320  0.040050  0.976260  -1.018020
    H   H3   0.101570  0.094370  0.975360  0.422234
    H   H4   0.099900  0.013590  0.913180  0.389392
    N   N6   0.108230  0.894380  0.316720  -1.123568
    H   H5   0.146290  0.842240  0.322600  0.424335
    H   H6   0.093860  0.922680  0.378210  0.440600
    N   N7   0.100060  0.592600  0.316680  -1.121515
    H   H7   0.140360  0.639530  0.322550  0.423997
    H   H8   0.084340  0.566360  0.378180  0.437341
    N   N8   0.084670  0.448520  0.976180  -1.001935
    H   H9   0.083040  0.394220  0.975290  0.414883
    H   H10  0.085650  0.474920  0.913160  0.381467
    H   H11  0.104340  0.032080  0.298170  0.160114
    H   H12  0.100800  0.899950  0.994190  0.133145
    H   H13  0.089040  0.455860  0.298140  0.159576
    H   H14  0.092520  0.588000  0.994160  0.133906
    C   C21  0.106550  0.116370  0.146180  0.638175
    C   C22  0.104500  0.038850  0.146180  -0.195396
    O   O5   0.107250  0.142390  0.226630  -0.508674
    O   O6   0.107230  0.142380  0.065720  -0.458591
    C   C23  0.086800  0.371580  0.146150  0.637685
    C   C24  0.088850  0.449090  0.146150  -0.191814
    O   O7   0.086100  0.345560  0.065700  -0.452588
    O   O8   0.086110  0.345570  0.226610  -0.507764
    C   C25  0.096680  0.243980  0.553370  -0.144811
    C   C26  0.200260  0.187180  0.592570  0.209932
    C   C27  0.199990  0.186970  0.699660  0.203347
    C   C28  0.096670  0.243970  0.738960  -0.163544
    C   C29  0.965630  0.227610  0.700070  0.180329
    C   C30  0.966240  0.227210  0.592950  0.257663
    C   C31  0.122950  0.317290  0.592860  0.202693
    C   C32  0.125930  0.316810  0.699980  0.234977
    C   C33  0.096650  0.243960  0.843850  0.246263
    C   C34  0.096680  0.243980  0.448480  0.235359
    F   F3   0.181490  0.121420  0.559280  -0.230428
    F   F4   0.870020  0.275010  0.559500  -0.219653
    F   F5   0.242290  0.332850  0.732010  -0.222563
    F   F6   0.179960  0.121210  0.732850  -0.220679
    F   F7   0.236080  0.335930  0.558510  -0.225603
    F   F8   0.870640  0.276550  0.733000  -0.223591
    H   H15  0.297400  0.196780  0.725960  0.093379
    H   H16  0.298000  0.196840  0.566820  0.088498
    H   H17  0.943070  0.173730  0.567960  0.072851
    H   H18  0.941890  0.174740  0.726900  0.088219
    H   H19  0.055360  0.361090  0.726730  0.075986
    H   H20  0.047410  0.359560  0.567500  0.081930
    N   N9   0.096660  0.243960  0.927460  -0.236802
    N   N10  0.096690  0.243990  0.364870  -0.248432
