# generated using pymatgen
data_CuH13C24N5O4F3
_symmetry_space_group_name_H-M   'P 1'
_cell_length_a   15.62520000
_cell_length_b   14.85350000
_cell_length_c   14.42150000
_cell_angle_alpha   90.00740000
_cell_angle_beta   71.92540000
_cell_angle_gamma   83.94460000
_symmetry_Int_Tables_number   1
_chemical_formula_structural   CuH13C24N5O4F3
_chemical_formula_sum   'Cu2 H26 C48 N10 O8 F6'
_cell_volume   3162.23780930
_cell_formula_units_Z   2
loop_
 _symmetry_equiv_pos_site_id
 _symmetry_equiv_pos_as_xyz
  1  'x, y, z'
loop_
 _atom_site_type_symbol
 _atom_site_label
 _atom_site_symmetry_multiplicity
 _atom_site_fract_x
 _atom_site_fract_y
 _atom_site_fract_z
 _atom_site_occupancy
  Cu  Cu1  1  0.20965000  0.19055000  0.99894000  1
  Cu  Cu2  1  0.20967000  0.19057000  0.18132000  1
  H  H1  1  0.91082000  0.30186000  0.00793000  1
  H  H2  1  0.01462000  0.23410000  0.99882000  1
  H  H3  1  0.63757000  0.16057000  0.42835000  1
  H  H4  1  0.54040000  0.20367000  0.39800000  1
  H  H5  1  0.40483000  0.14655000  0.18127000  1
  H  H6  1  0.50876000  0.07880000  0.17177000  1
  H  H7  1  0.87565000  0.20218000  0.78247000  1
  H  H8  1  0.78946000  0.15233000  0.75189000  1
  H  H9  1  0.88025000  0.19379000  0.94870000  1
  H  H10  1  0.65386000  0.18947000  0.78822000  1
  H  H11  1  0.48327000  0.18623000  0.84560000  1
  H  H12  1  0.53907000  0.18732000  0.23157000  1
  H  H13  1  0.76545000  0.19166000  0.39204000  1
  H  H14  1  0.93605000  0.19490000  0.33467000  1
  H  H15  1  0.17971000  0.76781000  0.41398000  1
  H  H16  1  0.26012000  0.83326000  0.33653000  1
  H  H17  1  0.17721000  0.62168000  0.41495000  1
  H  H18  1  0.25446000  0.53550000  0.33836000  1
  H  H19  1  0.17083000  0.84647000  0.83686000  1
  H  H20  1  0.24437000  0.75451000  0.76616000  1
  H  H21  1  0.17087000  0.62708000  0.79087000  1
  H  H22  1  0.24435000  0.53507000  0.81220000  1
  H  H23  1  0.21398000  0.91694000  0.24121000  1
  H  H24  1  0.20536000  0.46422000  0.24411000  1
  H  H25  1  0.20533000  0.46419000  0.93907000  1
  H  H26  1  0.21395000  0.91690000  0.93616000  1
  C  C1  1  0.61560000  0.18875000  0.86955000  1
  C  C2  1  0.52156000  0.18696000  0.90119000  1
  C  C3  1  0.52158000  0.18698000  0.06932000  1
  C  C4  1  0.61562000  0.18877000  0.03769000  1
  C  C5  1  0.66262000  0.18965000  0.93781000  1
  C  C6  1  0.66264000  0.18967000  0.10594000  1
  C  C7  1  0.75668000  0.19146000  0.07432000  1
  C  C8  1  0.80369000  0.19234000  0.97444000  1
  C  C9  1  0.75665000  0.19144000  0.90619000  1
  C  C10  1  0.61564000  0.18878000  0.20583000  1
  C  C11  1  0.66266000  0.18969000  0.27408000  1
  C  C12  1  0.75670000  0.19148000  0.24246000  1
  C  C13  1  0.80371000  0.19236000  0.14258000  1
  C  C14  1  0.80373000  0.19238000  0.31072000  1
  C  C15  1  0.89776000  0.19417000  0.27909000  1
  C  C16  1  0.89774000  0.19415000  0.11096000  1
  C  C17  1  0.04484000  0.19695000  0.14556000  1
  C  C18  1  0.94476000  0.19505000  0.17921000  1
  C  C19  1  0.37447000  0.18418000  0.03471000  1
  C  C20  1  0.47455000  0.18608000  0.00106000  1
  C  C21  1  0.20608000  0.50250000  0.17541000  1
  C  C22  1  0.20606000  0.50248000  0.00728000  1
  C  C23  1  0.20786000  0.59651000  0.00667000  1
  C  C24  1  0.20876000  0.64354000  0.09043000  1
  C  C25  1  0.20787000  0.59654000  0.17481000  1
  C  C26  1  0.20874000  0.64352000  0.92230000  1
  C  C27  1  0.21053000  0.73756000  0.92169000  1
  C  C28  1  0.21144000  0.78459000  0.00545000  1
  C  C29  1  0.21055000  0.73758000  0.08983000  1
  C  C30  1  0.21146000  0.78461000  0.17360000  1
  C  C31  1  0.21058000  0.73761000  0.25797000  1
  C  C32  1  0.20878000  0.64357000  0.25857000  1
  C  C33  1  0.21324000  0.87863000  0.00485000  1
  C  C34  1  0.21325000  0.87866000  0.17299000  1
  C  C35  1  0.21604000  0.02574000  0.08798000  1
  C  C36  1  0.21414000  0.92566000  0.08862000  1
  C  C37  1  0.20327000  0.35538000  0.09228000  1
  C  C38  1  0.20517000  0.45547000  0.09165000  1
  C  C39  1  0.27347000  0.12649000  0.59957000  1
  C  C40  1  0.19194000  0.10910000  0.56515000  1
  C  C41  1  0.20965000  0.19056000  0.68150000  1
  C  C42  1  0.29120000  0.20791000  0.53182000  1
  C  C43  1  0.20967000  0.19057000  0.49877000  1
  C  C44  1  0.12807000  0.17313000  0.64846000  1
  C  C45  1  0.22739000  0.27197000  0.61511000  1
  C  C46  1  0.14579000  0.25462000  0.58074000  1
  C  C47  1  0.20964000  0.19055000  0.78676000  1
  C  C48  1  0.20967000  0.19058000  0.39351000  1
  N  N1  1  0.94413000  0.24445000  0.02883000  1
  N  N2  1  0.61077000  0.18857000  0.37572000  1
  N  N3  1  0.47531000  0.13628000  0.15119000  1
  N  N4  1  0.80933000  0.18503000  0.80450000  1
  N  N5  1  0.21546000  0.78438000  0.34329000  1
  N  N6  1  0.21188000  0.59576000  0.34449000  1
  N  N7  1  0.20985000  0.78458000  0.83490000  1
  N  N8  1  0.20533000  0.59696000  0.83642000  1
  N  N9  1  0.20964000  0.19054000  0.87066000  1
  N  N10  1  0.20967000  0.19058000  0.30960000  1
  O  O1  1  0.07842000  0.19758000  0.05352000  1
  O  O2  1  0.07844000  0.19760000  0.21500000  1
  O  O3  1  0.34090000  0.18354000  0.12674000  1
  O  O4  1  0.34088000  0.18353000  0.96527000  1
  O  O5  1  0.21669000  0.05934000  0.16851000  1
  O  O6  1  0.21667000  0.05932000  0.00703000  1
  O  O7  1  0.20264000  0.32179000  0.01176000  1
  O  O8  1  0.20263000  0.32181000  0.17324000  1
  F  F1  1  0.17379000  0.02562000  0.53825000  1
  F  F2  1  0.37480000  0.22575000  0.47084000  1
  F  F3  1  0.08040000  0.32031000  0.56979000  1
  F  F4  1  0.33888000  0.06080000  0.61050000  1
  F  F5  1  0.24559000  0.35548000  0.64193000  1
  F  F6  1  0.04449000  0.15526000  0.70951000  1
