# generated using pymatgen
data_CuH13C24N2(O3F)2
_symmetry_space_group_name_H-M   'P 1'
_cell_length_a   14.85350000
_cell_length_b   16.10930000
_cell_length_c   13.33040000
_cell_angle_alpha   90.00000000
_cell_angle_beta   90.00460000
_cell_angle_gamma   83.54710000
_symmetry_Int_Tables_number   1
_chemical_formula_structural   CuH13C24N2(O3F)2
_chemical_formula_sum   'Cu2 H26 C48 N4 O12 F4'
_cell_volume   3169.48323230
_cell_formula_units_Z   2
loop_
 _symmetry_equiv_pos_site_id
 _symmetry_equiv_pos_as_xyz
  1  'x, y, z'
loop_
 _atom_site_type_symbol
 _atom_site_label
 _atom_site_symmetry_multiplicity
 _atom_site_fract_x
 _atom_site_fract_y
 _atom_site_fract_z
 _atom_site_occupancy
  Cu  Cu1  1  0.15624000  0.12500000  0.10967000  1
  Cu  Cu2  1  0.15626000  0.12500000  0.30699000  1
  H  H1  1  0.88259000  0.12898000  0.04332000  1
  H  H2  1  0.42988000  0.12103000  0.04332000  1
  H  H3  1  0.42991000  0.12101000  0.37333000  1
  H  H4  1  0.88261000  0.12896000  0.37335000  1
  H  H5  1  0.15341000  0.47496000  0.39999000  1
  H  H6  1  0.15528000  0.57289000  0.46114000  1
  H  H7  1  0.15909000  0.77504000  0.01667000  1
  H  H8  1  0.15722000  0.67711000  0.95553000  1
  H  H9  1  0.15475000  0.54634000  0.04332000  1
  H  H10  1  0.15776000  0.70366000  0.37336000  1
  H  H11  1  0.31287000  0.84316000  0.87954000  1
  H  H12  1  0.38428000  0.83324000  0.77010000  1
  H  H13  1  0.26341000  0.86031000  0.75695000  1
  H  H14  1  0.46155000  0.97978000  0.53727000  1
  H  H15  1  0.47214000  0.91397000  0.64665000  1
  H  H16  1  0.44309000  0.02542000  0.65977000  1
  H  H17  1  0.84040000  0.33606000  0.76995000  1
  H  H18  1  0.85094000  0.27022000  0.87940000  1
  H  H19  1  0.86941000  0.22457000  0.75690000  1
  H  H20  1  0.99963000  0.40684000  0.53714000  1
  H  H21  1  0.04909000  0.38969000  0.65972000  1
  H  H22  1  0.92822000  0.41675000  0.64657000  1
  H  H23  1  0.26723000  0.02238000  0.96115000  1
  H  H24  1  0.26727000  0.02238000  0.45555000  1
  H  H25  1  0.04527000  0.22761000  0.45552000  1
  H  H26  1  0.04523000  0.22762000  0.96111000  1
  C  C1  1  0.46817000  0.12170000  0.11737000  1
  C  C2  1  0.46819000  0.12169000  0.29928000  1
  C  C3  1  0.56222000  0.12334000  0.29928000  1
  C  C4  1  0.60923000  0.12417000  0.20833000  1
  C  C5  1  0.56221000  0.12335000  0.11738000  1
  C  C6  1  0.60924000  0.12416000  0.39024000  1
  C  C7  1  0.70328000  0.12581000  0.39024000  1
  C  C8  1  0.75029000  0.12665000  0.29929000  1
  C  C9  1  0.70327000  0.12583000  0.20833000  1
  C  C10  1  0.75028000  0.12666000  0.11738000  1
  C  C11  1  0.70326000  0.12584000  0.02642000  1
  C  C12  1  0.60922000  0.12419000  0.02642000  1
  C  C13  1  0.84433000  0.12830000  0.29929000  1
  C  C14  1  0.84432000  0.12831000  0.11738000  1
  C  C15  1  0.99142000  0.13089000  0.20834000  1
  C  C16  1  0.89134000  0.12913000  0.20834000  1
  C  C17  1  0.32108000  0.11911000  0.20833000  1
  C  C18  1  0.42116000  0.12086000  0.20833000  1
  C  C19  1  0.15707000  0.66836000  0.11738000  1
  C  C20  1  0.15542000  0.58164000  0.11739000  1
  C  C21  1  0.15543000  0.58164000  0.29929000  1
  C  C22  1  0.15709000  0.66836000  0.29929000  1
  C  C23  1  0.15790000  0.71172000  0.20833000  1
  C  C24  1  0.15460000  0.53828000  0.20834000  1
  C  C25  1  0.15282000  0.44425000  0.20834000  1
  C  C26  1  0.15968000  0.80576000  0.20832000  1
  C  C27  1  0.16287000  0.97300000  0.20832000  1
  C  C28  1  0.16111000  0.88071000  0.20832000  1
  C  C29  1  0.14963000  0.27700000  0.20834000  1
  C  C30  1  0.15139000  0.36929000  0.20835000  1
  C  C31  1  0.21744000  0.06843000  0.49830000  1
  C  C32  1  0.09508000  0.18155000  0.49828000  1
  C  C33  1  0.09508000  0.18156000  0.60329000  1
  C  C34  1  0.15625000  0.12500000  0.65582000  1
  C  C35  1  0.21744000  0.06843000  0.60332000  1
  C  C36  1  0.03389000  0.23812000  0.65580000  1
  C  C37  1  0.03388000  0.23813000  0.76082000  1
  C  C38  1  0.09506000  0.18157000  0.81335000  1
  C  C39  1  0.15625000  0.12500000  0.76085000  1
  C  C40  1  0.21742000  0.06844000  0.81337000  1
  C  C41  1  0.27862000  0.01187000  0.76087000  1
  C  C42  1  0.27862000  0.01187000  0.65585000  1
  C  C43  1  0.09506000  0.18157000  0.91837000  1
  C  C44  1  0.21742000  0.06844000  0.91840000  1
  C  C45  1  0.32364000  0.86905000  0.80392000  1
  C  C46  1  0.43343000  0.96994000  0.61288000  1
  C  C47  1  0.87907000  0.28006000  0.80379000  1
  C  C48  1  0.98886000  0.38095000  0.61275000  1
  N  N1  1  0.15464000  0.53939000  0.39407000  1
  N  N2  1  0.15786000  0.71062000  0.02260000  1
  N  N3  1  0.15623000  0.12501000  0.97089000  1
  N  N4  1  0.15627000  0.12499000  0.44577000  1
  O  O1  1  0.02500000  0.13148000  0.12099000  1
  O  O2  1  0.02501000  0.13147000  0.29569000  1
  O  O3  1  0.28750000  0.11853000  0.29568000  1
  O  O4  1  0.28749000  0.11852000  0.12098000  1
  O  O5  1  0.16347000  0.00397000  0.29568000  1
  O  O6  1  0.16345000  0.00398000  0.12098000  1
  O  O7  1  0.14904000  0.24603000  0.12099000  1
  O  O8  1  0.14904000  0.24602000  0.29569000  1
  O  O9  1  0.33923000  0.95473000  0.81398000  1
  O  O10  1  0.34042000  0.95582000  0.60274000  1
  O  O11  1  0.97207000  0.29418000  0.81394000  1
  O  O12  1  0.97326000  0.29526000  0.60269000  1
  F  F1  1  0.56493000  0.12339000  0.47930000  1
  F  F2  1  0.74763000  0.12659000  0.47929000  1
  F  F3  1  0.74757000  0.12661000  0.93737000  1
  F  F4  1  0.56487000  0.12341000  0.93737000  1
