# generated using pymatgen
data_CuH10C18N4O4F3
_symmetry_space_group_name_H-M   'P 1'
_cell_length_a   14.97150000
_cell_length_b   12.81140000
_cell_length_c   14.42150000
_cell_angle_alpha   84.57430000
_cell_angle_beta   90.00440000
_cell_angle_gamma   83.82990000
_symmetry_Int_Tables_number   1
_chemical_formula_structural   CuH10C18N4O4F3
_chemical_formula_sum   'Cu2 H20 C36 N8 O8 F6'
_cell_volume   2737.63682237
_cell_formula_units_Z   2
loop_
 _symmetry_equiv_pos_site_id
 _symmetry_equiv_pos_as_xyz
  1  'x, y, z'
loop_
 _atom_site_type_symbol
 _atom_site_label
 _atom_site_symmetry_multiplicity
 _atom_site_fract_x
 _atom_site_fract_y
 _atom_site_fract_z
 _atom_site_occupancy
  Cu  Cu1  1  0.16289000  0.13660000  0.09540000  1
  Cu  Cu2  1  0.16291000  0.13662000  0.27779000  1
  H  H1  1  0.72217000  0.13795000  0.33901000  1
  H  H2  1  0.60365000  0.13530000  0.33923000  1
  H  H3  1  0.43437000  0.13154000  0.03448000  1
  H  H4  1  0.89141000  0.14166000  0.03365000  1
  H  H5  1  0.16631000  0.81801000  0.06085000  1
  H  H6  1  0.15948000  0.45518000  0.00728000  1
  H  H7  1  0.15949000  0.45518000  0.31233000  1
  H  H8  1  0.16633000  0.81804000  0.36591000  1
  H  H9  1  0.06901000  0.94359000  0.59310000  1
  H  H10  1  0.11834000  0.88540000  0.69196000  1
  H  H11  1  0.97295000  0.15016000  0.78533000  1
  H  H12  1  0.00755000  0.02057000  0.79616000  1
  H  H13  1  0.34091000  0.01144000  0.79698000  1
  H  H14  1  0.26535000  0.92337000  0.80438000  1
  H  H15  1  0.32511000  0.24131000  0.56741000  1
  H  H16  1  0.37408000  0.18470000  0.66697000  1
  H  H17  1  0.21014000  0.37477000  0.66781000  1
  H  H18  1  0.14748000  0.35867000  0.76353000  1
  H  H19  1  0.00460000  0.32352000  0.65517000  1
  H  H20  1  0.06744000  0.33878000  0.55952000  1
  C  C1  1  0.85345000  0.14083000  0.27032000  1
  C  C2  1  0.76014000  0.13877000  0.27049000  1
  C  C3  1  0.71348000  0.13773000  0.18650000  1
  C  C4  1  0.76014000  0.13876000  0.10234000  1
  C  C5  1  0.85344000  0.14083000  0.10218000  1
  C  C6  1  0.56566000  0.13445000  0.10270000  1
  C  C7  1  0.47235000  0.13238000  0.10287000  1
  C  C8  1  0.47236000  0.13239000  0.27101000  1
  C  C9  1  0.56567000  0.13446000  0.27085000  1
  C  C10  1  0.61231000  0.13549000  0.18669000  1
  C  C11  1  0.99940000  0.14406000  0.18598000  1
  C  C12  1  0.90009000  0.14186000  0.18617000  1
  C  C13  1  0.32640000  0.12915000  0.18721000  1
  C  C14  1  0.42570000  0.13135000  0.18702000  1
  C  C15  1  0.16238000  0.60923000  0.06279000  1
  C  C16  1  0.16031000  0.49975000  0.07199000  1
  C  C17  1  0.16032000  0.49976000  0.24013000  1
  C  C18  1  0.16239000  0.60924000  0.23093000  1
  C  C19  1  0.16342000  0.66397000  0.14226000  1
  C  C20  1  0.16548000  0.77345000  0.13306000  1
  C  C21  1  0.16549000  0.77346000  0.30120000  1
  C  C22  1  0.16342000  0.66398000  0.31040000  1
  C  C23  1  0.16872000  0.94472000  0.20273000  1
  C  C24  1  0.16652000  0.82820000  0.21253000  1
  C  C25  1  0.15708000  0.32849000  0.17046000  1
  C  C26  1  0.15928000  0.44501000  0.16066000  1
  C  C27  1  0.22601000  0.06200000  0.72377000  1
  C  C28  1  0.14506000  0.04177000  0.66363000  1
  C  C29  1  0.16289000  0.13660000  0.77796000  1
  C  C30  1  0.24386000  0.15680000  0.65400000  1
  C  C31  1  0.16291000  0.13661000  0.59524000  1
  C  C32  1  0.08190000  0.11632000  0.71919000  1
  C  C33  1  0.18074000  0.23139000  0.70956000  1
  C  C34  1  0.09973000  0.21119000  0.64945000  1
  C  C35  1  0.16288000  0.13659000  0.88322000  1
  C  C36  1  0.16291000  0.13662000  0.48998000  1
  N  N1  1  0.12958000  0.93215000  0.63061000  1
  N  N2  1  0.99741000  0.08721000  0.74812000  1
  N  N3  1  0.29752000  0.97403000  0.75762000  1
  N  N4  1  0.33452000  0.17078000  0.61065000  1
  N  N5  1  0.20380000  0.32613000  0.72931000  1
  N  N6  1  0.03445000  0.28390000  0.60109000  1
  N  N7  1  0.16288000  0.13658000  0.96712000  1
  N  N8  1  0.16292000  0.13663000  0.40607000  1
  O  O1  1  0.03271000  0.14479000  0.10517000  1
  O  O2  1  0.03273000  0.14481000  0.26665000  1
  O  O3  1  0.29309000  0.12842000  0.26802000  1
  O  O4  1  0.29307000  0.12841000  0.10654000  1
  O  O5  1  0.16946000  0.98383000  0.28018000  1
  O  O6  1  0.16945000  0.98381000  0.11870000  1
  O  O7  1  0.15634000  0.28938000  0.09301000  1
  O  O8  1  0.15635000  0.28940000  0.25449000  1
  F  F1  1  0.89878000  0.14241000  0.35154000  1
  F  F2  1  0.72294000  0.18179000  0.02005000  1
  F  F3  1  0.60289000  0.09140000  0.02766000  1
  F  F4  1  0.42705000  0.13085000  0.35247000  1
  F  F5  1  0.16333000  0.66059000  0.97607000  1
  F  F6  1  0.16247000  0.61262000  0.39712000  1
