# generated using pymatgen
data_CuH14C26N3(O3F2)2
_symmetry_space_group_name_H-M   'P 1'
_cell_length_a   15.62520000
_cell_length_b   17.01930000
_cell_length_c   17.66630000
_cell_angle_alpha   86.12410000
_cell_angle_beta   71.92220000
_cell_angle_gamma   82.62110000
_symmetry_Int_Tables_number   1
_chemical_formula_structural   CuH14C26N3(O3F2)2
_chemical_formula_sum   'Cu2 H28 C52 N6 O12 F8'
_cell_volume   4427.18285720
_cell_formula_units_Z   2
loop_
 _symmetry_equiv_pos_site_id
 _symmetry_equiv_pos_as_xyz
  1  'x, y, z'
loop_
 _atom_site_type_symbol
 _atom_site_label
 _atom_site_symmetry_multiplicity
 _atom_site_fract_x
 _atom_site_fract_y
 _atom_site_fract_z
 _atom_site_occupancy
  Cu  Cu1  1  0.15743000  0.21259000  0.04593000  1
  Cu  Cu2  1  0.15744000  0.21260000  0.19481000  1
  H  H1  1  0.82803000  0.21543000  0.00473000  1
  H  H2  1  0.60166000  0.21165000  0.87397000  1
  H  H3  1  0.43108000  0.20881000  0.92100000  1
  H  H4  1  0.48685000  0.20975000  0.23601000  1
  H  H5  1  0.71321000  0.21354000  0.36677000  1
  H  H6  1  0.88381000  0.21638000  0.31975000  1
  H  H7  1  0.10140000  0.91478000  0.36942000  1
  H  H8  1  0.16521000  0.98882000  0.38602000  1
  H  H9  1  0.22546000  0.90123000  0.33466000  1
  H  H10  1  0.29858000  0.78148000  0.90577000  1
  H  H11  1  0.31246000  0.86820000  0.95179000  1
  H  H12  1  0.31599000  0.77174000  0.00222000  1
  H  H13  1  0.08957000  0.52348000  0.90609000  1
  H  H14  1  0.14982000  0.43571000  0.85497000  1
  H  H15  1  0.21356000  0.50994000  0.87141000  1
  H  H16  1  0.99885000  0.65370000  0.23842000  1
  H  H17  1  0.00238000  0.55724000  0.28885000  1
  H  H18  1  0.01619000  0.64396000  0.33488000  1
  H  H19  1  0.16238000  0.97315000  0.01011000  1
  H  H20  1  0.15530000  0.60129000  0.97111000  1
  H  H21  1  0.15249000  0.45204000  0.23064000  1
  H  H22  1  0.15958000  0.82390000  0.26963000  1
  H  H23  1  0.15771000  0.72654000  0.03092000  1
  H  H24  1  0.15719000  0.69864000  0.20983000  1
  H  H25  1  0.26853000  0.11523000  0.90970000  1
  H  H26  1  0.04634000  0.30996000  0.81423000  1
  H  H27  1  0.26854000  0.11523000  0.28275000  1
  H  H28  1  0.04634000  0.30996000  0.47481000  1
  C  C1  1  0.56339000  0.21102000  0.94041000  1
  C  C2  1  0.46935000  0.20945000  0.96634000  1
  C  C3  1  0.46937000  0.20946000  0.10358000  1
  C  C4  1  0.56341000  0.21103000  0.07766000  1
  C  C5  1  0.61041000  0.21181000  0.99607000  1
  C  C6  1  0.61042000  0.21181000  0.13333000  1
  C  C7  1  0.70446000  0.21338000  0.10741000  1
  C  C8  1  0.75147000  0.21416000  0.02583000  1
  C  C9  1  0.70444000  0.21337000  0.97016000  1
  C  C10  1  0.56342000  0.21103000  0.21492000  1
  C  C11  1  0.61044000  0.21182000  0.27058000  1
  C  C12  1  0.70447000  0.21339000  0.24467000  1
  C  C13  1  0.75148000  0.21416000  0.16308000  1
  C  C14  1  0.75149000  0.21417000  0.30034000  1
  C  C15  1  0.84553000  0.21574000  0.27442000  1
  C  C16  1  0.84551000  0.21573000  0.13717000  1
  C  C17  1  0.99261000  0.21818000  0.16526000  1
  C  C18  1  0.89253000  0.21652000  0.19284000  1
  C  C19  1  0.32227000  0.20701000  0.07549000  1
  C  C20  1  0.42235000  0.20867000  0.04791000  1
  C  C21  1  0.16175000  0.93966000  0.06835000  1
  C  C22  1  0.16019000  0.85738000  0.07414000  1
  C  C23  1  0.15942000  0.81625000  0.14567000  1
  C  C24  1  0.16021000  0.85740000  0.21140000  1
  C  C25  1  0.16178000  0.93968000  0.20560000  1
  C  C26  1  0.15469000  0.56781000  0.16660000  1
  C  C27  1  0.15313000  0.48552000  0.17240000  1
  C  C28  1  0.15311000  0.48551000  0.03514000  1
  C  C29  1  0.15467000  0.56780000  0.02935000  1
  C  C30  1  0.15547000  0.60894000  0.09508000  1
  C  C31  1  0.15782000  0.73214000  0.15159000  1
  C  C32  1  0.15707000  0.69304000  0.08915000  1
  C  C33  1  0.16382000  0.94445000  0.34339000  1
  C  C34  1  0.28346000  0.81065000  0.96344000  1
  C  C35  1  0.15121000  0.48026000  0.89748000  1
  C  C36  1  0.03138000  0.61473000  0.27720000  1
  C  C37  1  0.16421000  0.06838000  0.12791000  1
  C  C38  1  0.16254000  0.98081000  0.13407000  1
  C  C39  1  0.15067000  0.35681000  0.11283000  1
  C  C40  1  0.15234000  0.44438000  0.10667000  1
  C  C41  1  0.21867000  0.15893000  0.88828000  1
  C  C42  1  0.21867000  0.15893000  0.80903000  1
  C  C43  1  0.15744000  0.21259000  0.78272000  1
  C  C44  1  0.09619000  0.26626000  0.83566000  1
  C  C45  1  0.09619000  0.26625000  0.91491000  1
  C  C46  1  0.15744000  0.21260000  0.54395000  1
  C  C47  1  0.15744000  0.21260000  0.69679000  1
  C  C48  1  0.21869000  0.15894000  0.40509000  1
  C  C49  1  0.21868000  0.15893000  0.32584000  1
  C  C50  1  0.09620000  0.26627000  0.35247000  1
  C  C51  1  0.09621000  0.26627000  0.43172000  1
  C  C52  1  0.15745000  0.21260000  0.45802000  1
  N  N1  1  0.14606000  0.28239000  0.65687000  1
  N  N2  1  0.14607000  0.28239000  0.58159000  1
  N  N3  1  0.16883000  0.14282000  0.58443000  1
  N  N4  1  0.16882000  0.14282000  0.65972000  1
  N  N5  1  0.15743000  0.21259000  0.94121000  1
  N  N6  1  0.15745000  0.21260000  0.29953000  1
  O  O1  1  0.02619000  0.21874000  0.09009000  1
  O  O2  1  0.02620000  0.21874000  0.22191000  1
  O  O3  1  0.28869000  0.20645000  0.15065000  1
  O  O4  1  0.28868000  0.20645000  0.01883000  1
  O  O5  1  0.16301000  0.98441000  0.26985000  1
  O  O6  1  0.18741000  0.82272000  0.99927000  1
  O  O7  1  0.15189000  0.44049000  0.97115000  1
  O  O8  1  0.12743000  0.60272000  0.24143000  1
  O  O9  1  0.16477000  0.09777000  0.19175000  1
  O  O10  1  0.16476000  0.09776000  0.05993000  1
  O  O11  1  0.15010000  0.32742000  0.04899000  1
  O  O12  1  0.15012000  0.32742000  0.18081000  1
  F  F1  1  0.75169000  0.21083000  0.89129000  1
  F  F2  1  0.56419000  0.20772000  0.34956000  1
  F  F3  1  0.41134000  0.23221000  0.17511000  1
  F  F4  1  0.89641000  0.24027000  0.06452000  1
  F  F5  1  0.27930000  0.10715000  0.75839000  1
  F  F6  1  0.03669000  0.31817000  0.96624000  1
  F  F7  1  0.27930000  0.10718000  0.42923000  1
  F  F8  1  0.03674000  0.31818000  0.32704000  1
