# generated using pymatgen
data_CuH12C21N3O5F
_symmetry_space_group_name_H-M   'P 1'
_cell_length_a   15.62520000
_cell_length_b   16.10930000
_cell_length_c   14.58630000
_cell_angle_alpha   90.00240000
_cell_angle_beta   71.92890000
_cell_angle_gamma   83.86860000
_symmetry_Int_Tables_number   1
_chemical_formula_structural   CuH12C21N3O5F
_chemical_formula_sum   'Cu2 H24 C42 N6 O10 F2'
_cell_volume   3468.31972705
_cell_formula_units_Z   2
loop_
 _symmetry_equiv_pos_site_id
 _symmetry_equiv_pos_as_xyz
  1  'x, y, z'
loop_
 _atom_site_type_symbol
 _atom_site_label
 _atom_site_symmetry_multiplicity
 _atom_site_fract_x
 _atom_site_fract_y
 _atom_site_fract_z
 _atom_site_occupancy
  Cu  Cu1  1  0.24410000  0.16336000  0.99124000  1
  Cu  Cu2  1  0.24413000  0.16335000  0.17155000  1
  H  H1  1  0.94511000  0.26600000  0.00018000  1
  H  H2  1  0.04901000  0.20352000  0.99114000  1
  H  H3  1  0.67209000  0.13566000  0.41577000  1
  H  H4  1  0.57486000  0.17541000  0.38578000  1
  H  H5  1  0.43935000  0.12276000  0.17148000  1
  H  H6  1  0.54338000  0.06028000  0.16205000  1
  H  H7  1  0.91006000  0.17410000  0.77723000  1
  H  H8  1  0.82394000  0.12813000  0.74697000  1
  H  H9  1  0.91469000  0.16635000  0.94156000  1
  H  H10  1  0.68830000  0.16238000  0.78290000  1
  H  H11  1  0.51772000  0.15938000  0.83964000  1
  H  H12  1  0.57354000  0.16035000  0.22123000  1
  H  H13  1  0.79992000  0.16434000  0.37989000  1
  H  H14  1  0.97052000  0.16733000  0.32317000  1
  H  H15  1  0.18198000  0.66005000  0.36052000  1
  H  H16  1  0.30594000  0.64522000  0.31930000  1
  H  H17  1  0.24234000  0.56728000  0.38844000  1
  H  H18  1  0.18229000  0.68149000  0.84349000  1
  H  H19  1  0.30625000  0.66666667  0.80228000  1
  H  H20  1  0.24589000  0.75944000  0.77436000  1
  H  H21  1  0.24261000  0.58469000  0.93110000  1
  H  H22  1  0.24563000  0.74202000  0.23171000  1
  H  H23  1  0.13314000  0.26598000  0.53122000  1
  H  H24  1  0.35510000  0.06073000  0.63158000  1
  C  C1  1  0.65004000  0.16171000  0.86332000  1
  C  C2  1  0.55600000  0.16006000  0.89460000  1
  C  C3  1  0.55603000  0.16005000  0.06081000  1
  C  C4  1  0.65007000  0.16171000  0.02955000  1
  C  C5  1  0.69707000  0.16253000  0.93080000  1
  C  C6  1  0.69710000  0.16253000  0.09703000  1
  C  C7  1  0.79113000  0.16418000  0.06577000  1
  C  C8  1  0.83813000  0.16501000  0.96702000  1
  C  C9  1  0.79109000  0.16418000  0.89953000  1
  C  C10  1  0.65010000  0.16170000  0.19578000  1
  C  C11  1  0.69713000  0.16253000  0.26326000  1
  C  C12  1  0.79116000  0.16418000  0.23200000  1
  C  C13  1  0.83816000  0.16501000  0.13325000  1
  C  C14  1  0.83820000  0.16501000  0.29948000  1
  C  C15  1  0.93222000  0.16666000  0.26822000  1
  C  C16  1  0.93219000  0.16666000  0.10199000  1
  C  C17  1  0.07929000  0.16924000  0.13620000  1
  C  C18  1  0.97922000  0.16748000  0.16947000  1
  C  C19  1  0.40893000  0.15747000  0.02660000  1
  C  C20  1  0.50901000  0.15923000  0.99333000  1
  C  C21  1  0.24492000  0.70671000  0.99801000  1
  C  C22  1  0.24328000  0.61999000  0.99856000  1
  C  C23  1  0.24330000  0.62000000  0.16479000  1
  C  C24  1  0.24496000  0.70672000  0.16424000  1
  C  C25  1  0.24576000  0.75008000  0.08085000  1
  C  C26  1  0.24246000  0.57663000  0.08195000  1
  C  C27  1  0.24068000  0.48260000  0.08255000  1
  C  C28  1  0.24755000  0.84411000  0.08025000  1
  C  C29  1  0.24322000  0.61423000  0.33261000  1
  C  C30  1  0.24501000  0.71248000  0.83018000  1
  C  C31  1  0.25073000  0.01136000  0.07919000  1
  C  C32  1  0.24897000  0.91906000  0.07977000  1
  C  C33  1  0.23750000  0.31535000  0.08360000  1
  C  C34  1  0.23926000  0.40765000  0.08302000  1
  C  C35  1  0.18293000  0.21992000  0.64972000  1
  C  C36  1  0.18295000  0.21992000  0.55373000  1
  C  C37  1  0.30530000  0.10679000  0.51308000  1
  C  C38  1  0.30529000  0.10679000  0.60907000  1
  C  C39  1  0.24410000  0.16336000  0.67738000  1
  C  C40  1  0.24412000  0.16335000  0.48541000  1
  C  C41  1  0.24414000  0.16335000  0.38134000  1
  C  C42  1  0.24409000  0.16336000  0.78146000  1
  N  N1  1  0.97850000  0.21305000  0.02082000  1
  N  N2  1  0.64524000  0.16149000  0.36375000  1
  N  N3  1  0.50985000  0.11329000  0.14174000  1
  N  N4  1  0.84377000  0.15829000  0.79899000  1
  N  N5  1  0.24408000  0.16336000  0.86441000  1
  N  N6  1  0.24415000  0.16335000  0.29838000  1
  O  O1  1  0.11286000  0.16983000  0.04521000  1
  O  O2  1  0.11289000  0.16983000  0.20485000  1
  O  O3  1  0.37536000  0.15688000  0.11759000  1
  O  O4  1  0.37533000  0.15689000  0.95794000  1
  O  O5  1  0.24241000  0.57248000  0.24657000  1
  O  O6  1  0.24582000  0.75423000  0.91623000  1
  O  O7  1  0.25134000  0.04233000  0.15882000  1
  O  O8  1  0.25131000  0.04233000  0.99917000  1
  O  O9  1  0.23690000  0.28438000  0.00397000  1
  O  O10  1  0.23691000  0.28438000  0.16363000  1
  F  F1  1  0.12332000  0.27504000  0.71526000  1
  F  F2  1  0.36527000  0.05135000  0.44817000  1
