# Generated by REPEAT Assigner based on pymatgen
data_DB6-cuf_6333
_audit_creation_date              2022-05-24
_audit_creation_method            REPEAT_Assigner
_cell_length_a                    15.995300
_cell_length_b                    14.853500
_cell_length_c                    13.448300
_cell_angle_alpha                 90.000000
_cell_angle_beta                  90.013700
_cell_angle_gamma                 83.554600
_cell_volume                      3174.934728
_symmetry_space_group_name_H-M    P1
_symmetry_Int_Tables_number       1
loop_
    _symmetry_equiv_pos_site_id
    _symmetry_equiv_pos_as_xyz
    1  x,y,z
loop_
    _atom_site_type_symbol
    _atom_site_label
    _atom_site_fract_x
    _atom_site_fract_y
    _atom_site_fract_z
    _atom_type_partial_charge
    Cu  Cu1  0.204710  0.146600  0.038380  0.658694
    Cu  Cu2  0.204740  0.146590  0.233970  0.628104
    C   C1   0.620940  0.145000  0.136180  0.321543
    C   C2   0.656270  0.146010  0.027240  0.262669
    C   C3   0.752990  0.147510  0.027180  0.129127
    C   C4   0.788500  0.148180  0.136170  0.269709
    C   C5   0.763780  0.061480  0.190270  0.153884
    C   C6   0.667070  0.059570  0.189570  0.124083
    C   C7   0.646340  0.230910  0.191810  0.169118
    C   C8   0.742920  0.233880  0.189770  0.083695
    C   C9   0.883200  0.149980  0.136160  -0.022830
    C   C10  0.526240  0.143200  0.136190  -0.023555
    N   N1   0.629740  0.044370  0.287440  -0.817158
    H   H1   0.652800  0.980170  0.313840  0.315499
    H   H2   0.642700  0.092560  0.339860  0.266806
    N   N2   0.802860  0.051280  0.289390  -0.803898
    H   H3   0.795580  0.987180  0.318010  0.310351
    H   H4   0.776730  0.100140  0.339430  0.257330
    N   N3   0.597100  0.313650  0.154040  -0.838319
    H   H5   0.599710  0.366320  0.205130  0.335230
    H   H6   0.620050  0.333850  0.085780  0.298570
    N   N4   0.766210  0.318570  0.145950  -0.941484
    H   H7   0.740170  0.372870  0.189530  0.332180
    H   H8   0.830810  0.321100  0.154140  0.344765
    N   N5   0.627810  0.073070  0.966060  -0.921021
    H   H9   0.640540  0.085670  0.891410  0.351381
    H   H10  0.659900  0.010130  0.984060  0.310636
    N   N6   0.797290  0.078540  0.961390  -0.867636
    H   H11  0.857790  0.095320  0.946450  0.337610
    H   H12  0.803290  0.014160  0.993070  0.268328
    H   H13  0.769290  0.209630  0.984730  0.059391
    H   H14  0.625570  0.207270  0.984470  0.062277
    H   H15  0.652250  0.994830  0.151120  0.061982
    H   H16  0.795700  0.997910  0.152700  0.042567
    H   H17  0.766470  0.239540  0.269280  0.026320
    H   H18  0.623400  0.231050  0.272070  0.068266
    C   C11  0.051650  0.153190  0.136160  0.912722
    C   C12  0.958690  0.151420  0.136150  -0.412859
    O   O1   0.082830  0.153790  0.049580  -0.574055
    O   O2   0.082850  0.153780  0.222750  -0.544775
    C   C13  0.357800  0.140000  0.136190  0.913184
    C   C14  0.450750  0.141770  0.136200  -0.414346
    O   O3   0.326650  0.139130  0.222770  -0.561907
    O   O4   0.326560  0.139670  0.049610  -0.555065
    C   C15  0.201400  0.458520  0.226340  -0.091316
    C   C16  0.201380  0.458520  0.046030  -0.115319
    C   C17  0.203050  0.552550  0.046020  0.013033
    C   C18  0.203890  0.599570  0.136180  -0.029270
    C   C19  0.203070  0.552560  0.226330  -0.004488
    C   C20  0.203860  0.599580  0.955870  0.144728
    C   C21  0.205530  0.693610  0.955860  0.131805
    C   C22  0.206380  0.740630  0.046010  0.001945
    C   C23  0.205560  0.693610  0.136180  -0.033221
    C   C24  0.206400  0.740630  0.226330  -0.008181
    C   C25  0.205590  0.693610  0.316490  0.157101
    C   C26  0.203920  0.599580  0.316490  0.139100
    C   C27  0.208040  0.834660  0.046020  -0.078315
    C   C28  0.208070  0.834670  0.226330  -0.070548
    F   F1   0.203080  0.555250  0.867590  -0.152856
    F   F2   0.206300  0.737950  0.867600  -0.143990
    F   F3   0.206370  0.737930  0.404760  -0.158429
    F   F4   0.203150  0.555230  0.404760  -0.151778
    H   H19  0.208750  0.872940  0.299740  0.089933
    H   H20  0.200740  0.420240  0.299740  0.108091
    H   H21  0.200700  0.420240  0.972620  0.118286
    H   H22  0.208700  0.872940  0.972610  0.102090
    C   C29  0.210650  0.981760  0.136170  0.501532
    C   C30  0.208890  0.881680  0.136170  -0.056224
    O   O5   0.211260  0.015350  0.222760  -0.433140
    O   O6   0.211230  0.015350  0.049590  -0.462478
    C   C31  0.198790  0.311420  0.136180  0.475754
    C   C32  0.200560  0.411500  0.136180  -0.039537
    O   O7   0.198200  0.277840  0.049600  -0.415598
    O   O8   0.198200  0.277840  0.222760  -0.429262
    C   C33  0.147960  0.208010  0.848750  0.422801
    C   C34  0.147980  0.208010  0.744640  -0.387536
    C   C35  0.204720  0.146600  0.692610  0.053267
    C   C36  0.261460  0.085190  0.744690  0.202546
    C   C37  0.261450  0.085190  0.848800  -0.173863
    C   C38  0.261480  0.085180  0.527710  0.153429
    C   C39  0.261490  0.085180  0.423610  -0.153189
    C   C40  0.148000  0.208000  0.423560  0.429476
    C   C41  0.147990  0.208010  0.527660  -0.403343
    C   C42  0.204730  0.146590  0.579740  0.088377
    N   N7   0.089700  0.270110  0.369870  -0.727733
    H   H23  0.089630  0.270830  0.292160  0.315072
    H   H24  0.046080  0.315690  0.407180  0.327310
    N   N8   0.090610  0.271080  0.902420  -0.726887
    H   H25  0.089900  0.271220  0.980050  0.315391
    H   H26  0.048460  0.318250  0.865080  0.329486
    N   N9   0.281740  0.994000  0.563250  -0.581357
    H   H27  0.240440  0.964210  0.610010  0.277028
    H   H28  0.331470  0.951410  0.532330  0.285205
    N   N10  0.346080  0.062840  0.709170  -0.633082
    H   H29  0.385370  0.009090  0.740190  0.291542
    H   H30  0.373990  0.107120  0.662480  0.295069
    H   H31  0.101780  0.258030  0.702260  0.167170
    H   H32  0.101780  0.258010  0.570030  0.173579
    H   H33  0.307690  0.035170  0.381250  0.173918
    H   H34  0.307650  0.035180  0.891180  0.185082
    N   N11  0.204700  0.146600  0.900820  -0.093881
    N   N12  0.204750  0.146580  0.371530  -0.091440
