# Generated by REPEAT Assigner based on pymatgen
data_DB6-cuf_8009
_audit_creation_date              2022-05-24
_audit_creation_method            REPEAT_Assigner
_cell_length_a                    12.811400
_cell_length_b                    19.188900
_cell_length_c                    14.472300
_cell_angle_alpha                 90.001700
_cell_angle_beta                  95.437000
_cell_angle_gamma                 83.594000
_cell_volume                      3519.501306
_symmetry_space_group_name_H-M    P1
_symmetry_Int_Tables_number       1
loop_
    _symmetry_equiv_pos_site_id
    _symmetry_equiv_pos_as_xyz
    1  x,y,z
loop_
    _atom_site_type_symbol
    _atom_site_label
    _atom_site_fract_x
    _atom_site_fract_y
    _atom_site_fract_z
    _atom_type_partial_charge
    Cu  Cu1  0.150860  0.159420  0.087400  0.789773
    Cu  Cu2  0.150870  0.159430  0.269150  0.809134
    C   C1   0.623510  0.159040  0.301650  0.250319
    C   C2   0.514040  0.157420  0.292480  -0.239034
    C   C3   0.514020  0.157400  0.124920  -0.191527
    C   C4   0.623490  0.159020  0.134090  0.036516
    C   C5   0.678230  0.159840  0.222460  0.002281
    C   C6   0.787710  0.161450  0.231630  -0.149332
    C   C7   0.787680  0.161430  0.064070  -0.200929
    C   C8   0.678210  0.159820  0.054900  0.221455
    O   O1   0.682470  0.159910  0.389460  -0.264961
    C   C9   0.628920  0.159120  0.471550  0.047870
    H   H1   0.570680  0.206430  0.473920  0.052314
    H   H2   0.687650  0.159990  0.532860  0.011604
    H   H3   0.590030  0.110430  0.475550  0.051839
    O   O2   0.619250  0.158950  0.967090  -0.258119
    C   C10  0.672810  0.159730  0.885000  0.016115
    H   H4   0.614080  0.158860  0.823690  0.043331
    H   H5   0.731040  0.112420  0.882630  0.056489
    H   H6   0.711700  0.208420  0.881000  0.057588
    H   H7   0.832280  0.162110  0.303580  0.084219
    H   H8   0.469490  0.156780  0.356970  0.121203
    H   H9   0.469430  0.156750  0.052980  0.105116
    H   H10  0.832250  0.162070  0.999590  0.107248
    C   C11  0.958950  0.163960  0.162190  0.598394
    C   C12  0.842440  0.162240  0.152430  -0.056313
    O   O3   0.998040  0.164540  0.085010  -0.502955
    O   O4   0.998050  0.164550  0.245930  -0.474590
    C   C13  0.342780  0.154890  0.194360  0.611694
    C   C14  0.459290  0.156610  0.204120  -0.025197
    O   O5   0.303690  0.154320  0.271540  -0.506630
    O   O6   0.303680  0.154300  0.110620  -0.514531
    C   C15  0.156610  0.917870  0.262540  -0.193196
    C   C16  0.154990  0.845040  0.262410  0.403234
    C   C17  0.154180  0.808630  0.178560  -0.541141
    C   C18  0.154970  0.845050  0.094850  -0.154963
    C   C19  0.156580  0.917880  0.094990  0.362143
    N   N1   0.211370  0.689250  0.120990  -0.365445
    N   N2   0.209840  0.620070  0.120870  -0.375306
    C   C20  0.149320  0.589190  0.178140  0.997373
    N   N3   0.090400  0.630120  0.235550  -0.357870
    N   N4   0.091930  0.699310  0.235680  -0.361226
    C   C21  0.152430  0.729650  0.178400  1.002881
    C   C22  0.146770  0.473810  0.261690  0.420037
    C   C23  0.145140  0.400980  0.261550  -0.242460
    C   C24  0.145120  0.400980  0.094000  0.342835
    C   C25  0.146740  0.473810  0.094140  -0.142411
    C   C26  0.147570  0.510220  0.177990  -0.545496
    F   F1   0.155590  0.810580  0.344340  -0.202761
    F   F2   0.157130  0.953180  0.013820  -0.210895
    F   F3   0.148900  0.508070  0.343730  -0.210786
    F   F4   0.144140  0.365740  0.012720  -0.216820
    H   H11  0.157270  0.947520  0.330820  0.146110
    H   H12  0.154310  0.815390  0.026580  0.130873
    H   H13  0.144490  0.371330  0.329710  0.164288
    H   H14  0.147390  0.503460  0.025980  0.128297
    C   C27  0.159120  0.031800  0.178980  0.582518
    C   C28  0.157410  0.954290  0.178840  -0.111797
    O   O7   0.159700  0.057820  0.259480  -0.489421
    O   O8   0.159690  0.057800  0.098570  -0.467443
    C   C29  0.142610  0.287050  0.177570  0.536373
    C   C30  0.144320  0.364560  0.177710  -0.056998
    O   O9   0.142030  0.261030  0.097070  -0.441788
    O   O10  0.142040  0.261050  0.257980  -0.486517
    C   C31  0.150870  0.159430  0.585480  0.434524
    C   C32  0.237450  0.102390  0.631940  0.212016
    C   C33  0.237220  0.102180  0.739010  0.078208
    C   C34  0.150860  0.159420  0.771070  0.251356
    C   C35  0.041340  0.143380  0.723000  0.040079
    C   C36  0.041850  0.142980  0.615920  0.106883
    C   C37  0.172830  0.232680  0.626810  0.099890
    C   C38  0.175310  0.232200  0.734140  0.094569
    C   C39  0.150850  0.159420  0.875960  0.080038
    C   C40  0.150870  0.159430  0.480590  0.003334
    N   N5   0.953110  0.186910  0.565180  -0.777403
    H   H15  0.882230  0.167450  0.576160  0.366014
    H   H16  0.948630  0.239160  0.585530  0.246449
    N   N6   0.954340  0.189800  0.757510  -0.730091
    H   H17  0.882220  0.171860  0.734870  0.286014
    H   H18  0.952850  0.241520  0.735000  0.253495
    N   N7   0.267440  0.255980  0.591360  -0.838798
    H   H19  0.267640  0.309940  0.601250  0.355607
    H   H20  0.336800  0.230320  0.625240  0.299947
    N   N8   0.275150  0.252620  0.779540  -0.931066
    H   H21  0.282990  0.303750  0.758630  0.334654
    H   H22  0.269660  0.257580  0.850800  0.379777
    N   N9   0.229950  0.032930  0.590170  -0.853612
    H   H23  0.298660  0.000090  0.611690  0.354170
    H   H24  0.166570  0.009620  0.611930  0.309502
    N   N10  0.235370  0.031640  0.778640  -0.868772
    H   H25  0.259280  0.031840  0.849740  0.370553
    H   H26  0.160410  0.015020  0.770410  0.291955
    H   H27  0.318630  0.111750  0.772130  0.101428
    H   H28  0.319140  0.111800  0.613040  0.067254
    H   H29  0.022490  0.089550  0.589310  0.061245
    H   H30  0.021500  0.090560  0.748170  0.080601
    H   H31  0.116340  0.276650  0.755950  0.051887
    H   H32  0.109690  0.275130  0.596160  0.099109
    N   N11  0.150850  0.159410  0.959570  -0.231455
    N   N12  0.150880  0.159440  0.396980  -0.211969
