# Generated by REPEAT Assigner based on pymatgen
data_DB6-cuf_9390
_audit_creation_date              2022-05-24
_audit_creation_method            REPEAT_Assigner
_cell_length_a                    15.944500
_cell_length_b                    14.971500
_cell_length_c                    11.295700
_cell_angle_alpha                 94.117500
_cell_angle_beta                  85.921400
_cell_angle_gamma                 83.553000
_cell_volume                      2663.920172
_symmetry_space_group_name_H-M    P1
_symmetry_Int_Tables_number       1
loop_
    _symmetry_equiv_pos_site_id
    _symmetry_equiv_pos_as_xyz
    1  x,y,z
loop_
    _atom_site_type_symbol
    _atom_site_label
    _atom_site_fract_x
    _atom_site_fract_y
    _atom_site_fract_z
    _atom_type_partial_charge
    Cu  Cu1  0.219880  0.146920  0.001040  0.654110
    Cu  Cu2  0.206570  0.161190  0.235250  0.676100
    C   C1   0.747520  0.147710  0.005370  0.168401
    C   C2   0.697500  0.076390  0.061730  0.364790
    C   C3   0.795690  0.155610  0.118140  0.149069
    C   C4   0.679550  0.223770  0.061760  0.365165
    C   C5   0.630770  0.152510  0.118150  0.030390
    C   C6   0.746900  0.084250  0.174500  0.172579
    C   C7   0.728960  0.231690  0.174510  0.144045
    C   C8   0.678960  0.160360  0.230960  0.294638
    C   C9   0.890690  0.157390  0.118130  -0.236870
    C   C10  0.535770  0.150720  0.118160  -0.047206
    N   N1   0.673260  0.990080  0.991950  -0.821937
    H   H1   0.641390  0.955020  0.054360  0.303823
    H   H2   0.731190  0.951330  0.966300  0.317760
    N   N2   0.777820  0.005920  0.227210  -0.827705
    H   H3   0.809580  0.032530  0.296850  0.337179
    H   H4   0.823750  0.968250  0.167460  0.275369
    N   N3   0.779060  0.138020  0.874960  -0.754217
    H   H5   0.811120  0.194530  0.864990  0.290132
    H   H6   0.824870  0.081740  0.864900  0.284220
    N   N4   0.636050  0.295820  0.992050  -0.802905
    H   H7   0.594250  0.336740  0.054110  0.294954
    H   H8   0.684620  0.333890  0.967570  0.305277
    N   N5   0.741580  0.312890  0.226240  -0.814541
    H   H9   0.683620  0.349510  0.257670  0.272050
    H   H10  0.773320  0.296430  0.300950  0.308874
    N   N6   0.634750  0.163710  0.344210  -0.744769
    H   H11  0.683010  0.170900  0.400840  0.261503
    H   H12  0.593400  0.223530  0.356760  0.266221
    C   C11  0.059660  0.160590  0.118130  0.847140
    C   C12  0.966410  0.158820  0.118120  -0.246946
    O   O1   0.096850  0.154860  0.014450  -0.608766
    O   O2   0.085060  0.167500  0.221810  -0.567641
    C   C13  0.366790  0.147530  0.118160  0.860491
    C   C14  0.460030  0.149300  0.118170  -0.317645
    O   O3   0.329600  0.153260  0.221840  -0.585231
    O   O4   0.341390  0.140610  0.014470  -0.571534
    C   C15  0.222740  0.838000  0.010180  0.315185
    C   C16  0.221090  0.744700  0.010180  -0.294263
    C   C17  0.214130  0.704640  0.118140  0.030615
    C   C18  0.208820  0.757880  0.226100  0.212364
    C   C19  0.210470  0.851170  0.226090  -0.180539
    C   C20  0.205370  0.563420  0.226100  0.226238
    C   C21  0.203710  0.470120  0.226110  -0.197160
    C   C22  0.215980  0.456950  0.010190  0.334258
    C   C23  0.217640  0.550250  0.010190  -0.303355
    C   C24  0.212330  0.603480  0.118150  0.031177
    F   F1   0.229930  0.876960  0.905700  -0.196122
    F   F2   0.237520  0.726690  0.327140  -0.158524
    F   F3   0.165170  0.606970  0.327120  -0.167384
    F   F4   0.220680  0.405270  0.905760  -0.202372
    H   H13  0.225420  0.701370  0.922270  0.171262
    H   H14  0.223300  0.582870  0.922280  0.167966
    H   H15  0.198040  0.437500  0.314020  0.153167
    H   H16  0.206140  0.894510  0.314010  0.146730
    C   C25  0.219190  0.990530  0.118140  0.580050
    C   C26  0.217430  0.891230  0.118130  -0.146360
    O   O5   0.213890  0.030170  0.221820  -0.495337
    O   O6   0.225680  0.017530  0.014460  -0.400484
    C   C27  0.207260  0.317590  0.118150  0.574535
    C   C28  0.209020  0.416880  0.118160  -0.155661
    O   O7   0.212560  0.277950  0.014470  -0.410865
    O   O8   0.200780  0.290590  0.221830  -0.466879
    C   C29  0.129620  0.243550  0.586960  0.485057
    C   C30  0.136720  0.235960  0.462300  -0.266459
    C   C31  0.250570  0.114100  0.462330  -0.089703
    C   C32  0.243470  0.121700  0.586990  -0.030309
    C   C33  0.182990  0.186420  0.649300  -0.119311
    C   C34  0.175880  0.194010  0.773960  -0.027358
    C   C35  0.289730  0.072160  0.773980  -0.194295
    C   C36  0.296840  0.064570  0.649320  0.410945
    N   N7   0.068450  0.313670  0.645350  -0.953767
    H   H17  0.074590  0.344180  0.729590  0.392507
    H   H18  0.021340  0.345060  0.597600  0.394518
    N   N8   0.362340  0.999050  0.590940  -0.902755
    H   H19  0.391580  0.948730  0.638680  0.390544
    H   H20  0.391090  0.005470  0.506720  0.370197
    H   H21  0.126630  0.246720  0.824700  0.139389
    H   H22  0.093260  0.282490  0.411550  0.182664
    H   H23  0.299810  0.061410  0.411580  0.164244
    H   H24  0.333190  0.025640  0.824750  0.178547
    N   N9   0.229260  0.136880  0.836310  -0.009451
    N   N10  0.197190  0.171230  0.399980  0.020189
