# generated using pymatgen
data_CuH14C21NO7F
_symmetry_space_group_name_H-M   'P 1'
_cell_length_a   10.65460000
_cell_length_b   16.10930000
_cell_length_c   14.18490000
_cell_angle_alpha   76.81390000
_cell_angle_beta   103.25900000
_cell_angle_gamma   83.97620000
_symmetry_Int_Tables_number   1
_chemical_formula_structural   CuH14C21NO7F
_chemical_formula_sum   'Cu2 H28 C42 N2 O14 F2'
_cell_volume   2275.29930392
_cell_formula_units_Z   2
loop_
 _symmetry_equiv_pos_site_id
 _symmetry_equiv_pos_as_xyz
  1  'x, y, z'
loop_
 _atom_site_type_symbol
 _atom_site_label
 _atom_site_symmetry_multiplicity
 _atom_site_fract_x
 _atom_site_fract_y
 _atom_site_fract_z
 _atom_site_occupancy
  Cu  Cu1  1  0.05849000  0.18020000  0.14388000  1
  Cu  Cu2  1  0.12578000  0.13589000  0.34120000  1
  H  H1  1  0.52959000  0.11892000  0.40755000  1
  H  H2  1  0.65469000  0.19719000  0.07751000  1
  H  H3  1  0.10196000  0.59080000  0.52537000  1
  H  H4  1  0.27465000  0.57683000  0.52536000  1
  H  H5  1  0.20394000  0.48666000  0.57787000  1
  H  H6  1  0.90964000  0.73926000  0.95972000  1
  H  H7  1  0.08232000  0.72530000  0.95972000  1
  H  H8  1  0.98034000  0.82944000  0.90721000  1
  H  H9  1  0.03381000  0.61643000  0.07753000  1
  H  H10  1  0.15050000  0.69967000  0.40757000  1
  H  H11  1  0.31187000  0.01070000  0.08779000  1
  H  H12  1  0.14429000  0.02773000  0.09182000  1
  H  H13  1  0.26768000  0.07663000  0.16296000  1
  H  H14  1  0.69039000  0.36103000  0.49224000  1
  H  H15  1  0.60006000  0.35218000  0.58600000  1
  H  H16  1  0.69895000  0.25754000  0.57941000  1
  H  H17  1  0.87254000  0.30598000  0.39827000  1
  H  H18  1  0.89501000  0.19525000  0.39309000  1
  H  H19  1  0.97066000  0.27570000  0.32229000  1
  H  H20  1  0.52169000  0.89208000  0.97259000  1
  H  H21  1  0.36116000  0.91564000  0.98840000  1
  H  H22  1  0.46286000  0.00043000  0.97401000  1
  H  H23  1  0.24229000  0.05912000  0.93310000  1
  H  H24  1  0.39599000  0.95789000  0.68029000  1
  H  H25  1  0.33104000  0.00068000  0.48976000  1
  H  H26  1  0.94198000  0.25697000  0.55199000  1
  H  H27  1  0.78830000  0.35820000  0.80479000  1
  H  H28  1  0.85323000  0.31542000  0.99533000  1
  C  C1  1  0.68865000  0.13877000  0.33350000  1
  C  C2  1  0.55765000  0.13647000  0.33349000  1
  C  C3  1  0.49564000  0.17733000  0.15158000  1
  C  C4  1  0.62663000  0.17963000  0.15159000  1
  C  C5  1  0.86254000  0.16279000  0.24255000  1
  C  C6  1  0.72313000  0.16034000  0.24255000  1
  C  C7  1  0.32174000  0.15330000  0.24254000  1
  C  C8  1  0.46115000  0.15575000  0.24253000  1
  C  C9  1  0.06227000  0.72184000  0.15159000  1
  C  C10  1  0.05998000  0.63510000  0.15159000  1
  C  C11  1  0.12201000  0.59426000  0.33350000  1
  C  C12  1  0.12431000  0.68100000  0.33350000  1
  C  C13  1  0.09443000  0.74478000  0.24254000  1
  C  C14  1  0.08984000  0.57131000  0.24255000  1
  C  C15  1  0.08736000  0.47727000  0.24255000  1
  C  C16  1  0.09692000  0.83883000  0.24253000  1
  C  C17  1  0.18447000  0.54726000  0.51711000  1
  C  C18  1  0.99982000  0.76884000  0.96798000  1
  C  C19  1  0.10135000  0.00610000  0.24253000  1
  C  C20  1  0.09890000  0.91379000  0.24253000  1
  C  C21  1  0.08292000  0.30999000  0.24255000  1
  C  C22  1  0.08538000  0.40230000  0.24255000  1
  C  C23  1  0.31202000  0.01321000  0.63754000  1
  C  C24  1  0.27621000  0.03681000  0.53251000  1
  C  C25  1  0.10577000  0.14908000  0.53249000  1
  C  C26  1  0.14157000  0.12549000  0.63753000  1
  C  C27  1  0.24469000  0.05756000  0.69004000  1
  C  C28  1  0.07425000  0.16984000  0.69003000  1
  C  C29  1  0.11004000  0.14626000  0.79505000  1
  C  C30  1  0.21316000  0.07832000  0.84758000  1
  C  C31  1  0.28049000  0.03397000  0.79507000  1
  C  C32  1  0.97112000  0.23777000  0.63751000  1
  C  C33  1  0.90379000  0.28212000  0.69001000  1
  C  C34  1  0.93959000  0.25854000  0.79504000  1
  C  C35  1  0.04271000  0.19061000  0.84757000  1
  C  C36  1  0.87226000  0.30289000  0.84755000  1
  C  C37  1  0.90805000  0.27930000  0.95258000  1
  C  C38  1  0.07850000  0.16702000  0.95259000  1
  C  C39  1  0.23255000  0.05902000  0.09146000  1
  C  C40  1  0.69299000  0.32839000  0.57071000  1
  C  C41  1  0.94418000  0.25279000  0.39385000  1
  C  C42  1  0.43361000  0.94260000  0.95022000  1
  N  N1  1  0.01118000  0.21137000  0.00509000  1
  N  N2  1  0.17310000  0.10472000  0.47999000  1
  O  O1  1  0.87953000  0.18323000  0.15519000  1
  O  O2  1  0.93911000  0.14399000  0.32990000  1
  O  O3  1  0.30475000  0.13286000  0.32989000  1
  O  O4  1  0.24517000  0.17210000  0.15519000  1
  O  O5  1  0.15115000  0.52672000  0.42266000  1
  O  O6  1  0.03313000  0.78938000  0.06243000  1
  O  O7  1  0.13197000  0.01746000  0.32989000  1
  O  O8  1  0.07239000  0.05669000  0.15518000  1
  O  O9  1  0.05233000  0.29863000  0.15520000  1
  O  O10  1  0.11188000  0.25940000  0.32990000  1
  O  O11  1  0.20986000  0.13382000  0.00789000  1
  O  O12  1  0.79920000  0.34994000  0.63779000  1
  O  O13  1  0.05808000  0.23627000  0.47728000  1
  O  O14  1  0.38262000  0.96286000  0.84399000  1
  F  F1  1  0.78229000  0.12001000  0.42138000  1
  F  F2  1  0.40191000  0.19617000  0.06369000  1
