# generated using pymatgen
data_CuH21C23N4O7
_symmetry_space_group_name_H-M   'P 1'
_cell_length_a   15.99530000
_cell_length_b   14.85350000
_cell_length_c   14.58630000
_cell_angle_alpha   90.00120000
_cell_angle_beta   90.01520000
_cell_angle_gamma   83.55460000
_symmetry_Int_Tables_number   1
_chemical_formula_structural   CuH21C23N4O7
_chemical_formula_sum   'Cu2 H42 C46 N8 O14'
_cell_volume   3443.59882914
_cell_formula_units_Z   2
loop_
 _symmetry_equiv_pos_site_id
 _symmetry_equiv_pos_as_xyz
  1  'x, y, z'
loop_
 _atom_site_type_symbol
 _atom_site_label
 _atom_site_symmetry_multiplicity
 _atom_site_fract_x
 _atom_site_fract_y
 _atom_site_fract_z
 _atom_site_occupancy
  Cu  Cu1  1  0.18604000  0.20535000  0.00715000  1
  Cu  Cu2  1  0.18607000  0.20535000  0.18747000  1
  H  H1  1  0.63414000  0.03894000  0.26111000  1
  H  H2  1  0.62404000  0.15132000  0.28510000  1
  H  H3  1  0.77692000  0.04594000  0.26496000  1
  H  H4  1  0.75806000  0.15890000  0.28471000  1
  H  H5  1  0.58104000  0.42508000  0.16088000  1
  H  H6  1  0.60138000  0.39260000  0.05085000  1
  H  H7  1  0.72150000  0.43163000  0.14650000  1
  H  H8  1  0.81214000  0.37985000  0.11387000  1
  H  H9  1  0.62186000  0.14443000  0.87163000  1
  H  H10  1  0.64123000  0.06889000  0.95706000  1
  H  H11  1  0.83912000  0.15407000  0.92239000  1
  H  H12  1  0.78463000  0.07291000  0.96537000  1
  H  H13  1  0.75062000  0.26839000  0.95768000  1
  H  H14  1  0.60690000  0.26603000  0.95744000  1
  H  H15  1  0.63359000  0.05359000  0.11108000  1
  H  H16  1  0.77704000  0.05667000  0.11254000  1
  H  H17  1  0.74781000  0.29830000  0.22003000  1
  H  H18  1  0.60474000  0.28981000  0.22260000  1
  H  H19  1  0.08540000  0.87321000  0.41109000  1
  H  H20  1  0.12601000  0.76924000  0.46676000  1
  H  H21  1  0.06188000  0.76650000  0.36495000  1
  H  H22  1  0.28682000  0.53755000  0.41110000  1
  H  H23  1  0.24629000  0.64144000  0.46677000  1
  H  H24  1  0.31033000  0.64419000  0.36497000  1
  H  H25  1  0.12589000  0.76919000  0.72785000  1
  H  H26  1  0.08529000  0.87316000  0.78352000  1
  H  H27  1  0.06179000  0.76651000  0.82965000  1
  H  H28  1  0.28671000  0.53750000  0.78353000  1
  H  H29  1  0.31024000  0.64421000  0.82967000  1
  H  H30  1  0.24610000  0.64147000  0.72786000  1
  H  H31  1  0.19009000  0.93170000  0.24812000  1
  H  H32  1  0.18208000  0.47900000  0.24812000  1
  H  H33  1  0.18203000  0.47900000  0.94652000  1
  H  H34  1  0.19003000  0.93170000  0.94650000  1
  H  H35  1  0.32402000  0.97322000  0.58549000  1
  H  H36  1  0.40097000  0.05556000  0.58551000  1
  H  H37  1  0.39526000  0.97893000  0.49104000  1
  H  H38  1  0.97115000  0.35514000  0.60911000  1
  H  H39  1  0.04810000  0.43748000  0.60914000  1
  H  H40  1  0.97686000  0.43177000  0.70359000  1
  H  H41  1  0.08313000  0.31678000  0.51022000  1
  H  H42  1  0.28900000  0.09392000  0.68441000  1
  C  C1  1  0.60228000  0.20376000  0.09732000  1
  C  C2  1  0.63760000  0.20477000  0.99687000  1
  C  C3  1  0.73432000  0.20627000  0.99681000  1
  C  C4  1  0.76984000  0.20694000  0.09730000  1
  C  C5  1  0.74511000  0.12024000  0.14718000  1
  C  C6  1  0.64841000  0.11833000  0.14654000  1
  C  C7  1  0.62767000  0.28966000  0.14860000  1
  C  C8  1  0.72426000  0.29264000  0.14672000  1
  C  C9  1  0.86454000  0.20874000  0.09730000  1
  C  C10  1  0.50758000  0.20196000  0.09732000  1
  C  C11  1  0.03298000  0.21195000  0.09730000  1
  C  C12  1  0.94003000  0.21017000  0.09729000  1
  C  C13  1  0.33914000  0.19875000  0.09732000  1
  C  C14  1  0.43209000  0.20053000  0.09733000  1
  C  C15  1  0.18274000  0.51728000  0.18043000  1
  C  C16  1  0.18271000  0.51728000  0.01419000  1
  C  C17  1  0.18438000  0.61131000  0.01419000  1
  C  C18  1  0.18523000  0.65833000  0.09731000  1
  C  C19  1  0.18441000  0.61132000  0.18043000  1
  C  C20  1  0.18519000  0.65833000  0.93107000  1
  C  C21  1  0.18686000  0.75237000  0.93106000  1
  C  C22  1  0.18771000  0.79939000  0.01418000  1
  C  C23  1  0.18689000  0.75237000  0.09731000  1
  C  C24  1  0.18774000  0.79939000  0.18043000  1
  C  C25  1  0.18692000  0.75237000  0.26356000  1
  C  C26  1  0.18526000  0.65834000  0.26355000  1
  C  C27  1  0.18938000  0.89342000  0.01418000  1
  C  C28  1  0.18940000  0.89343000  0.18043000  1
  C  C29  1  0.11125000  0.80169000  0.39930000  1
  C  C30  1  0.26096000  0.60907000  0.39931000  1
  C  C31  1  0.11115000  0.80164000  0.79531000  1
  C  C32  1  0.26086000  0.60902000  0.79532000  1
  C  C33  1  0.19199000  0.04052000  0.09731000  1
  C  C34  1  0.19022000  0.94044000  0.09730000  1
  C  C35  1  0.18013000  0.37018000  0.09731000  1
  C  C36  1  0.18189000  0.47026000  0.09732000  1
  C  C37  1  0.12932000  0.26676000  0.64528000  1
  C  C38  1  0.12933000  0.26676000  0.54930000  1
  C  C39  1  0.24281000  0.14393000  0.54934000  1
  C  C40  1  0.24280000  0.14394000  0.64532000  1
  C  C41  1  0.18605000  0.20535000  0.69329000  1
  C  C42  1  0.18607000  0.20535000  0.50133000  1
  C  C43  1  0.18608000  0.20535000  0.39726000  1
  C  C44  1  0.18604000  0.20535000  0.79736000  1
  C  C45  1  0.35735000  0.01996000  0.54299000  1
  C  C46  1  0.01477000  0.39074000  0.65163000  1
  N  N1  1  0.61108000  0.10313000  0.23677000  1
  N  N2  1  0.78420000  0.11004000  0.23857000  1
  N  N3  1  0.57844000  0.37241000  0.11378000  1
  N  N4  1  0.74754000  0.37733000  0.10632000  1
  N  N5  1  0.60914000  0.13183000  0.94047000  1
  N  N6  1  0.77862000  0.13730000  0.93616000  1
  N  N7  1  0.18603000  0.20535000  0.88031000  1
  N  N8  1  0.18609000  0.20535000  0.31430000  1
  O  O1  1  0.06416000  0.21254000  0.01747000  1
  O  O2  1  0.06419000  0.21254000  0.17713000  1
  O  O3  1  0.30799000  0.19789000  0.17715000  1
  O  O4  1  0.30790000  0.19843000  0.01749000  1
  O  O5  1  0.18695000  0.80004000  0.34672000  1
  O  O6  1  0.18525000  0.61066000  0.34672000  1
  O  O7  1  0.18687000  0.80005000  0.84790000  1
  O  O8  1  0.18516000  0.61067000  0.84789000  1
  O  O9  1  0.19259000  0.07410000  0.17713000  1
  O  O10  1  0.19257000  0.07411000  0.01748000  1
  O  O11  1  0.17953000  0.33659000  0.01748000  1
  O  O12  1  0.17954000  0.33659000  0.17714000  1
  O  O13  1  0.29843000  0.08373000  0.49677000  1
  O  O14  1  0.07369000  0.32697000  0.69785000  1
