# generated using pymatgen
data_CuH17C24N4(O3F)2
_symmetry_space_group_name_H-M   'P 1'
_cell_length_a   15.94450000
_cell_length_b   14.97150000
_cell_length_c   14.18490000
_cell_angle_alpha   76.79450000
_cell_angle_beta   103.13400000
_cell_angle_gamma   83.55300000
_symmetry_Int_Tables_number   1
_chemical_formula_structural   CuH17C24N4(O3F)2
_chemical_formula_sum   'Cu2 H34 C48 N8 O12 F4'
_cell_volume   3161.83803218
_cell_formula_units_Z   2
loop_
 _symmetry_equiv_pos_site_id
 _symmetry_equiv_pos_as_xyz
  1  'x, y, z'
loop_
 _atom_site_type_symbol
 _atom_site_label
 _atom_site_symmetry_multiplicity
 _atom_site_fract_x
 _atom_site_fract_y
 _atom_site_fract_z
 _atom_site_occupancy
  Cu  Cu1  1  0.13945000  0.21611000  0.03548000  1
  Cu  Cu2  1  0.18440000  0.16801000  0.23281000  1
  H  H1  1  0.57423000  0.01001000  0.08041000  1
  H  H2  1  0.64212000  0.02976000  0.00622000  1
  H  H3  1  0.80274000  0.02294000  0.28471000  1
  H  H4  1  0.78472000  0.99312000  0.17570000  1
  H  H5  1  0.69685000  0.29994000  0.92086000  1
  H  H6  1  0.71057000  0.18718000  0.92078000  1
  H  H7  1  0.52702000  0.39179000  0.08019000  1
  H  H8  1  0.59586000  0.41199000  0.00728000  1
  H  H9  1  0.66704000  0.35035000  0.25170000  1
  H  H10  1  0.76750000  0.28575000  0.28817000  1
  H  H11  1  0.70204000  0.13362000  0.37233000  1
  H  H12  1  0.60147000  0.19799000  0.33519000  1
  H  H13  1  0.08547000  0.52349000  0.79909000  1
  H  H14  1  0.15657000  0.59455000  0.85169000  1
  H  H15  1  0.04011000  0.61273000  0.84785000  1
  H  H16  1  0.15364000  0.91144000  0.84810000  1
  H  H17  1  0.08628000  0.02468000  0.79941000  1
  H  H18  1  0.03892000  0.92796000  0.85162000  1
  H  H19  1  0.19552000  0.65825000  0.46161000  1
  H  H20  1  0.16711000  0.78267000  0.42343000  1
  H  H21  1  0.27132000  0.72486000  0.41458000  1
  H  H22  1  0.33690000  0.56682000  0.22133000  1
  H  H23  1  0.35589000  0.63950000  0.30686000  1
  H  H24  1  0.37612000  0.51462000  0.35449000  1
  H  H25  1  0.12540000  0.79153000  0.96912000  1
  H  H26  1  0.12328000  0.67302000  0.96912000  1
  H  H27  1  0.19547000  0.42334000  0.29918000  1
  H  H28  1  0.20357000  0.88035000  0.29916000  1
  H  H29  1  0.26223000  0.08469000  0.82471000  1
  H  H30  1  0.36490000  0.97483000  0.57192000  1
  H  H31  1  0.32151000  0.02127000  0.38138000  1
  H  H32  1  0.06162000  0.29942000  0.44359000  1
  H  H33  1  0.95896000  0.40929000  0.69637000  1
  H  H34  1  0.00234000  0.36285000  0.88691000  1
  C  C1  1  0.66816000  0.21574000  0.03913000  1
  C  C2  1  0.63217000  0.12941000  0.08661000  1
  C  C3  1  0.74439000  0.19361000  0.13414000  1
  C  C4  1  0.61423000  0.27678000  0.08664000  1
  C  C5  1  0.57947000  0.19051000  0.13415000  1
  C  C6  1  0.70963000  0.10724000  0.18162000  1
  C  C7  1  0.69168000  0.25468000  0.18164000  1
  C  C8  1  0.65573000  0.16832000  0.22919000  1
  C  C9  1  0.83939000  0.19540000  0.13413000  1
  C  C10  1  0.48448000  0.18871000  0.13416000  1
  C  C11  1  0.00836000  0.19859000  0.13413000  1
  C  C12  1  0.91511000  0.19683000  0.13412000  1
  C  C13  1  0.31549000  0.18552000  0.13416000  1
  C  C14  1  0.40874000  0.18729000  0.13417000  1
  C  C15  1  0.14458000  0.90475000  0.04318000  1
  C  C16  1  0.14293000  0.81145000  0.04318000  1
  C  C17  1  0.16283000  0.74264000  0.13414000  1
  C  C18  1  0.18438000  0.76713000  0.22510000  1
  C  C19  1  0.18603000  0.86043000  0.22510000  1
  C  C20  1  0.18093000  0.57267000  0.22510000  1
  C  C21  1  0.17927000  0.47937000  0.22511000  1
  C  C22  1  0.13783000  0.52370000  0.04319000  1
  C  C23  1  0.13948000  0.61699000  0.04319000  1
  C  C24  1  0.16103000  0.64148000  0.13415000  1
  C  C25  1  0.09912000  0.56042000  0.85888000  1
  C  C26  1  0.09970000  0.95853000  0.85905000  1
  C  C27  1  0.20075000  0.72163000  0.40625000  1
  C  C28  1  0.33243000  0.57452000  0.29635000  1
  C  C29  1  0.16789000  0.02853000  0.13414000  1
  C  C30  1  0.16613000  0.92924000  0.13413000  1
  C  C31  1  0.15596000  0.35559000  0.13415000  1
  C  C32  1  0.15773000  0.45488000  0.13416000  1
  C  C33  1  0.30881000  0.03487000  0.52916000  1
  C  C34  1  0.28489000  0.06047000  0.42412000  1
  C  C35  1  0.17103000  0.18232000  0.42410000  1
  C  C36  1  0.19495000  0.15673000  0.52913000  1
  C  C37  1  0.26383000  0.08300000  0.58166000  1
  C  C38  1  0.14998000  0.20486000  0.58163000  1
  C  C39  1  0.17388000  0.17926000  0.68666000  1
  C  C40  1  0.24277000  0.10553000  0.73919000  1
  C  C41  1  0.28774000  0.05740000  0.68669000  1
  C  C42  1  0.08108000  0.27858000  0.52911000  1
  C  C43  1  0.03611000  0.32672000  0.58160000  1
  C  C44  1  0.06003000  0.30112000  0.68663000  1
  C  C45  1  0.12891000  0.22740000  0.73917000  1
  C  C46  1  0.01505000  0.34926000  0.73914000  1
  C  C47  1  0.03896000  0.32366000  0.84417000  1
  C  C48  1  0.15282000  0.20180000  0.84419000  1
  N  N1  1  0.59057000  0.06169000  0.02782000  1
  N  N2  1  0.75365000  0.01487000  0.22603000  1
  N  N3  1  0.66727000  0.24077000  0.92926000  1
  N  N4  1  0.55338000  0.36740000  0.02791000  1
  N  N5  1  0.71717000  0.32210000  0.22522000  1
  N  N6  1  0.63969000  0.14152000  0.32461000  1
  N  N7  1  0.10784000  0.24993000  0.89669000  1
  N  N8  1  0.21601000  0.13419000  0.37160000  1
  O  O1  1  0.01975000  0.22048000  0.04678000  1
  O  O2  1  0.05955000  0.17790000  0.22149000  1
  O  O3  1  0.30410000  0.16364000  0.22151000  1
  O  O4  1  0.26430000  0.20622000  0.04680000  1
  O  O5  1  0.11744000  0.49399000  0.95408000  1
  O  O6  1  0.12466000  0.97826000  0.95441000  1
  O  O7  1  0.15871000  0.71600000  0.30759000  1
  O  O8  1  0.24542000  0.57773000  0.30879000  1
  O  O9  1  0.18838000  0.04056000  0.22149000  1
  O  O10  1  0.14858000  0.08314000  0.04678000  1
  O  O11  1  0.13547000  0.34356000  0.04680000  1
  O  O12  1  0.17528000  0.30098000  0.22151000  1
  F  F1  1  0.35207000  0.98353000  0.73892000  1
  F  F2  1  0.96711000  0.39555000  0.52937000  1
  F  F3  1  0.12667000  0.26564000  0.36325000  1
  F  F4  1  0.23084000  0.15411000  0.90505000  1
