# generated using pymatgen
data_CuH14C23N5O5F2
_symmetry_space_group_name_H-M   'P 1'
_cell_length_a   15.62520000
_cell_length_b   12.81140000
_cell_length_c   17.66630000
_cell_angle_alpha   84.57030000
_cell_angle_beta   71.92220000
_cell_angle_gamma   82.44750000
_symmetry_Int_Tables_number   1
_chemical_formula_structural   CuH14C23N5O5F2
_chemical_formula_sum   'Cu2 H28 C46 N10 O10 F4'
_cell_volume   3327.27070703
_cell_formula_units_Z   2
loop_
 _symmetry_equiv_pos_site_id
 _symmetry_equiv_pos_as_xyz
  1  'x, y, z'
loop_
 _atom_site_type_symbol
 _atom_site_label
 _atom_site_symmetry_multiplicity
 _atom_site_fract_x
 _atom_site_fract_y
 _atom_site_fract_z
 _atom_site_occupancy
  Cu  Cu1  1  0.20991000  0.15060000  0.05552000  1
  Cu  Cu2  1  0.20993000  0.15061000  0.20440000  1
  H  H1  1  0.91144000  0.28019000  0.05386000  1
  H  H2  1  0.01503000  0.20130000  0.05190000  1
  H  H3  1  0.63772000  0.11566000  0.40849000  1
  H  H4  1  0.54069000  0.16584000  0.38023000  1
  H  H5  1  0.40495000  0.09936000  0.20792000  1
  H  H6  1  0.50866000  0.02048000  0.20563000  1
  H  H7  1  0.87596000  0.16415000  0.87786000  1
  H  H8  1  0.78961000  0.10612000  0.85693000  1
  H  H9  1  0.88053000  0.15437000  0.01424000  1
  H  H10  1  0.65414000  0.14935000  0.88358000  1
  H  H11  1  0.48353000  0.14557000  0.93069000  1
  H  H12  1  0.53932000  0.14682000  0.24568000  1
  H  H13  1  0.76570000  0.15186000  0.37633000  1
  H  H14  1  0.93631000  0.15564000  0.32924000  1
  H  H15  1  0.27058000  0.57069000  0.87109000  1
  H  H16  1  0.21060000  0.68735000  0.83930000  1
  H  H17  1  0.14661000  0.58942000  0.90383000  1
  H  H18  1  0.20924000  0.61386000  0.42062000  1
  H  H19  1  0.14927000  0.73052000  0.38882000  1
  H  H20  1  0.27323000  0.71179000  0.35608000  1
  H  H21  1  0.21337000  0.83202000  0.02637000  1
  H  H22  1  0.20648000  0.46919000  0.98452000  1
  H  H23  1  0.20648000  0.46917000  0.23355000  1
  H  H24  1  0.21337000  0.83203000  0.27539000  1
  H  H25  1  0.32040000  0.02105000  0.92200000  1
  H  H26  1  0.09943000  0.28015000  0.82110000  1
  H  H27  1  0.32041000  0.02106000  0.29505000  1
  H  H28  1  0.09944000  0.28016000  0.48168000  1
  C  C1  1  0.61586000  0.14851000  0.95004000  1
  C  C2  1  0.52182000  0.14643000  0.97601000  1
  C  C3  1  0.52183000  0.14643000  0.11326000  1
  C  C4  1  0.61588000  0.14852000  0.08729000  1
  C  C5  1  0.66289000  0.14956000  0.00568000  1
  C  C6  1  0.66290000  0.14957000  0.14294000  1
  C  C7  1  0.75694000  0.15165000  0.11698000  1
  C  C8  1  0.80396000  0.15268000  0.03537000  1
  C  C9  1  0.75693000  0.15164000  0.97972000  1
  C  C10  1  0.61589000  0.14852000  0.22455000  1
  C  C11  1  0.66291000  0.14957000  0.28019000  1
  C  C12  1  0.75695000  0.15166000  0.25423000  1
  C  C13  1  0.80397000  0.15269000  0.17263000  1
  C  C14  1  0.80399000  0.15270000  0.30988000  1
  C  C15  1  0.89803000  0.15479000  0.28392000  1
  C  C16  1  0.89801000  0.15477000  0.14667000  1
  C  C17  1  0.04512000  0.15804000  0.17469000  1
  C  C18  1  0.94504000  0.15582000  0.20231000  1
  C  C19  1  0.37472000  0.14317000  0.08523000  1
  C  C20  1  0.47480000  0.14539000  0.05760000  1
  C  C21  1  0.20940000  0.62324000  0.02904000  1
  C  C22  1  0.20732000  0.51376000  0.03712000  1
  C  C23  1  0.20732000  0.51375000  0.17438000  1
  C  C24  1  0.20940000  0.62323000  0.16629000  1
  C  C25  1  0.21044000  0.67797000  0.09362000  1
  C  C26  1  0.21252000  0.78746000  0.08554000  1
  C  C27  1  0.21253000  0.78745000  0.22280000  1
  C  C28  1  0.21044000  0.67797000  0.23088000  1
  C  C29  1  0.20949000  0.62862000  0.88983000  1
  C  C30  1  0.21036000  0.67259000  0.37009000  1
  C  C31  1  0.21578000  0.95872000  0.14152000  1
  C  C32  1  0.21357000  0.84220000  0.15013000  1
  C  C33  1  0.20406000  0.34249000  0.11840000  1
  C  C34  1  0.20628000  0.45901000  0.10979000  1
  C  C35  1  0.27081000  0.07920000  0.89937000  1
  C  C36  1  0.27081000  0.07920000  0.82012000  1
  C  C37  1  0.20992000  0.15060000  0.79230000  1
  C  C38  1  0.14901000  0.22201000  0.84375000  1
  C  C39  1  0.14901000  0.22200000  0.92300000  1
  C  C40  1  0.20993000  0.15062000  0.55354000  1
  C  C41  1  0.20992000  0.15062000  0.70637000  1
  C  C42  1  0.27083000  0.07921000  0.41618000  1
  C  C43  1  0.27082000  0.07920000  0.33693000  1
  C  C44  1  0.14902000  0.22202000  0.36056000  1
  C  C45  1  0.14902000  0.22202000  0.43981000  1
  C  C46  1  0.20993000  0.15062000  0.46761000  1
  N  N1  1  0.94457000  0.21334000  0.07556000  1
  N  N2  1  0.61101000  0.14827000  0.36326000  1
  N  N3  1  0.47540000  0.08740000  0.18419000  1
  N  N4  1  0.80958000  0.14419000  0.89723000  1
  N  N5  1  0.19898000  0.24347000  0.66451000  1
  N  N6  1  0.19899000  0.24347000  0.58923000  1
  N  N7  1  0.22087000  0.05776000  0.59597000  1
  N  N8  1  0.22087000  0.05777000  0.67126000  1
  N  N9  1  0.20991000  0.15060000  0.95080000  1
  N  N10  1  0.20993000  0.15061000  0.30912000  1
  O  O1  1  0.07871000  0.15878000  0.09951000  1
  O  O2  1  0.07872000  0.15878000  0.23133000  1
  O  O3  1  0.34114000  0.14243000  0.16041000  1
  O  O4  1  0.34112000  0.14243000  0.02859000  1
  O  O5  1  0.21051000  0.68219000  0.95679000  1
  O  O6  1  0.20933000  0.61902000  0.30312000  1
  O  O7  1  0.21653000  0.99782000  0.20454000  1
  O  O8  1  0.21652000  0.99782000  0.07272000  1
  O  O9  1  0.20331000  0.30339000  0.05537000  1
  O  O10  1  0.20331000  0.30339000  0.18720000  1
  F  F1  1  0.33112000  0.01030000  0.77092000  1
  F  F2  1  0.08984000  0.29108000  0.97288000  1
  F  F3  1  0.33112000  0.01034000  0.44176000  1
  F  F4  1  0.08989000  0.29110000  0.33368000  1
