# Generated by REPEAT Assigner based on pymatgen
data_DB6-cuf_6950
_audit_creation_date              2022-05-24
_audit_creation_method            REPEAT_Assigner
_cell_length_a                    15.944500
_cell_length_b                    14.971500
_cell_length_c                    14.586300
_cell_angle_alpha                 90.002300
_cell_angle_beta                  90.014500
_cell_angle_gamma                 83.553000
_cell_volume                      3459.921230
_symmetry_space_group_name_H-M    P1
_symmetry_Int_Tables_number       1
loop_
    _symmetry_equiv_pos_site_id
    _symmetry_equiv_pos_as_xyz
    1  x,y,z
loop_
    _atom_site_type_symbol
    _atom_site_label
    _atom_site_fract_x
    _atom_site_fract_y
    _atom_site_fract_z
    _atom_type_partial_charge
    Cu  Cu1  0.139850  0.255060  0.001410  0.964524
    Cu  Cu2  0.139880  0.255060  0.181730  0.836881
    C   C1   0.667730  0.255590  0.004740  0.162978
    C   C2   0.620930  0.180830  0.048130  0.162689
    C   C3   0.722330  0.256610  0.091570  0.377977
    C   C4   0.602980  0.328210  0.048160  0.157754
    C   C5   0.557410  0.253510  0.091570  0.394599
    C   C6   0.676760  0.181820  0.134960  0.170126
    C   C7   0.658810  0.329260  0.134970  0.173085
    C   C8   0.612030  0.254490  0.178430  0.146937
    C   C9   0.817330  0.258400  0.091560  -0.327575
    C   C10  0.462410  0.251720  0.091590  -0.342079
    F   F1   0.600340  0.104750  0.003610  -0.215937
    F   F2   0.564090  0.403220  0.003690  -0.215025
    F   F3   0.582330  0.253950  0.267420  -0.211750
    F   F4   0.697420  0.256140  0.915730  -0.216046
    F   F5   0.679330  0.405400  0.179480  -0.217647
    F   F6   0.715730  0.106800  0.179400  -0.215289
    C   C11  0.986300  0.261590  0.091560  0.766999
    C   C12  0.893050  0.259830  0.091550  -0.090767
    O   O1   0.017580  0.262190  0.011730  -0.561756
    O   O2   0.017610  0.262180  0.171390  -0.562952
    C   C13  0.293430  0.248530  0.091580  0.745229
    C   C14  0.386680  0.250300  0.091590  -0.074563
    O   O3   0.262150  0.247940  0.171410  -0.550934
    O   O4   0.262130  0.247940  0.011750  -0.568929
    C   C15  0.143230  0.945590  0.008440  0.222845
    C   C16  0.141580  0.852290  0.008450  -0.186579
    C   C17  0.140770  0.805640  0.091570  -0.128757
    C   C18  0.141610  0.852300  0.174690  0.252191
    C   C19  0.143270  0.945590  0.174690  -0.173460
    C   C20  0.138160  0.657840  0.174690  -0.037833
    C   C21  0.136510  0.564540  0.174700  -0.013511
    C   C22  0.136470  0.564530  0.008450  0.286796
    C   C23  0.138130  0.657830  0.008450  -0.290889
    C   C24  0.138970  0.704480  0.091570  0.179013
    O   O5   0.136370  0.513110  0.927020  -0.126891
    C   C25  0.139720  0.556340  0.840020  -0.150739
    H   H1   0.139680  0.504840  0.785380  0.105130
    H   H2   0.198810  0.588720  0.833450  0.069785
    H   H3   0.083220  0.605970  0.829940  0.074200
    O   O6   0.143510  0.997460  0.927320  -0.115804
    C   C26  0.140270  0.954490  0.840180  -0.142448
    H   H4   0.196700  0.904730  0.830170  0.063456
    H   H5   0.140410  0.006110  0.785680  0.093094
    H   H6   0.081170  0.922110  0.833390  0.074401
    O   O7   0.097170  0.821270  0.250070  -0.191560
    C   C27  0.116750  0.850940  0.340230  -0.076067
    H   H7   0.098920  0.801050  0.390820  0.071850
    H   H8   0.079190  0.916170  0.355930  0.059482
    H   H9   0.185420  0.856200  0.347850  0.067373
    O   O8   0.183600  0.683300  0.251170  -0.202222
    C   C28  0.273450  0.677050  0.239800  0.008745
    H   H10  0.294990  0.651070  0.171240  0.051305
    H   H11  0.294510  0.744590  0.249400  0.033713
    H   H12  0.303900  0.631320  0.292930  0.041790
    H   H13  0.140900  0.814310  0.940760  0.122526
    H   H14  0.138780  0.695810  0.940770  0.132180
    H   H15  0.135850  0.526560  0.242380  0.109498
    H   H16  0.143950  0.983570  0.242370  0.135613
    C   C29  0.145830  0.091530  0.091560  0.657535
    C   C30  0.144070  0.992240  0.091560  -0.171593
    O   O9   0.146440  0.124850  0.171390  -0.522395
    O   O10  0.146410  0.124850  0.011740  -0.569181
    C   C31  0.133900  0.418590  0.091580  0.631343
    C   C32  0.135660  0.517890  0.091580  -0.224756
    O   O11  0.133290  0.385270  0.011750  -0.552082
    O   O12  0.133330  0.385270  0.171400  -0.517379
    C   C33  0.082940  0.315990  0.639540  0.321516
    C   C34  0.082950  0.315990  0.543560  -0.293852
    C   C35  0.196800  0.194130  0.543600  0.281632
    C   C36  0.196790  0.194140  0.639580  -0.247948
    C   C37  0.139860  0.255060  0.687550  -0.022317
    C   C38  0.139880  0.255060  0.495590  0.042659
    C   C39  0.139890  0.255060  0.391520  0.181250
    C   C40  0.139850  0.255060  0.791620  0.237072
    F   F7   0.027460  0.375360  0.685260  -0.156457
    F   F8   0.252610  0.134410  0.498640  -0.158888
    H   H17  0.036600  0.365610  0.504490  0.216888
    H   H18  0.243150  0.144520  0.678660  0.207954
    N   N1   0.139840  0.255070  0.874580  -0.249684
    N   N2   0.139900  0.255060  0.308570  -0.198074
