# generated using pymatgen
data_CuH16C23N4(O3F)2
_symmetry_space_group_name_H-M   'P 1'
_cell_length_a   14.97150000
_cell_length_b   14.85350000
_cell_length_c   14.42150000
_cell_angle_alpha   90.00740000
_cell_angle_beta   90.00440000
_cell_angle_gamma   83.62140000
_symmetry_Int_Tables_number   1
_chemical_formula_structural   CuH16C23N4(O3F)2
_chemical_formula_sum   'Cu2 H32 C46 N8 O12 F4'
_cell_volume   3187.18800119
_cell_formula_units_Z   2
loop_
 _symmetry_equiv_pos_site_id
 _symmetry_equiv_pos_as_xyz
  1  'x, y, z'
loop_
 _atom_site_type_symbol
 _atom_site_label
 _atom_site_symmetry_multiplicity
 _atom_site_fract_x
 _atom_site_fract_y
 _atom_site_fract_z
 _atom_site_occupancy
  Cu  Cu1  1  0.12530000  0.22056000  0.05228000  1
  Cu  Cu2  1  0.12532000  0.22057000  0.23467000  1
  H  H1  1  0.68458000  0.22172000  0.29601000  1
  H  H2  1  0.56607000  0.21944000  0.29600000  1
  H  H3  1  0.39679000  0.21621000  0.99094000  1
  H  H4  1  0.85381000  0.22490000  0.99095000  1
  H  H5  1  0.01776000  0.88833000  0.46086000  1
  H  H6  1  0.06114000  0.78442000  0.51716000  1
  H  H7  1  0.99263000  0.78159000  0.41419000  1
  H  H8  1  0.23293000  0.55293000  0.46084000  1
  H  H9  1  0.18962000  0.65677000  0.51715000  1
  H  H10  1  0.25804000  0.65959000  0.41418000  1
  H  H11  1  0.06106000  0.78429000  0.76980000  1
  H  H12  1  0.01769000  0.88821000  0.82611000  1
  H  H13  1  0.99258000  0.78154000  0.87278000  1
  H  H14  1  0.23286000  0.55280000  0.82609000  1
  H  H15  1  0.25798000  0.65955000  0.87276000  1
  H  H16  1  0.18947000  0.65671000  0.76979000  1
  H  H17  1  0.12960000  0.94694000  0.29601000  1
  H  H18  1  0.12105000  0.49422000  0.29601000  1
  H  H19  1  0.12101000  0.49419000  0.99096000  1
  H  H20  1  0.12957000  0.94690000  0.99095000  1
  H  H21  1  0.03194000  0.05477000  0.53375000  1
  H  H22  1  0.08142000  0.00479000  0.62771000  1
  H  H23  1  0.93532000  0.23221000  0.74335000  1
  H  H24  1  0.97028000  0.12090000  0.74329000  1
  H  H25  1  0.30366000  0.11305000  0.74334000  1
  H  H26  1  0.22833000  0.03741000  0.74332000  1
  H  H27  1  0.28724000  0.31050000  0.53310000  1
  H  H28  1  0.33636000  0.26187000  0.62790000  1
  H  H29  1  0.17191000  0.42513000  0.64472000  1
  H  H30  1  0.10929000  0.41130000  0.73909000  1
  H  H31  1  0.96651000  0.38111000  0.62777000  1
  H  H32  1  0.02931000  0.39422000  0.53341000  1
  C  C1  1  0.81584000  0.22419000  0.22755000  1
  C  C2  1  0.72254000  0.22242000  0.22755000  1
  C  C3  1  0.67589000  0.22153000  0.14348000  1
  C  C4  1  0.72254000  0.22242000  0.05941000  1
  C  C5  1  0.81584000  0.22419000  0.05941000  1
  C  C6  1  0.52808000  0.21871000  0.05940000  1
  C  C7  1  0.43477000  0.21693000  0.05940000  1
  C  C8  1  0.43478000  0.21694000  0.22754000  1
  C  C9  1  0.52808000  0.21872000  0.22755000  1
  C  C10  1  0.57473000  0.21960000  0.14347000  1
  C  C11  1  0.96179000  0.22697000  0.14348000  1
  C  C12  1  0.86249000  0.22508000  0.14349000  1
  C  C13  1  0.28883000  0.21416000  0.14347000  1
  C  C14  1  0.38813000  0.21605000  0.14346000  1
  C  C15  1  0.12176000  0.53250000  0.22755000  1
  C  C16  1  0.12174000  0.53248000  0.05941000  1
  C  C17  1  0.12352000  0.62651000  0.05941000  1
  C  C18  1  0.12442000  0.67354000  0.14348000  1
  C  C19  1  0.12354000  0.62654000  0.22755000  1
  C  C20  1  0.12440000  0.67352000  0.97534000  1
  C  C21  1  0.12618000  0.76756000  0.97533000  1
  C  C22  1  0.12708000  0.81459000  0.05940000  1
  C  C23  1  0.12620000  0.76758000  0.14348000  1
  C  C24  1  0.12710000  0.81461000  0.22755000  1
  C  C25  1  0.12622000  0.76761000  0.31162000  1
  C  C26  1  0.12444000  0.67357000  0.31162000  1
  C  C27  1  0.12886000  0.90863000  0.05940000  1
  C  C28  1  0.12888000  0.90866000  0.22754000  1
  C  C29  1  0.04537000  0.81684000  0.44893000  1
  C  C30  1  0.20531000  0.62441000  0.44892000  1
  C  C31  1  0.04531000  0.81672000  0.83804000  1
  C  C32  1  0.20524000  0.62429000  0.83802000  1
  C  C33  1  0.13164000  0.05574000  0.14347000  1
  C  C34  1  0.12976000  0.95566000  0.14347000  1
  C  C35  1  0.11897000  0.38538000  0.14348000  1
  C  C36  1  0.12086000  0.48547000  0.14348000  1
  C  C37  1  0.18863000  0.15648000  0.67437000  1
  C  C38  1  0.10773000  0.13911000  0.61254000  1
  C  C39  1  0.12530000  0.22056000  0.73484000  1
  C  C40  1  0.20621000  0.23790000  0.61258000  1
  C  C41  1  0.12532000  0.22057000  0.55212000  1
  C  C42  1  0.04436000  0.20314000  0.67437000  1
  C  C43  1  0.14290000  0.30197000  0.67441000  1
  C  C44  1  0.06194000  0.28463000  0.61261000  1
  C  C45  1  0.12529000  0.22055000  0.84010000  1
  C  C46  1  0.12532000  0.22058000  0.44686000  1
  N  N1  1  0.09254000  0.04494000  0.57030000  1
  N  N2  1  0.95996000  0.17813000  0.70085000  1
  N  N3  1  0.26037000  0.08092000  0.70082000  1
  N  N4  1  0.29683000  0.24992000  0.57041000  1
  N  N5  1  0.16570000  0.38336000  0.70214000  1
  N  N6  1  0.99647000  0.34708000  0.57036000  1
  N  N7  1  0.12529000  0.22054000  0.92400000  1
  N  N8  1  0.12533000  0.22058000  0.36295000  1
  O  O1  1  0.99510000  0.22759000  0.06274000  1
  O  O2  1  0.99511000  0.22761000  0.22422000  1
  O  O3  1  0.25552000  0.21353000  0.22421000  1
  O  O4  1  0.25550000  0.21353000  0.06273000  1
  O  O5  1  0.12624000  0.81528000  0.39574000  1
  O  O6  1  0.12442000  0.62590000  0.39574000  1
  O  O7  1  0.12619000  0.81523000  0.89122000  1
  O  O8  1  0.12437000  0.62585000  0.89121000  1
  O  O9  1  0.13229000  0.08934000  0.22421000  1
  O  O10  1  0.13227000  0.08932000  0.06273000  1
  O  O11  1  0.11835000  0.35179000  0.06274000  1
  O  O12  1  0.11834000  0.35181000  0.22422000  1
  F  F1  1  0.86118000  0.22555000  0.30891000  1
  F  F2  1  0.68523000  0.25938000  0.98073000  1
  F  F3  1  0.56542000  0.18173000  0.98074000  1
  F  F4  1  0.38948000  0.21562000  0.30887000  1
