# Generated by REPEAT Assigner based on pymatgen
data_DB6-cuf_8428
_audit_creation_date              2022-05-24
_audit_creation_method            REPEAT_Assigner
_cell_length_a                    14.971500
_cell_length_b                    16.109300
_cell_length_c                    14.472300
_cell_angle_alpha                 90.008100
_cell_angle_beta                  90.002900
_cell_angle_gamma                 83.541000
_cell_volume                      3468.279689
_symmetry_space_group_name_H-M    P1
_symmetry_Int_Tables_number       1
loop_
    _symmetry_equiv_pos_site_id
    _symmetry_equiv_pos_as_xyz
    1  x,y,z
loop_
    _atom_site_type_symbol
    _atom_site_label
    _atom_site_fract_x
    _atom_site_fract_y
    _atom_site_fract_z
    _atom_type_partial_charge
    Cu  Cu1  0.124930  0.134700  0.139470  0.863429
    Cu  Cu2  0.124940  0.134720  0.321210  0.720656
    C   C1   0.815470  0.138060  0.314120  0.245792
    C   C2   0.722170  0.136430  0.314120  -0.283492
    C   C3   0.675520  0.135600  0.230340  0.071540
    C   C4   0.722170  0.136420  0.146570  0.183481
    C   C5   0.815460  0.138060  0.146570  -0.235841
    C   C6   0.527710  0.133000  0.146560  0.226857
    C   C7   0.434410  0.131360  0.146560  -0.227941
    C   C8   0.434410  0.131370  0.314110  0.298979
    C   C9   0.527710  0.133010  0.314110  -0.296418
    C   C10  0.574360  0.133830  0.230340  0.016236
    F   F1   0.860800  0.139310  0.395200  -0.150028
    F   F2   0.684810  0.170500  0.068170  -0.149289
    F   F3   0.565110  0.098900  0.068170  -0.166991
    F   F4   0.389110  0.130150  0.395150  -0.181122
    H   H1   0.684200  0.135780  0.382340  0.156536
    H   H2   0.565690  0.133680  0.382330  0.171751
    H   H3   0.396430  0.130690  0.078340  0.178003
    H   H4   0.853440  0.138710  0.078350  0.177791
    C   C11  0.961400  0.140620  0.230350  0.509796
    C   C12  0.862110  0.138870  0.230350  -0.040532
    O   O1   0.994720  0.141190  0.149890  -0.480610
    O   O2   0.994730  0.141210  0.310800  -0.407580
    C   C13  0.288470  0.128810  0.230330  0.510239
    C   C14  0.387760  0.130550  0.230330  -0.081737
    O   O3   0.255160  0.128220  0.310790  -0.394981
    O   O4   0.255140  0.128220  0.149880  -0.476566
    C   C15  0.125750  0.678060  0.146560  0.276726
    C   C16  0.124120  0.591340  0.146570  -0.205171
    C   C17  0.124130  0.591370  0.314120  0.294609
    C   C18  0.125770  0.678090  0.314120  -0.236261
    C   C19  0.126570  0.721430  0.230340  -0.037996
    C   C20  0.123300  0.547990  0.230340  -0.050951
    C   C21  0.121530  0.453960  0.230350  0.029871
    C   C22  0.128340  0.815470  0.230330  0.037086
    O   O5   0.123230  0.543850  0.396240  -0.277999
    C   C23  0.124030  0.585610  0.483240  0.044073
    H   H5   0.063260  0.631440  0.490840  0.042418
    H   H6   0.186250  0.616600  0.490830  0.032665
    H   H7   0.123150  0.538660  0.539200  0.049649
    O   O6   0.126640  0.725570  0.064440  -0.257861
    C   C24  0.125850  0.683810  0.977450  -0.021157
    H   H8   0.063620  0.652830  0.969850  0.049125
    H   H9   0.186620  0.637990  0.969840  0.040600
    H   H10  0.126730  0.730760  0.921480  0.094406
    H   H11  0.123460  0.556030  0.078350  0.148799
    H   H12  0.126430  0.713390  0.382340  0.162522
    C   C25  0.131500  0.982710  0.230330  0.788910
    C   C26  0.129760  0.890420  0.230330  -0.327283
    O   O7   0.132100  0.013690  0.310790  -0.521005
    O   O8   0.132080  0.013680  0.149880  -0.527486
    C   C27  0.118370  0.286710  0.230350  0.759184
    C   C28  0.120120  0.379000  0.230350  -0.305355
    O   O9   0.117790  0.255730  0.149890  -0.519367
    O   O10  0.117780  0.255740  0.310800  -0.506081
    C   C29  0.124940  0.134720  0.637540  -0.633004
    C   C30  0.198510  0.066560  0.676740  0.405411
    C   C31  0.198320  0.066320  0.783820  0.465020
    C   C32  0.124930  0.134710  0.823130  -0.854725
    C   C33  0.031540  0.115890  0.784250  0.491603
    C   C34  0.031980  0.115410  0.677120  0.425763
    C   C35  0.143920  0.221890  0.677040  0.356559
    C   C36  0.146040  0.221300  0.784170  0.459037
    C   C37  0.124920  0.134700  0.928020  0.622900
    C   C38  0.124940  0.134720  0.532660  0.521040
    O   O11  0.962800  0.175270  0.642400  -0.386704
    C   C39  0.894730  0.136030  0.598300  0.076104
    H   H13  0.921510  0.101560  0.535770  0.021642
    H   H14  0.840850  0.184730  0.575840  0.069207
    H   H15  0.864370  0.093220  0.646380  0.007371
    O   O12  0.963330  0.177280  0.817770  -0.407959
    C   C40  0.894990  0.139860  0.863630  0.088564
    H   H16  0.842000  0.189670  0.885600  0.067711
    H   H17  0.921810  0.106290  0.926650  0.010769
    H   H18  0.863390  0.096720  0.817060  0.016549
    O   O13  0.183100  0.986630  0.642070  -0.392029
    C   C41  0.260740  0.946440  0.599040  0.061749
    H   H19  0.246930  0.883220  0.576850  0.062415
    H   H20  0.318570  0.938890  0.647690  0.016999
    H   H21  0.277990  0.981380  0.536440  0.031279
    O   O14  0.181770  0.986370  0.817510  -0.367847
    C   C42  0.257350  0.946610  0.864510  0.020554
    H   H22  0.242320  0.883850  0.886820  0.082082
    H   H23  0.272170  0.982390  0.927320  0.032628
    H   H24  0.317130  0.938150  0.818430  0.026137
    O   O15  0.227310  0.242560  0.641400  -0.384889
    C   C43  0.217280  0.322010  0.599260  0.104556
    H   H25  0.284330  0.337030  0.576470  0.049155
    H   H26  0.189860  0.371230  0.648730  0.028853
    H   H27  0.173520  0.322120  0.537200  0.026637
    O   O16  0.231670  0.238910  0.816770  -0.385626
    C   C44  0.225240  0.315760  0.864450  0.081559
    H   H28  0.293630  0.327940  0.886090  0.062600
    H   H29  0.183560  0.313260  0.927810  0.014495
    H   H30  0.197410  0.368110  0.819260  0.004270
    H   H31  0.267730  0.077500  0.810120  -0.007056
    H   H32  0.268160  0.077570  0.650990  -0.002337
    H   H33  0.015280  0.051840  0.652130  -0.021411
    H   H34  0.014440  0.053050  0.811060  -0.020495
    H   H35  0.095950  0.274380  0.810930  0.000996
    H   H36  0.090270  0.272600  0.651690  -0.005280
    N   N1   0.124930  0.134690  0.011630  -0.422981
    N   N2   0.124950  0.134730  0.449040  -0.334497
