# Generated by REPEAT Assigner based on pymatgen
data_DB6-cuf_5630
_audit_creation_date              2022-05-24
_audit_creation_method            REPEAT_Assigner
_cell_length_a                    15.944500
_cell_length_b                    14.853500
_cell_length_c                    14.421500
_cell_angle_alpha                 90.007400
_cell_angle_beta                  90.011000
_cell_angle_gamma                 83.559000
_cell_volume                      3393.908506
_symmetry_space_group_name_H-M    P1
_symmetry_Int_Tables_number       1
loop_
    _symmetry_equiv_pos_site_id
    _symmetry_equiv_pos_as_xyz
    1  x,y,z
loop_
    _atom_site_type_symbol
    _atom_site_label
    _atom_site_fract_x
    _atom_site_fract_y
    _atom_site_fract_z
    _atom_type_partial_charge
    Cu  Cu1  0.169240  0.178480  0.049050  0.828074
    Cu  Cu2  0.169260  0.178500  0.231430  0.874475
    C   C1   0.697120  0.179010  0.052420  0.161586
    C   C2   0.650300  0.103660  0.096310  0.375060
    C   C3   0.751710  0.180050  0.140240  0.107944
    C   C4   0.632370  0.252210  0.096330  0.359526
    C   C5   0.586790  0.176920  0.140240  0.033439
    C   C6   0.706130  0.104670  0.184130  0.195419
    C   C7   0.688200  0.253280  0.184140  0.184750
    C   C8   0.641410  0.177920  0.228090  0.253627
    C   C9   0.846710  0.181850  0.140230  -0.207145
    C   C10  0.491790  0.175120  0.140260  -0.031982
    N   N1   0.622080  0.020960  0.041970  -0.816775
    H   H1   0.593760  0.981790  0.090570  0.307521
    H   H2   0.678550  0.983470  0.022000  0.310995
    N   N2   0.740030  0.022480  0.225180  -0.825337
    H   H3   0.775770  0.045030  0.279400  0.331623
    H   H4   0.782560  0.988180  0.178650  0.269280
    N   N3   0.721240  0.177240  0.950870  -0.762170
    H   H5   0.752740  0.234810  0.943100  0.296980
    H   H6   0.766470  0.121140  0.943030  0.285185
    N   N4   0.584910  0.329110  0.042040  -0.817047
    H   H7   0.546640  0.366540  0.090370  0.293404
    H   H8   0.632090  0.368980  0.022980  0.310228
    N   N5   0.703770  0.331940  0.224420  -0.798783
    H   H9   0.647610  0.366920  0.248890  0.260273
    H   H10  0.739770  0.310770  0.282600  0.302166
    N   N6   0.603640  0.174350  0.316280  -0.727587
    H   H11  0.655130  0.178120  0.360390  0.256801
    H   H12  0.563020  0.233870  0.326060  0.265835
    C   C11  0.015690  0.185070  0.140230  0.908616
    C   C12  0.922440  0.183290  0.140220  -0.279159
    O   O1   0.046970  0.185660  0.059490  -0.641282
    O   O2   0.046980  0.185670  0.220970  -0.592976
    C   C13  0.322810  0.171900  0.140250  0.898789
    C   C14  0.416060  0.173680  0.140260  -0.335830
    O   O3   0.291530  0.171320  0.220990  -0.592246
    O   O4   0.291510  0.171300  0.059510  -0.592049
    C   C15  0.165910  0.490430  0.224320  -0.065544
    C   C16  0.165900  0.490410  0.056180  -0.124701
    C   C17  0.167570  0.584440  0.056170  0.037692
    C   C18  0.168410  0.631470  0.140240  -0.066295
    C   C19  0.167580  0.584470  0.224310  -0.054341
    C   C20  0.168390  0.631450  0.972100  0.192885
    C   C21  0.170060  0.725480  0.972090  0.210759
    C   C22  0.170910  0.772510  0.056160  -0.025592
    C   C23  0.170080  0.725510  0.140240  -0.056249
    C   C24  0.170930  0.772540  0.224310  -0.025933
    C   C25  0.170100  0.725530  0.308390  0.256067
    C   C26  0.168430  0.631500  0.308380  0.280228
    C   C27  0.172580  0.866550  0.056160  -0.050567
    C   C28  0.172600  0.866580  0.224310  -0.072770
    N   N7   0.174660  0.772290  0.395350  -0.899351
    H   H13  0.141350  0.755770  0.454010  0.372943
    H   H14  0.216260  0.821130  0.403610  0.356039
    N   N8   0.171320  0.583680  0.395350  -0.913474
    H   H15  0.139020  0.609640  0.454150  0.361594
    H   H16  0.210990  0.523370  0.403530  0.356550
    N   N9   0.169420  0.772510  0.885070  -0.764416
    H   H17  0.133070  0.834440  0.873910  0.323594
    H   H18  0.201590  0.742390  0.827940  0.312590
    N   N10  0.165220  0.584890  0.885070  -0.806326
    H   H19  0.133100  0.615050  0.827930  0.306752
    H   H20  0.201570  0.522950  0.873980  0.360323
    H   H21  0.173280  0.904860  0.292770  0.113974
    H   H22  0.165250  0.452150  0.292770  0.095243
    H   H23  0.165210  0.452120  0.987720  0.087035
    H   H24  0.173250  0.904820  0.987710  0.070194
    C   C29  0.175200  0.013660  0.140240  0.558817
    C   C30  0.173430  0.913580  0.140230  -0.101005
    O   O5   0.175800  0.047250  0.220980  -0.503512
    O   O6   0.175780  0.047240  0.059500  -0.504342
    C   C31  0.163300  0.343310  0.140240  0.518477
    C   C32  0.165070  0.443400  0.140250  -0.060741
    O   O7   0.162710  0.309720  0.059500  -0.456542
    O   O8   0.162700  0.309740  0.220980  -0.510523
    C   C33  0.228710  0.114340  0.671150  0.237318
    C   C34  0.152740  0.097050  0.609300  0.239533
    C   C35  0.169240  0.178480  0.731600  0.099881
    C   C36  0.245220  0.195740  0.609350  0.222193
    C   C37  0.169260  0.178490  0.548880  0.163045
    C   C38  0.093230  0.161150  0.671120  0.218413
    C   C39  0.185770  0.259880  0.671180  0.215770
    C   C40  0.109740  0.242620  0.609360  0.188058
    C   C41  0.169230  0.178470  0.836860  -0.107804
    C   C42  0.169260  0.178500  0.443620  0.044381
    N   N11  0.138480  0.002900  0.567060  -0.731091
    H   H25  0.081570  0.012800  0.530500  0.286941
    H   H26  0.128040  0.962760  0.624470  0.299863
    N   N12  0.013970  0.136240  0.697590  -0.805551
    H   H27  0.990830  0.190340  0.740090  0.340694
    H   H28  0.023660  0.078990  0.740030  0.288324
    N   N13  0.296080  0.038690  0.697600  -0.755078
    H   H29  0.336730  0.070780  0.740120  0.318370
    H   H30  0.265990  0.995220  0.740100  0.288595
    N   N14  0.330320  0.207650  0.567190  -0.736953
    H   H31  0.321310  0.268240  0.529880  0.297308
    H   H32  0.367440  0.219560  0.624680  0.310284
    N   N15  0.207180  0.341240  0.698900  -0.779300
    H   H33  0.213010  0.383000  0.641490  0.262056
    H   H34  0.154200  0.369240  0.735850  0.299617
    N   N16  0.048250  0.305150  0.567110  -0.689170
    H   H35  0.020120  0.339210  0.624520  0.260952
    H   H36  0.079100  0.352250  0.530160  0.262062
    N   N17  0.169230  0.178470  0.920770  -0.113611
    N   N18  0.169260  0.178510  0.359710  -0.185859
