data_DB6-cuf_5893_repeat
_audit_creation_date              2024-02-23
_audit_creation_method            'Materials Studio'
_symmetry_space_group_name_H-M    'P1'
_symmetry_Int_Tables_number       1
_symmetry_cell_setting            triclinic
loop_
_symmetry_equiv_pos_as_xyz
  x,y,z
_cell_length_a                    14.8535
_cell_length_b                    9.0652
_cell_length_c                    14.5863
_cell_angle_alpha                 89.9994
_cell_angle_beta                  90.0091
_cell_angle_gamma                 84.3180
loop_
_atom_site_label
_atom_site_type_symbol
_atom_site_fract_x
_atom_site_fract_y
_atom_site_fract_z
_atom_site_U_iso_or_equiv
_atom_site_adp_type
_atom_site_occupancy
Cu1    Cu    0.28791   0.05990   0.04616   0.00000  Uiso   1.00
Cu2    Cu    0.28794   0.05990   0.22648   0.00000  Uiso   1.00
C1     C     0.59980   0.05403   0.05319   0.00000  Uiso   1.00
C2     C     0.59982   0.05402   0.21943   0.00000  Uiso   1.00
C3     C     0.69388   0.05696   0.21944   0.00000  Uiso   1.00
C4     C     0.74090   0.05843   0.13632   0.00000  Uiso   1.00
C5     C     0.69386   0.05696   0.05319   0.00000  Uiso   1.00
C6     C     0.74092   0.05841   0.30256   0.00000  Uiso   1.00
C7     C     0.83498   0.06135   0.30257   0.00000  Uiso   1.00
C8     C     0.88200   0.06283   0.21945   0.00000  Uiso   1.00
C9     C     0.83496   0.06137   0.13632   0.00000  Uiso   1.00
C10    C     0.88198   0.06284   0.05320   0.00000  Uiso   1.00
C11    C     0.83494   0.06138   0.97007   0.00000  Uiso   1.00
C12    C     0.74088   0.05844   0.97007   0.00000  Uiso   1.00
C13    C     0.97606   0.06577   0.21944   0.00000  Uiso   1.00
C14    C     0.97604   0.06577   0.05320   0.00000  Uiso   1.00
N1     N     0.88174   0.06937   0.88409   0.00000  Uiso   1.00
H1     H     0.86473   0.01085   0.82609   0.00000  Uiso   1.00
H2     H     0.93117   0.14244   0.87593   0.00000  Uiso   1.00
N2     N     0.69309   0.06350   0.88409   0.00000  Uiso   1.00
H3     H     0.71857   0.00675   0.82596   0.00000  Uiso   1.00
H4     H     0.63333   0.13318   0.87600   0.00000  Uiso   1.00
N3     N     0.88202   0.06024   0.38860   0.00000  Uiso   1.00
H5     H     0.94344   0.99639   0.39964   0.00000  Uiso   1.00
H6     H     0.85238   0.11675   0.44509   0.00000  Uiso   1.00
N4     N     0.69435   0.05286   0.38861   0.00000  Uiso   1.00
H7     H     0.72406   0.99646   0.44510   0.00000  Uiso   1.00
H8     H     0.63293   0.11671   0.39958   0.00000  Uiso   1.00
H9     H     0.01431   0.06696   0.98551   0.00000  Uiso   1.00
H10    H     0.56149   0.05285   0.98551   0.00000  Uiso   1.00
H11    H     0.56154   0.05283   0.28711   0.00000  Uiso   1.00
H12    H     0.01436   0.06694   0.28713   0.00000  Uiso   1.00
C15    C     0.12319   0.07035   0.13632   0.00000  Uiso   1.00
C16    C     0.02308   0.06724   0.13632   0.00000  Uiso   1.00
O1     O     0.15676   0.07139   0.05649   0.00000  Uiso   1.00
O2     O     0.15679   0.07139   0.21615   0.00000  Uiso   1.00
C17    C     0.45267   0.04945   0.13631   0.00000  Uiso   1.00
C18    C     0.55278   0.05256   0.13631   0.00000  Uiso   1.00
O3     O     0.41909   0.04842   0.21614   0.00000  Uiso   1.00
O4     O     0.41906   0.04839   0.05649   0.00000  Uiso   1.00
C19    C     0.29232   0.79018   0.13632   0.00000  Uiso   1.00
C20    C     0.28920   0.62640   0.13632   0.00000  Uiso   1.00
O5     O     0.29338   0.84514   0.21615   0.00000  Uiso   1.00
O6     O     0.29335   0.84514   0.05649   0.00000  Uiso   1.00
C21    C     0.28354   0.32962   0.13632   0.00000  Uiso   1.00
C22    C     0.28667   0.49339   0.13632   0.00000  Uiso   1.00
O7     O     0.28250   0.27465   0.21615   0.00000  Uiso   1.00
O8     O     0.28249   0.27466   0.05649   0.00000  Uiso   1.00
C23    C     0.22757   0.16027   0.68429   0.00000  Uiso   1.00
C24    C     0.22759   0.16027   0.58831   0.00000  Uiso   1.00
C25    C     0.34829   0.95952   0.58835   0.00000  Uiso   1.00
C26    C     0.34828   0.95953   0.68433   0.00000  Uiso   1.00
C27    C     0.28792   0.05990   0.73230   0.00000  Uiso   1.00
C28    C     0.28794   0.05990   0.54034   0.00000  Uiso   1.00
C29    C     0.28795   0.05990   0.43627   0.00000  Uiso   1.00
C30    C     0.28791   0.05990   0.83637   0.00000  Uiso   1.00
N5     N     0.41118   0.85492   0.54160   0.00000  Uiso   1.00
H13    H     0.41511   0.84838   0.47030   0.00000  Uiso   1.00
H14    H     0.45568   0.78091   0.57869   0.00000  Uiso   1.00
N6     N     0.16468   0.26488   0.73105   0.00000  Uiso   1.00
H15    H     0.16075   0.27141   0.80234   0.00000  Uiso   1.00
H16    H     0.12018   0.33889   0.69395   0.00000  Uiso   1.00
H17    H     0.17845   0.24202   0.54924   0.00000  Uiso   1.00
H18    H     0.39742   0.87778   0.72341   0.00000  Uiso   1.00
N7     N     0.28790   0.05991   0.91932   0.00000  Uiso   1.00
N8     N     0.28796   0.05989   0.35331   0.00000  Uiso   1.00
