# generated using pymatgen
data_CuH13C19N2O6F
_symmetry_space_group_name_H-M   'P 1'
_cell_length_a   14.85350000
_cell_length_b   10.65460000
_cell_length_c   11.29570000
_cell_angle_alpha   94.15090000
_cell_angle_beta   85.91050000
_cell_angle_gamma   84.05650000
_symmetry_Int_Tables_number   1
_chemical_formula_structural   CuH13C19N2O6F
_chemical_formula_sum   'Cu2 H26 C38 N4 O12 F2'
_cell_volume   1767.75755443
_cell_formula_units_Z   2
loop_
 _symmetry_equiv_pos_site_id
 _symmetry_equiv_pos_as_xyz
  1  'x, y, z'
loop_
 _atom_site_type_symbol
 _atom_site_label
 _atom_site_symmetry_multiplicity
 _atom_site_fract_x
 _atom_site_fract_y
 _atom_site_fract_z
 _atom_site_occupancy
  Cu  Cu1  1  0.28051000  0.08470000  0.00194000  1
  Cu  Cu2  1  0.26633000  0.10471000  0.23615000  1
  H  H1  1  0.96502000  0.90882000  0.71149000  1
  H  H2  1  0.86581000  0.96355000  0.63919000  1
  H  H3  1  0.85445000  0.87868000  0.77141000  1
  H  H4  1  0.63126000  0.21093000  0.71150000  1
  H  H5  1  0.73915000  0.14394000  0.63919000  1
  H  H6  1  0.73450000  0.25131000  0.77143000  1
  H  H7  1  0.80762000  0.04556000  0.59890000  1
  H  H8  1  0.91559000  0.97848000  0.52659000  1
  H  H9  1  0.81235000  0.93809000  0.46667000  1
  H  H10  1  0.58183000  0.28058000  0.52661000  1
  H  H11  1  0.69240000  0.31073000  0.46668000  1
  H  H12  1  0.68104000  0.22586000  0.59891000  1
  H  H13  1  0.01168000  0.08397000  0.92318000  1
  H  H14  1  0.55889000  0.07196000  0.92318000  1
  H  H15  1  0.53517000  0.10543000  0.31490000  1
  H  H16  1  0.98794000  0.11744000  0.31492000  1
  H  H17  1  0.28303000  0.45915000  0.92319000  1
  H  H18  1  0.26382000  0.73028000  0.31493000  1
  H  H19  1  0.12609000  0.36139000  0.73050000  1
  H  H20  1  0.06893000  0.36253000  0.59853000  1
  H  H21  1  0.46327000  0.80674000  0.63956000  1
  H  H22  1  0.46318000  0.88640000  0.50760000  1
  H  H23  1  0.18119000  0.22465000  0.82561000  1
  H  H24  1  0.14565000  0.27481000  0.41247000  1
  H  H25  1  0.36565000  0.96478000  0.41247000  1
  H  H26  1  0.40119000  0.91461000  0.82564000  1
  C  C1  1  0.59186000  0.08048000  0.01108000  1
  C  C2  1  0.57878000  0.09893000  0.22700000  1
  C  C3  1  0.67283000  0.10143000  0.22700000  1
  C  C4  1  0.72639000  0.09346000  0.11905000  1
  C  C5  1  0.68591000  0.08298000  0.01108000  1
  C  C6  1  0.71331000  0.11190000  0.33496000  1
  C  C7  1  0.80736000  0.11440000  0.33497000  1
  C  C8  1  0.86093000  0.10643000  0.22702000  1
  C  C9  1  0.82045000  0.09595000  0.11905000  1
  C  C10  1  0.87402000  0.08798000  0.01109000  1
  C  C11  1  0.83353000  0.07751000  0.90312000  1
  C  C12  1  0.73948000  0.07501000  0.90312000  1
  C  C13  1  0.95498000  0.10893000  0.22701000  1
  C  C14  1  0.96807000  0.09047000  0.01109000  1
  C  C15  1  0.89281000  0.94891000  0.72680000  1
  C  C16  1  0.70161000  0.17346000  0.72681000  1
  C  C17  1  0.84524000  0.01595000  0.51128000  1
  C  C18  1  0.65404000  0.24050000  0.51129000  1
  C  C19  1  0.10865000  0.10360000  0.11905000  1
  C  C20  1  0.00855000  0.10095000  0.11906000  1
  C  C21  1  0.43819000  0.08581000  0.11904000  1
  C  C22  1  0.53829000  0.08846000  0.11904000  1
  C  C23  1  0.28120000  0.65097000  0.01109000  1
  C  C24  1  0.27871000  0.51998000  0.01110000  1
  C  C25  1  0.26564000  0.53845000  0.22702000  1
  C  C26  1  0.26814000  0.66944000  0.22701000  1
  C  C27  1  0.27857000  0.86511000  0.11904000  1
  C  C28  1  0.27591000  0.72570000  0.11904000  1
  C  C29  1  0.26828000  0.32430000  0.11905000  1
  C  C30  1  0.27093000  0.46371000  0.11906000  1
  C  C31  1  0.18437000  0.22021000  0.58787000  1
  C  C32  1  0.19194000  0.20956000  0.46321000  1
  C  C33  1  0.31320000  0.03867000  0.46323000  1
  C  C34  1  0.30563000  0.04932000  0.58789000  1
  C  C35  1  0.24122000  0.14009000  0.65021000  1
  C  C36  1  0.23365000  0.15074000  0.77487000  1
  C  C37  1  0.35491000  0.97986000  0.77488000  1
  C  C38  1  0.36247000  0.96921000  0.65022000  1
  N  N1  1  0.11926000  0.31854000  0.64627000  1
  N  N2  1  0.43228000  0.87734000  0.59183000  1
  N  N3  1  0.29050000  0.07062000  0.83721000  1
  N  N4  1  0.25635000  0.11879000  0.40089000  1
  O  O1  1  0.88774000  0.06829000  0.79510000  1
  O  O2  1  0.69835000  0.06574000  0.79511000  1
  O  O3  1  0.84850000  0.12366000  0.44299000  1
  O  O4  1  0.65911000  0.12111000  0.44299000  1
  O  O5  1  0.14852000  0.09563000  0.01537000  1
  O  O6  1  0.13596000  0.11335000  0.22273000  1
  O  O7  1  0.39832000  0.09380000  0.22273000  1
  O  O8  1  0.41088000  0.07604000  0.01536000  1
  O  O9  1  0.27318000  0.92076000  0.22273000  1
  O  O10  1  0.28574000  0.90304000  0.01536000  1
  O  O11  1  0.27366000  0.26865000  0.01537000  1
  O  O12  1  0.26111000  0.28637000  0.22273000  1
  F  F1  1  0.28858000  0.70573000  0.90677000  1
  F  F2  1  0.25836000  0.48361000  0.33133000  1
