# Generated by REPEAT Assigner based on pymatgen
data_DB6-cuf_2158
_audit_creation_date              2022-05-24
_audit_creation_method            REPEAT_Assigner
_cell_length_a                    15.625200
_cell_length_b                    10.654600
_cell_length_c                    14.184900
_cell_angle_alpha                 76.679900
_cell_angle_beta                  85.674800
_cell_angle_gamma                 84.352300
_cell_volume                      2283.427416
_symmetry_space_group_name_H-M    P1
_symmetry_Int_Tables_number       1
loop_
    _symmetry_equiv_pos_site_id
    _symmetry_equiv_pos_as_xyz
    1  x,y,z
loop_
    _atom_site_type_symbol
    _atom_site_label
    _atom_site_fract_x
    _atom_site_fract_y
    _atom_site_fract_z
    _atom_type_partial_charge
    Cu  Cu1  0.173980  0.127590  0.110910  0.587444
    Cu  Cu2  0.217970  0.065620  0.292230  0.555446
    C   C1   0.548720  0.169060  0.982280  -0.190358
    C   C2   0.462300  0.155810  0.013740  -0.076795
    C   C3   0.502850  0.098690  0.180880  0.189797
    C   C4   0.589280  0.111930  0.149440  0.030180
    C   C5   0.612210  0.147120  0.050130  -0.024409
    C   C6   0.652770  0.089990  0.217290  -0.023113
    C   C7   0.739190  0.103230  0.185850  -0.016658
    C   C8   0.762130  0.138410  0.086550  -0.265998
    C   C9   0.698630  0.160360  0.018690  0.369932
    C   C10  0.629840  0.054800  0.316590  -0.250963
    C   C11  0.693330  0.032860  0.384450  0.359789
    C   C12  0.779750  0.046110  0.353010  -0.040544
    C   C13  0.802680  0.081290  0.253710  0.045580
    C   C14  0.843240  0.024160  0.420870  -0.149733
    C   C15  0.929660  0.037400  0.389420  -0.180221
    C   C16  0.889110  0.094530  0.222260  0.175775
    N   N1   0.916040  0.192550  0.140490  -0.490412
    H   H1   0.878090  0.279690  0.119560  0.256016
    H   H2   0.979230  0.188340  0.110680  0.170148
    N   N2   0.665930  0.996760  0.485500  -0.905869
    H   H3   0.705230  0.939840  0.537900  0.362007
    H   H4   0.601030  0.010230  0.507610  0.370764
    N   N3   0.475980  0.000190  0.262410  -0.473658
    H   H5   0.412820  0.004280  0.292290  0.160482
    H   H6   0.513990  0.913070  0.283010  0.245358
    N   N4   0.726740  0.185990  0.917610  -0.904113
    H   H7   0.787870  0.217380  0.895670  0.373469
    H   H8   0.693960  0.158290  0.865390  0.357500
    H   H9   0.832500  0.149180  0.060950  0.109745
    H   H10  0.567390  0.197710  0.901420  0.115203
    H   H11  0.410610  0.173680  0.958470  0.086242
    H   H12  0.559470  0.044020  0.342190  0.115987
    H   H13  0.824570  0.995520  0.501720  0.112697
    H   H14  0.981360  0.019530  0.444680  0.113773
    C   C17  0.044570  0.086670  0.256650  0.446645
    C   C18  0.952590  0.072590  0.290120  -0.071041
    O   O1   0.055960  0.118830  0.165160  -0.367260
    O   O2   0.094910  0.063970  0.325690  -0.391705
    C   C19  0.347390  0.106550  0.146480  0.467163
    C   C20  0.439370  0.120630  0.113020  -0.148086
    O   O3   0.336000  0.074380  0.237980  -0.346936
    O   O4   0.297050  0.129250  0.077450  -0.404973
    C   C21  0.176840  0.690810  0.117580  0.484491
    C   C22  0.174560  0.559530  0.118410  -0.304462
    C   C23  0.215120  0.502420  0.285570  0.487936
    C   C24  0.217410  0.633700  0.284730  -0.300699
    N   N5   0.157950  0.787070  0.031610  -0.842313
    H   H15  0.159410  0.885320  0.029960  0.289846
    H   H16  0.141860  0.760730  0.969050  0.328870
    N   N6   0.237000  0.406030  0.370440  -0.830017
    H   H17  0.238600  0.307810  0.370460  0.300877
    H   H18  0.265050  0.432440  0.426780  0.316668
    H   H19  0.157120  0.529350  0.050690  0.168072
    H   H20  0.234850  0.663870  0.352460  0.164300
    C   C25  0.200700  0.867610  0.199850  0.671263
    C   C26  0.198260  0.727890  0.200730  -0.252104
    O   O5   0.221000  0.887060  0.279820  -0.506903
    O   O6   0.182050  0.941930  0.119280  -0.458187
    C   C27  0.191250  0.325610  0.203290  0.649022
    C   C28  0.193690  0.465330  0.202410  -0.260903
    O   O7   0.170960  0.306160  0.123320  -0.482904
    O   O8   0.209910  0.251290  0.283860  -0.458189
    C   C29  0.339730  0.894050  0.544280  -0.215819
    C   C30  0.316320  0.927050  0.447760  -0.011825
    C   C31  0.204890  0.084070  0.488280  0.228076
    C   C32  0.228290  0.051080  0.584800  -0.064652
    C   C33  0.295710  0.956070  0.612790  0.050120
    C   C34  0.184280  0.113110  0.653310  0.041397
    C   C35  0.207680  0.080120  0.749830  0.112250
    C   C36  0.275090  0.985110  0.777830  -0.352622
    C   C37  0.319110  0.923090  0.709300  0.257501
    C   C38  0.116860  0.208110  0.625320  -0.324709
    C   C39  0.072850  0.270130  0.693830  0.277005
    C   C40  0.096250  0.237150  0.790350  0.101035
    C   C41  0.163660  0.142140  0.818350  -0.154879
    C   C42  0.052230  0.299170  0.858870  -0.257515
    C   C43  0.075630  0.266190  0.955390  -0.006107
    C   C44  0.187060  0.109160  0.914860  0.363611
    O   O9   0.273420  0.068760  0.938750  -0.243223
    C   C45  0.287720  0.957380  0.017120  0.190226
    H   H21  0.339600  0.890240  0.994570  -0.097538
    H   H22  0.229220  0.903500  0.038760  0.052396
    H   H23  0.311050  0.986620  0.080130  0.024491
    O   O10  0.004460  0.364850  0.666490  -0.328565
    C   C46  0.934210  0.324370  0.624960  0.095321
    H   H24  0.932780  0.373520  0.547020  0.030862
    H   H25  0.873120  0.353410  0.662480  0.038398
    H   H26  0.937510  0.217710  0.632470  0.007275
    O   O11  0.174210  0.212310  0.444230  0.003181
    C   C47  0.099220  0.228810  0.388080  -0.191830
    H   H27  0.052450  0.303870  0.409510  0.032593
    H   H28  0.066280  0.138160  0.399300  0.085532
    H   H29  0.116890  0.265400  0.310090  0.130203
    O   O12  0.385850  0.823200  0.733950  -0.271908
    C   C48  0.419300  0.796370  0.828010  0.032463
    H   H30  0.476950  0.726570  0.829410  0.055510
    H   H31  0.371270  0.750230  0.883660  0.056521
    H   H32  0.439110  0.885970  0.844590  0.052662
    H   H33  0.294140  0.958250  0.856420  0.184249
    H   H34  0.394620  0.816680  0.567060  0.109258
    H   H35  0.352160  0.876540  0.391980  0.143039
    H   H36  0.097810  0.234950  0.546730  0.165456
    H   H37  0.997340  0.376530  0.836070  0.138136
    H   H38  0.039790  0.316690  0.011170  0.132843
    N   N7   0.143050  0.171180  0.983380  -0.164603
    N   N8   0.248910  0.022040  0.419760  -0.124774
