# Generated by REPEAT Assigner based on pymatgen
data_DB6-cuf_8915
_audit_creation_date              2022-05-24
_audit_creation_method            REPEAT_Assigner
_cell_length_a                    10.654600
_cell_length_b                    17.019300
_cell_length_c                    9.130310
_cell_angle_alpha                 86.122000
_cell_angle_beta                  90.005100
_cell_angle_gamma                 83.937600
_cell_volume                      1642.561617
_symmetry_space_group_name_H-M    P1
_symmetry_Int_Tables_number       1
loop_
    _symmetry_equiv_pos_site_id
    _symmetry_equiv_pos_as_xyz
    1  x,y,z
loop_
    _atom_site_type_symbol
    _atom_site_label
    _atom_site_fract_x
    _atom_site_fract_y
    _atom_site_fract_z
    _atom_type_partial_charge
    Cu  Cu1  0.137910  0.258620  0.942170  0.586704
    Cu  Cu2  0.137940  0.258620  0.230250  0.578318
    C   C1   0.703430  0.259700  0.218860  0.317711
    C   C2   0.572440  0.257530  0.219130  -0.244619
    C   C3   0.572430  0.257540  0.953540  0.313553
    C   C4   0.703420  0.259720  0.953280  -0.240737
    F   F1   0.767110  0.260630  0.347050  -0.201028
    F   F2   0.508670  0.256690  0.825340  -0.200441
    H   H1   0.519130  0.256650  0.327370  0.167516
    H   H2   0.756730  0.260600  0.845020  0.166244
    C   C5   0.908320  0.263120  0.085650  0.572971
    C   C6   0.768910  0.260800  0.085940  -0.130202
    O   O1   0.955090  0.263900  0.958020  -0.435015
    O   O2   0.955110  0.263900  0.213080  -0.410942
    C   C7   0.367530  0.254120  0.086770  0.578560
    C   C8   0.506940  0.256440  0.086470  -0.131042
    O   O3   0.320770  0.253330  0.214400  -0.436765
    O   O4   0.320740  0.253340  0.959340  -0.412801
    C   C9   0.143930  0.985720  0.987830  -0.194875
    C   C10  0.141760  0.903420  0.998220  0.188290
    C   C11  0.140680  0.862280  0.136200  0.127123
    C   C12  0.141790  0.903440  0.263800  -0.369800
    C   C13  0.143970  0.985730  0.253410  0.369992
    C   C14  0.134110  0.613810  0.174210  0.192529
    C   C15  0.131920  0.531520  0.184580  -0.195498
    C   C16  0.131890  0.531510  0.919000  0.367955
    C   C17  0.134060  0.613810  0.908620  -0.365151
    C   C18  0.135180  0.654950  0.036230  0.119974
    C   C19  0.138460  0.778160  0.146820  -0.163424
    C   C20  0.137410  0.739070  0.025610  -0.158553
    F   F3   0.109140  0.875680  0.869270  -0.158153
    F   F4   0.144750  0.025620  0.376960  -0.198249
    F   F5   0.166800  0.641550  0.303150  -0.158341
    F   F6   0.131100  0.491620  0.795460  -0.198159
    H   H3   0.144800  0.019210  0.875470  0.157727
    H   H4   0.134940  0.647300  0.796270  0.183154
    H   H5   0.131050  0.498020  0.296950  0.156653
    H   H6   0.140920  0.869930  0.376150  0.184302
    H   H7   0.138300  0.772570  0.913260  0.153699
    H   H8   0.137580  0.744660  0.259170  0.154058
    C   C21  0.147360  0.114450  0.104380  0.587393
    C   C22  0.145040  0.026870  0.115420  -0.182691
    O   O5   0.148150  0.143840  0.228210  -0.393255
    O   O6   0.148120  0.143840  0.973150  -0.472416
    C   C23  0.128490  0.402790  0.068030  0.580782
    C   C24  0.130820  0.490370  0.056990  -0.181630
    O   O7   0.127690  0.373400  0.944210  -0.391342
    O   O8   0.127740  0.373400  0.199270  -0.465920
    C   C25  0.052610  0.311880  0.656140  0.363082
    C   C26  0.052640  0.311880  0.502800  -0.089492
    C   C27  0.223250  0.205350  0.516290  0.364544
    C   C28  0.223230  0.205360  0.669620  -0.090660
    F   F7   0.970050  0.363260  0.724150  -0.147846
    F   F8   0.305900  0.154030  0.448190  -0.148513
    H   H9   0.983190  0.355260  0.434910  0.161476
    H   H10  0.292680  0.161980  0.737520  0.162059
    N   N1   0.137900  0.258620  0.739540  -0.145311
    N   N2   0.137950  0.258620  0.432870  -0.143501
