# generated using pymatgen
data_CuH17C18N2O7F
_symmetry_space_group_name_H-M   'P 1'
_cell_length_a   10.65460000
_cell_length_b   12.81140000
_cell_length_c   14.47230000
_cell_angle_alpha   84.57390000
_cell_angle_beta   90.00410000
_cell_angle_gamma   84.26320000
_symmetry_Int_Tables_number   1
_chemical_formula_structural   CuH17C18N2O7F
_chemical_formula_sum   'Cu2 H34 C36 N4 O14 F2'
_cell_volume   1956.68166126
_cell_formula_units_Z   2
loop_
 _symmetry_equiv_pos_site_id
 _symmetry_equiv_pos_as_xyz
  1  'x, y, z'
loop_
 _atom_site_type_symbol
 _atom_site_label
 _atom_site_symmetry_multiplicity
 _atom_site_fract_x
 _atom_site_fract_y
 _atom_site_fract_z
 _atom_site_occupancy
  Cu  Cu1  1  0.08612000  0.14151000  0.16955000  1
  Cu  Cu2  1  0.08614000  0.14152000  0.35130000  1
  H  H1  1  0.46732000  0.13891000  0.41263000  1
  H  H2  1  0.70495000  0.14413000  0.10820000  1
  H  H3  1  0.13256000  0.73493000  0.02907000  1
  H  H4  1  0.07053000  0.62504000  0.98763000  1
  H  H5  1  0.07146000  0.66108000  0.53296000  1
  H  H6  1  0.12742000  0.53913000  0.49253000  1
  H  H7  1  0.09092000  0.82295000  0.13512000  1
  H  H8  1  0.08133000  0.46006000  0.08174000  1
  H  H9  1  0.08134000  0.46006000  0.38572000  1
  H  H10  1  0.09094000  0.82298000  0.43910000  1
  H  H11  1  0.80028000  0.09784000  0.56951000  1
  H  H12  1  0.68761000  0.20212000  0.60084000  1
  H  H13  1  0.71999000  0.08680000  0.68105000  1
  H  H14  1  0.68925000  0.20836000  0.91008000  1
  H  H15  1  0.80073000  0.10381000  0.95990000  1
  H  H16  1  0.71864000  0.09121000  0.85135000  1
  H  H17  1  0.25567000  0.82511000  0.63346000  1
  H  H18  1  0.35665000  0.89603000  0.69836000  1
  H  H19  1  0.29996000  0.94931000  0.58264000  1
  H  H20  1  0.24920000  0.82586000  0.94337000  1
  H  H21  1  0.29179000  0.95053000  0.97342000  1
  H  H22  1  0.35462000  0.89508000  0.86918000  1
  H  H23  1  0.31132000  0.39837000  0.58502000  1
  H  H24  1  0.17892000  0.44070000  0.65374000  1
  H  H25  1  0.15563000  0.37855000  0.54742000  1
  H  H26  1  0.32433000  0.38698000  0.89560000  1
  H  H27  1  0.16967000  0.36745000  0.93896000  1
  H  H28  1  0.18949000  0.43683000  0.82459000  1
  H  H29  1  0.28623000  0.07057000  0.84616000  1
  H  H30  1  0.28683000  0.07065000  0.68702000  1
  H  H31  1  0.93159000  0.03591000  0.69106000  1
  H  H32  1  0.93042000  0.03743000  0.84987000  1
  H  H33  1  0.04639000  0.31759000  0.82625000  1
  H  H34  1  0.03841000  0.31529000  0.66721000  1
  C  C1  1  0.65164000  0.14297000  0.34408000  1
  C  C2  1  0.52063000  0.14007000  0.34432000  1
  C  C3  1  0.52063000  0.14006000  0.17676000  1
  C  C4  1  0.65163000  0.14297000  0.17653000  1
  C  C5  1  0.85656000  0.14750000  0.25993000  1
  C  C6  1  0.71714000  0.14441000  0.26019000  1
  C  C7  1  0.31570000  0.13553000  0.26092000  1
  C  C8  1  0.45512000  0.13862000  0.26066000  1
  C  C9  1  0.08541000  0.61413000  0.13705000  1
  C  C10  1  0.08250000  0.50464000  0.14623000  1
  C  C11  1  0.08251000  0.50465000  0.31378000  1
  C  C12  1  0.08541000  0.61414000  0.30461000  1
  C  C13  1  0.08686000  0.66888000  0.21624000  1
  C  C14  1  0.08975000  0.77838000  0.20707000  1
  C  C15  1  0.08977000  0.77839000  0.37462000  1
  C  C16  1  0.08686000  0.66889000  0.38379000  1
  C  C17  1  0.09430000  0.94968000  0.27650000  1
  C  C18  1  0.09121000  0.83314000  0.28626000  1
  C  C19  1  0.07796000  0.33333333  0.24435000  1
  C  C20  1  0.08105000  0.44989000  0.23458000  1
  C  C21  1  0.08613000  0.14152000  0.66763000  1
  C  C22  1  0.18896000  0.05614000  0.71398000  1
  C  C23  1  0.18869000  0.05582000  0.82109000  1
  C  C24  1  0.08612000  0.14151000  0.85322000  1
  C  C25  1  0.95487000  0.11692000  0.81639000  1
  C  C26  1  0.95547000  0.11631000  0.70932000  1
  C  C27  1  0.11339000  0.25174000  0.69788000  1
  C  C28  1  0.11636000  0.25102000  0.80507000  1
  C  C29  1  0.08611000  0.14150000  0.95811000  1
  C  C30  1  0.08614000  0.14153000  0.56274000  1
  C  C31  1  0.76291000  0.14111000  0.62841000  1
  C  C32  1  0.76331000  0.14595000  0.89334000  1
  C  C33  1  0.27551000  0.90505000  0.64895000  1
  C  C34  1  0.27074000  0.90522000  0.91441000  1
  C  C35  1  0.21708000  0.37880000  0.60945000  1
  C  C36  1  0.22821000  0.37098000  0.87531000  1
  N  N1  1  0.09165000  0.66492000  0.04447000  1
  N  N2  1  0.09033000  0.61711000  0.47646000  1
  N  N3  1  0.08611000  0.14149000  0.04172000  1
  N  N4  1  0.08615000  0.14154000  0.47913000  1
  O  O1  1  0.90334000  0.14853000  0.17938000  1
  O  O2  1  0.90336000  0.14855000  0.34030000  1
  O  O3  1  0.26892000  0.13449000  0.34147000  1
  O  O4  1  0.26890000  0.13449000  0.18055000  1
  O  O5  1  0.09534000  0.98880000  0.35368000  1
  O  O6  1  0.09532000  0.98878000  0.19277000  1
  O  O7  1  0.07692000  0.29423000  0.16717000  1
  O  O8  1  0.07693000  0.29425000  0.32808000  1
  O  O9  1  0.85876000  0.19126000  0.66831000  1
  O  O10  1  0.85952000  0.19381000  0.84346000  1
  O  O11  1  0.16676000  0.95509000  0.68779000  1
  O  O12  1  0.16490000  0.95475000  0.86326000  1
  O  O13  1  0.23061000  0.27859000  0.66000000  1
  O  O14  1  0.23671000  0.27403000  0.83575000  1
  F  F1  1  0.71533000  0.14421000  0.42492000  1
  F  F2  1  0.45686000  0.13893000  0.09591000  1
