# Generated by REPEAT Assigner based on pymatgen
data_DB11-pMOF_31
_audit_creation_date              2022-05-24
_audit_creation_method            REPEAT_Assigner
_cell_length_a                    10.654600
_cell_length_b                    19.188900
_cell_length_c                    13.448300
_cell_angle_alpha                 89.994800
_cell_angle_beta                  90.007600
_cell_angle_gamma                 83.812900
_cell_volume                      2733.490451
_symmetry_space_group_name_H-M    P1
_symmetry_Int_Tables_number       1
loop_
    _symmetry_equiv_pos_site_id
    _symmetry_equiv_pos_as_xyz
    1  x,y,z
loop_
    _atom_site_type_symbol
    _atom_site_label
    _atom_site_fract_x
    _atom_site_fract_y
    _atom_site_fract_z
    _atom_type_partial_charge
    Cu  Cu1  0.114260  0.228560  0.045070  0.767665
    Cu  Cu2  0.114300  0.228550  0.240650  0.768089
    C   C1   0.679790  0.229510  0.233010  -0.105256
    C   C2   0.548800  0.227590  0.233010  -0.105004
    C   C3   0.548790  0.227600  0.052700  -0.105530
    C   C4   0.679770  0.229530  0.052700  -0.104850
    H   H1   0.733110  0.230290  0.306430  0.094273
    H   H2   0.495510  0.226810  0.306420  0.093927
    H   H3   0.495450  0.226820  0.979290  0.093863
    H   H4   0.733070  0.230310  0.979280  0.094435
    C   C5   0.884660  0.232540  0.142860  0.645145
    C   C6   0.745260  0.230480  0.142860  -0.032566
    O   O1   0.931420  0.233230  0.056280  -0.533232
    O   O2   0.931460  0.233230  0.229440  -0.532595
    C   C7   0.343900  0.224570  0.142850  0.640505
    C   C8   0.483300  0.226630  0.142850  -0.029895
    O   O3   0.297140  0.223880  0.229440  -0.531505
    O   O4   0.297110  0.223890  0.056270  -0.530478
    C   C9   0.121170  0.987010  0.233020  -0.070653
    C   C10  0.119230  0.914180  0.233020  -0.020934
    C   C11  0.118250  0.877770  0.142870  -0.423702
    C   C12  0.119180  0.914200  0.052710  -0.019253
    C   C13  0.121110  0.987030  0.052720  -0.072176
    N   N1   0.186670  0.758560  0.075760  -0.375847
    N   N2   0.184840  0.689370  0.075760  -0.372828
    C   C14  0.112430  0.658320  0.142850  0.964174
    N   N3   0.041940  0.699070  0.209950  -0.379424
    N   N4   0.043780  0.768260  0.209950  -0.368885
    C   C15  0.116160  0.798790  0.142850  0.972555
    C   C16  0.109390  0.542920  0.233000  -0.020855
    C   C17  0.107440  0.470080  0.232990  -0.072258
    C   C18  0.107400  0.470100  0.052680  -0.071019
    C   C19  0.109340  0.542940  0.052690  -0.023289
    C   C20  0.110340  0.579340  0.142850  -0.416431
    H   H5   0.121970  0.016650  0.306440  0.083694
    H   H6   0.118460  0.884520  0.306430  0.081618
    H   H7   0.118390  0.884550  0.979310  0.082320
    H   H8   0.121870  0.016690  0.979310  0.083529
    H   H9   0.110180  0.572560  0.306410  0.082861
    H   H10  0.106670  0.440430  0.306400  0.084303
    H   H11  0.106610  0.440460  0.979270  0.084601
    H   H12  0.110110  0.572600  0.979280  0.082649
    C   C21  0.124160  0.100950  0.142870  0.521281
    C   C22  0.122110  0.023440  0.142880  0.036691
    O   O5   0.124870  0.126960  0.229450  -0.504065
    O   O6   0.124830  0.126970  0.056280  -0.503318
    C   C23  0.104410  0.356160  0.142850  0.524773
    C   C24  0.106460  0.433680  0.142840  0.036299
    O   O7   0.103710  0.330150  0.056270  -0.506067
    O   O8   0.103730  0.330140  0.229430  -0.505878
    C   C25  0.028790  0.275700  0.855430  0.133766
    C   C26  0.028810  0.275700  0.751330  -0.299116
    C   C27  0.114280  0.228560  0.699300  0.195333
    C   C28  0.199740  0.181420  0.751380  -0.298307
    C   C29  0.199730  0.181420  0.855480  0.133235
    C   C30  0.199770  0.181410  0.534390  -0.299604
    C   C31  0.199780  0.181410  0.430290  0.134293
    C   C32  0.028840  0.275690  0.430250  0.133416
    C   C33  0.028830  0.275700  0.534350  -0.298097
    C   C34  0.114290  0.228560  0.586420  0.195303
    H   H13  0.959180  0.314090  0.897790  0.107203
    H   H14  0.959220  0.314100  0.708940  0.142716
    H   H15  0.959220  0.314080  0.576710  0.142051
    H   H16  0.959260  0.314090  0.387850  0.107496
    H   H17  0.269380  0.143020  0.387930  0.107088
    H   H18  0.269360  0.143020  0.576780  0.142947
    H   H19  0.269340  0.143040  0.709010  0.142317
    H   H20  0.269310  0.143030  0.897860  0.107464
    N   N5   0.114240  0.228560  0.907500  -0.155195
    N   N6   0.114320  0.228550  0.378220  -0.155767
