# generated using pymatgen
data_CuH15C25N7(O2F)2
_symmetry_space_group_name_H-M   'P 1'
_cell_length_a   15.62520000
_cell_length_b   19.18890000
_cell_length_c   13.33040000
_cell_angle_alpha   89.99360000
_cell_angle_beta   71.92440000
_cell_angle_gamma   83.71150000
_symmetry_Int_Tables_number   1
_chemical_formula_structural   CuH15C25N7(O2F)2
_chemical_formula_sum   'Cu2 H30 C50 N14 O8 F4'
_cell_volume   3774.31609923
_cell_formula_units_Z   2
loop_
 _symmetry_equiv_pos_site_id
 _symmetry_equiv_pos_as_xyz
  1  'x, y, z'
loop_
 _atom_site_type_symbol
 _atom_site_label
 _atom_site_symmetry_multiplicity
 _atom_site_fract_x
 _atom_site_fract_y
 _atom_site_fract_z
 _atom_site_occupancy
  Cu  Cu1  1  0.15684000  0.18474000  0.04959000  1
  Cu  Cu2  1  0.15686000  0.18473000  0.24690000  1
  H  H1  1  0.82744000  0.18725000  0.99524000  1
  H  H2  1  0.60107000  0.18392000  0.82162000  1
  H  H3  1  0.43049000  0.18140000  0.88370000  1
  H  H4  1  0.48628000  0.18221000  0.30125000  1
  H  H5  1  0.71264000  0.18555000  0.47487000  1
  H  H6  1  0.88323000  0.18806000  0.41281000  1
  H  H7  1  0.16037000  0.03513000  0.96153000  1
  H  H8  1  0.15917000  0.95437000  0.89446000  1
  H  H9  1  0.19248000  0.78277000  0.32683000  1
  H  H10  1  0.15484000  0.86342000  0.40091000  1
  H  H11  1  0.18822000  0.58009000  0.32833000  1
  H  H12  1  0.14800000  0.50714000  0.40335000  1
  H  H13  1  0.14707000  0.33505000  0.96629000  1
  H  H14  1  0.14893000  0.41575000  0.89816000  1
  H  H15  1  0.16236000  0.97279000  0.31127000  1
  H  H16  1  0.15981000  0.84071000  0.98217000  1
  H  H17  1  0.15138000  0.39663000  0.31523000  1
  H  H18  1  0.15387000  0.52879000  0.98431000  1
  H  H19  1  0.36496000  0.99129000  0.65429000  1
  H  H20  1  0.38073000  0.06046000  0.73310000  1
  H  H21  1  0.36525000  0.99136000  0.49102000  1
  H  H22  1  0.38070000  0.06050000  0.40056000  1
  H  H23  1  0.93474000  0.31374000  0.89710000  1
  H  H24  1  0.95119000  0.37841000  0.79930000  1
  H  H25  1  0.90401000  0.34188000  0.66387000  1
  H  H26  1  0.98756000  0.35453000  0.54160000  1
  H  H27  1  0.26815000  0.09856000  0.86059000  1
  H  H28  1  0.26819000  0.09855000  0.35497000  1
  H  H29  1  0.04556000  0.27090000  0.43590000  1
  H  H30  1  0.04552000  0.27091000  0.94151000  1
  C  C1  1  0.56280000  0.18335000  0.90961000  1
  C  C2  1  0.46877000  0.18197000  0.94384000  1
  C  C3  1  0.46879000  0.18196000  0.12572000  1
  C  C4  1  0.56282000  0.18335000  0.09151000  1
  C  C5  1  0.60982000  0.18405000  0.98345000  1
  C  C6  1  0.60984000  0.18404000  0.16535000  1
  C  C7  1  0.70387000  0.18543000  0.13114000  1
  C  C8  1  0.75087000  0.18612000  0.02309000  1
  C  C9  1  0.70385000  0.18543000  0.94924000  1
  C  C10  1  0.56284000  0.18334000  0.27341000  1
  C  C11  1  0.60986000  0.18403000  0.34725000  1
  C  C12  1  0.70389000  0.18542000  0.31304000  1
  C  C13  1  0.75090000  0.18612000  0.20499000  1
  C  C14  1  0.75092000  0.18611000  0.38689000  1
  C  C15  1  0.84494000  0.18750000  0.35268000  1
  C  C16  1  0.84492000  0.18751000  0.17078000  1
  C  C17  1  0.99201000  0.18967000  0.20821000  1
  C  C18  1  0.89194000  0.18820000  0.24462000  1
  C  C19  1  0.32170000  0.17979000  0.08828000  1
  C  C20  1  0.42177000  0.18127000  0.05187000  1
  C  C21  1  0.16179000  0.94316000  0.23741000  1
  C  C22  1  0.16040000  0.87033000  0.23792000  1
  C  C23  1  0.15970000  0.83393000  0.14722000  1
  C  C24  1  0.16037000  0.87035000  0.05602000  1
  C  C25  1  0.16176000  0.94318000  0.05552000  1
  C  C26  1  0.15553000  0.61450000  0.14872000  1
  C  C27  1  0.15820000  0.75496000  0.14775000  1
  C  C28  1  0.15334000  0.49911000  0.24046000  1
  C  C29  1  0.15194000  0.42629000  0.24097000  1
  C  C30  1  0.15192000  0.42631000  0.05906000  1
  C  C31  1  0.15331000  0.49914000  0.05857000  1
  C  C32  1  0.15402000  0.53554000  0.14927000  1
  C  C33  1  0.16394000  0.05709000  0.14568000  1
  C  C34  1  0.16247000  0.97958000  0.14622000  1
  C  C35  1  0.14976000  0.31238000  0.15081000  1
  C  C36  1  0.15124000  0.38989000  0.15027000  1
  C  C37  1  0.21822000  0.13723000  0.41589000  1
  C  C38  1  0.09551000  0.23222000  0.46050000  1
  C  C39  1  0.09551000  0.23223000  0.56552000  1
  C  C40  1  0.15686000  0.18473000  0.59573000  1
  C  C41  1  0.21822000  0.13723000  0.52092000  1
  C  C42  1  0.03414000  0.27973000  0.64033000  1
  C  C43  1  0.03413000  0.27973000  0.74536000  1
  C  C44  1  0.09549000  0.23224000  0.77557000  1
  C  C45  1  0.15685000  0.18473000  0.70076000  1
  C  C46  1  0.21820000  0.13724000  0.73097000  1
  C  C47  1  0.27957000  0.08973000  0.65616000  1
  C  C48  1  0.27957000  0.08973000  0.55114000  1
  C  C49  1  0.09549000  0.23224000  0.88060000  1
  C  C50  1  0.21820000  0.13724000  0.83600000  1
  N  N1  1  0.20882000  0.71444000  0.06165000  1
  N  N2  1  0.20751000  0.64526000  0.06213000  1
  N  N3  1  0.10492000  0.65554000  0.23483000  1
  N  N4  1  0.10624000  0.72473000  0.23435000  1
  N  N5  1  0.15947000  0.98081000  0.96284000  1
  N  N6  1  0.16516000  0.83508000  0.33039000  1
  N  N7  1  0.15929000  0.53332000  0.33248000  1
  N  N8  1  0.14823000  0.38935000  0.96683000  1
  N  N9  1  0.34568000  0.04265000  0.68493000  1
  N  N10  1  0.34570000  0.04265000  0.47428000  1
  N  N11  1  0.96958000  0.32809000  0.82112000  1
  N  N12  1  0.96897000  0.32761000  0.61167000  1
  N  N13  1  0.15684000  0.18474000  0.91081000  1
  N  N14  1  0.15687000  0.18472000  0.38568000  1
  O  O1  1  0.02559000  0.19017000  0.10865000  1
  O  O2  1  0.02560000  0.19016000  0.28334000  1
  O  O3  1  0.28812000  0.17929000  0.18784000  1
  O  O4  1  0.28811000  0.17930000  0.01315000  1
  O  O5  1  0.16445000  0.08309000  0.23284000  1
  O  O6  1  0.16443000  0.08310000  0.05815000  1
  O  O7  1  0.14927000  0.28637000  0.06365000  1
  O  O8  1  0.14927000  0.28636000  0.23834000  1
  F  F1  1  0.75110000  0.18319000  0.84450000  1
  F  F2  1  0.56363000  0.18040000  0.45155000  1
  F  F3  1  0.41071000  0.20209000  0.22249000  1
  F  F4  1  0.89576000  0.20924000  0.07664000  1
