# generated using pymatgen
data_CuH20C21N4O6F
_symmetry_space_group_name_H-M   'P 1'
_cell_length_a   12.81140000
_cell_length_b   17.01930000
_cell_length_c   14.47230000
_cell_angle_alpha   86.12780000
_cell_angle_beta   95.43700000
_cell_angle_gamma   84.08720000
_symmetry_Int_Tables_number   1
_chemical_formula_structural   CuH20C21N4O6F
_chemical_formula_sum   'Cu2 H40 C42 N8 O12 F2'
_cell_volume   3115.11266396
_cell_formula_units_Z   2
loop_
 _symmetry_equiv_pos_site_id
 _symmetry_equiv_pos_as_xyz
  1  'x, y, z'
loop_
 _atom_site_type_symbol
 _atom_site_label
 _atom_site_symmetry_multiplicity
 _atom_site_fract_x
 _atom_site_fract_y
 _atom_site_fract_z
 _atom_site_occupancy
  Cu  Cu1  1  0.10460000  0.21638000  0.07737000  1
  Cu  Cu2  1  0.10462000  0.21640000  0.25911000  1
  H  H1  1  0.78603000  0.21942000  0.29330000  1
  H  H2  1  0.42323000  0.21340000  0.34717000  1
  H  H3  1  0.42317000  0.21336000  0.04319000  1
  H  H4  1  0.78600000  0.21938000  0.98932000  1
  H  H5  1  0.03937000  0.91843000  0.44802000  1
  H  H6  1  0.11366000  0.99266000  0.49588000  1
  H  H7  1  0.18381000  0.90523000  0.45923000  1
  H  H8  1  0.26893000  0.78566000  0.96732000  1
  H  H9  1  0.28509000  0.87242000  0.02949000  1
  H  H10  1  0.28920000  0.77597000  0.09257000  1
  H  H11  1  0.02558000  0.52707000  0.87732000  1
  H  H12  1  0.09573000  0.43947000  0.84097000  1
  H  H13  1  0.16994000  0.51388000  0.88860000  1
  H  H14  1  0.91997000  0.65706000  0.24377000  1
  H  H15  1  0.92409000  0.56061000  0.30685000  1
  H  H16  1  0.94016000  0.64738000  0.36902000  1
  H  H17  1  0.11035000  0.97695000  0.03578000  1
  H  H18  1  0.10212000  0.60507000  0.98512000  1
  H  H19  1  0.09885000  0.45582000  0.30071000  1
  H  H20  1  0.10711000  0.82771000  0.35137000  1
  H  H21  1  0.10492000  0.73033000  0.05916000  1
  H  H22  1  0.10431000  0.70244000  0.27733000  1
  H  H23  1  0.83599000  0.22546000  0.56541000  1
  H  H24  1  0.90260000  0.30647000  0.56836000  1
  H  H25  1  0.83599000  0.23044000  0.72373000  1
  H  H26  1  0.90683000  0.30915000  0.71761000  1
  H  H27  1  0.22182000  0.38644000  0.57775000  1
  H  H28  1  0.29075000  0.29649000  0.60886000  1
  H  H29  1  0.23715000  0.37945000  0.73568000  1
  H  H30  1  0.22369000  0.32729000  0.83198000  1
  H  H31  1  0.25193000  0.03637000  0.61592000  1
  H  H32  1  0.11987000  0.04714000  0.61531000  1
  H  H33  1  0.21265000  0.07225000  0.85113000  1
  H  H34  1  0.11373000  0.05324000  0.77330000  1
  H  H35  1  0.27224000  0.16252000  0.76636000  1
  H  H36  1  0.27274000  0.16259000  0.60727000  1
  H  H37  1  0.97602000  0.13744000  0.58553000  1
  H  H38  1  0.97504000  0.13859000  0.74430000  1
  H  H39  1  0.07042000  0.34883000  0.73542000  1
  H  H40  1  0.06377000  0.34712000  0.57577000  1
  C  C1  1  0.57725000  0.21595000  0.29165000  1
  C  C2  1  0.46778000  0.21413000  0.28262000  1
  C  C3  1  0.46776000  0.21411000  0.11507000  1
  C  C4  1  0.57723000  0.21593000  0.12410000  1
  C  C5  1  0.63198000  0.21685000  0.21239000  1
  C  C6  1  0.74146000  0.21867000  0.22141000  1
  C  C7  1  0.74143000  0.21866000  0.05386000  1
  C  C8  1  0.63196000  0.21683000  0.04483000  1
  C  C9  1  0.91270000  0.22152000  0.15175000  1
  C  C10  1  0.79619000  0.21957000  0.14214000  1
  C  C11  1  0.29651000  0.21126000  0.18473000  1
  C  C12  1  0.41303000  0.21320000  0.19434000  1
  C  C13  1  0.10963000  0.94347000  0.10660000  1
  C  C14  1  0.10781000  0.86118000  0.11300000  1
  C  C15  1  0.10691000  0.82005000  0.19997000  1
  C  C16  1  0.10783000  0.86121000  0.28055000  1
  C  C17  1  0.10966000  0.94349000  0.27415000  1
  C  C18  1  0.10141000  0.57160000  0.22349000  1
  C  C19  1  0.09959000  0.48931000  0.22988000  1
  C  C20  1  0.09957000  0.48929000  0.06233000  1
  C  C21  1  0.10138000  0.57158000  0.05594000  1
  C  C22  1  0.10231000  0.61273000  0.13652000  1
  C  C23  1  0.10505000  0.73594000  0.20652000  1
  C  C24  1  0.10418000  0.69684000  0.12997000  1
  C  C25  1  0.11204000  0.94828000  0.44323000  1
  C  C26  1  0.25132000  0.81479000  0.03117000  1
  C  C27  1  0.09735000  0.48403000  0.89346000  1
  C  C28  1  0.95785000  0.61819000  0.30517000  1
  C  C29  1  0.11249000  0.07220000  0.18037000  1
  C  C30  1  0.11055000  0.98462000  0.18717000  1
  C  C31  1  0.09672000  0.36058000  0.15611000  1
  C  C32  1  0.09866000  0.44816000  0.14931000  1
  C  C33  1  0.10461000  0.21639000  0.57545000  1
  C  C34  1  0.19102000  0.15195000  0.62701000  1
  C  C35  1  0.19079000  0.15171000  0.73410000  1
  C  C36  1  0.10460000  0.21638000  0.76104000  1
  C  C37  1  0.99503000  0.19826000  0.71440000  1
  C  C38  1  0.99554000  0.19780000  0.60736000  1
  C  C39  1  0.12678000  0.29916000  0.61021000  1
  C  C40  1  0.12927000  0.29861000  0.71759000  1
  C  C41  1  0.10459000  0.21638000  0.86592000  1
  C  C42  1  0.10461000  0.21640000  0.47056000  1
  N  N1  1  0.90693000  0.24744000  0.55269000  1
  N  N2  1  0.90817000  0.25070000  0.74476000  1
  N  N3  1  0.22147000  0.32548000  0.57268000  1
  N  N4  1  0.22917000  0.32168000  0.76116000  1
  N  N5  1  0.18333000  0.07347000  0.59146000  1
  N  N6  1  0.18874000  0.07201000  0.78004000  1
  N  N7  1  0.10459000  0.21637000  0.94954000  1
  N  N8  1  0.10462000  0.21641000  0.38695000  1
  O  O1  1  0.95179000  0.22216000  0.07452000  1
  O  O2  1  0.95181000  0.22217000  0.23543000  1
  O  O3  1  0.25742000  0.21062000  0.26196000  1
  O  O4  1  0.25741000  0.21060000  0.10105000  1
  O  O5  1  0.11110000  0.98823000  0.35312000  1
  O  O6  1  0.13950000  0.82660000  0.03337000  1
  O  O7  1  0.09814000  0.44426000  0.98368000  1
  O  O8  1  0.06967000  0.60644000  0.30304000  1
  O  O9  1  0.11315000  0.10159000  0.25854000  1
  O  O10  1  0.11313000  0.10158000  0.09763000  1
  O  O11  1  0.09606000  0.33119000  0.07794000  1
  O  O12  1  0.09609000  0.33120000  0.23885000  1
  F  F1  1  0.62863000  0.21681000  0.37800000  1
  F  F2  1  0.58058000  0.21598000  0.95848000  1
