# Generated by REPEAT Assigner based on pymatgen
data_DB11-pMOF_153
_audit_creation_date              2022-05-24
_audit_creation_method            REPEAT_Assigner
_cell_length_a                    9.065200
_cell_length_b                    15.944500
_cell_length_c                    15.500400
_cell_angle_alpha                 92.837600
_cell_angle_beta                  87.139200
_cell_angle_gamma                 84.249600
_cell_volume                      2223.025153
_symmetry_space_group_name_H-M    P1
_symmetry_Int_Tables_number       1
loop_
    _symmetry_equiv_pos_site_id
    _symmetry_equiv_pos_as_xyz
    1  x,y,z
loop_
    _atom_site_type_symbol
    _atom_site_label
    _atom_site_fract_x
    _atom_site_fract_y
    _atom_site_fract_z
    _atom_type_partial_charge
    Cu  Cu1  0.077040  0.202330  0.121820  0.707707
    Cu  Cu2  0.060910  0.211450  0.291980  0.715475
    C   C1   0.799250  0.210980  0.206890  0.860944
    C   C2   0.635480  0.208080  0.206890  -0.207922
    O   O1   0.861350  0.207920  0.131570  -0.570972
    O   O2   0.847070  0.215990  0.282220  -0.581695
    C   C3   0.338700  0.202810  0.206900  0.862956
    C   C4   0.502480  0.205720  0.206900  -0.211811
    O   O3   0.290890  0.197790  0.131570  -0.580694
    O   O4   0.276610  0.205870  0.282220  -0.572336
    C   C5   0.062080  0.739170  0.288830  -0.167576
    C   C6   0.942660  0.689300  0.247880  -0.168867
    C   C7   0.071530  0.789370  0.206900  0.676449
    C   C8   0.185740  0.673050  0.247860  -0.156462
    C   C9   0.066420  0.624420  0.206890  0.673004
    C   C10  0.952050  0.740740  0.165950  -0.161221
    C   C11  0.195240  0.724490  0.165940  -0.175737
    C   C12  0.075800  0.674650  0.124930  -0.163035
    C   C13  0.074480  0.884400  0.206910  -0.426659
    C   C14  0.063470  0.529400  0.206880  -0.429792
    H   H1   0.056150  0.767370  0.358100  0.066716
    H   H2   0.835840  0.673510  0.282510  0.072877
    H   H3   0.853210  0.770180  0.131350  0.071496
    H   H4   0.081550  0.646610  0.055610  0.066500
    H   H5   0.302070  0.740300  0.131350  0.074454
    H   H6   0.284460  0.643520  0.282510  0.071154
    C   C15  0.079750  0.053400  0.206910  0.772097
    C   C16  0.076840  0.960140  0.206910  -0.112901
    O   O5   0.073590  0.088740  0.282230  -0.564283
    O   O6   0.087870  0.080670  0.131580  -0.572108
    C   C17  0.058210  0.360380  0.206880  0.770041
    C   C18  0.061120  0.453650  0.206880  -0.109211
    O   O7   0.064370  0.325050  0.131560  -0.562853
    O   O8   0.050080  0.333120  0.282210  -0.573360
    C   C19  0.992620  0.249940  0.956830  -0.077910
    C   C20  0.001250  0.245080  0.866260  -0.235733
    C   C21  0.105660  0.186200  0.820990  0.332256
    C   C22  0.201450  0.132180  0.866300  -0.288016
    C   C23  0.192820  0.137040  0.956870  -0.031899
    C   C24  0.136720  0.168700  0.547540  -0.235912
    C   C25  0.145340  0.163850  0.456960  -0.076884
    C   C26  0.945140  0.276750  0.456920  -0.032100
    C   C27  0.936520  0.281610  0.547490  -0.288262
    C   C28  0.032310  0.227580  0.592790  0.332733
    C   C29  0.114480  0.181230  0.728420  -0.224769
    C   C30  0.023500  0.232560  0.685370  -0.226001
    H   H7   0.907600  0.297880  0.993680  0.160267
    H   H8   0.923270  0.289080  0.829380  0.137712
    H   H9   0.851500  0.329550  0.584350  0.140686
    H   H10  0.867150  0.320740  0.420030  0.159618
    H   H11  0.230360  0.115890  0.420110  0.159994
    H   H12  0.214720  0.124710  0.584410  0.137479
    H   H13  0.286470  0.084240  0.829440  0.140587
    H   H14  0.270810  0.093040  0.993750  0.159322
    H   H15  0.938490  0.280500  0.722230  0.142971
    H   H16  0.199490  0.133290  0.691550  0.142703
    N   N1   0.088400  0.195920  0.002130  0.090265
    N   N2   0.049560  0.217870  0.411660  0.088515
