# generated using pymatgen
data_CuH7C20N(O2F3)2
_symmetry_space_group_name_H-M   'P 1'
_cell_length_a   14.85350000
_cell_length_b   12.81140000
_cell_length_c   14.47230000
_cell_angle_alpha   84.57390000
_cell_angle_beta   90.00400000
_cell_angle_gamma   83.83600000
_symmetry_Int_Tables_number   1
_chemical_formula_structural   CuH7C20N(O2F3)2
_chemical_formula_sum   'Cu2 H14 C40 N2 O8 F12'
_cell_volume   2725.65713383
_cell_formula_units_Z   2
loop_
 _symmetry_equiv_pos_site_id
 _symmetry_equiv_pos_as_xyz
  1  'x, y, z'
loop_
 _atom_site_type_symbol
 _atom_site_label
 _atom_site_symmetry_multiplicity
 _atom_site_fract_x
 _atom_site_fract_y
 _atom_site_fract_z
 _atom_site_occupancy
  Cu  Cu1  1  0.19226000  0.14107000  0.06292000  1
  Cu  Cu2  1  0.19227000  0.14109000  0.24466000  1
  H  H1  1  0.91863000  0.14608000  0.00138000  1
  H  H2  1  0.46588000  0.13605000  0.00222000  1
  H  H3  1  0.46591000  0.13607000  0.30619000  1
  H  H4  1  0.91864000  0.14611000  0.30536000  1
  H  H5  1  0.19571000  0.82249000  0.02849000  1
  H  H6  1  0.18882000  0.45966000  0.97510000  1
  H  H7  1  0.18883000  0.45965000  0.27908000  1
  H  H8  1  0.19572000  0.82251000  0.33247000  1
  H  H9  1  0.33591000  0.06887000  0.73963000  1
  H  H10  1  0.33634000  0.06895000  0.58049000  1
  H  H11  1  0.08133000  0.03645000  0.58435000  1
  H  H12  1  0.08048000  0.03797000  0.74316000  1
  H  H13  1  0.16374000  0.31740000  0.71959000  1
  H  H14  1  0.15801000  0.31515000  0.56055000  1
  C  C1  1  0.50417000  0.13689000  0.07036000  1
  C  C2  1  0.50418000  0.13691000  0.23791000  1
  C  C3  1  0.59822000  0.13900000  0.23774000  1
  C  C4  1  0.64524000  0.14004000  0.15388000  1
  C  C5  1  0.59822000  0.13898000  0.07019000  1
  C  C6  1  0.64525000  0.14004000  0.32143000  1
  C  C7  1  0.73930000  0.14213000  0.32126000  1
  C  C8  1  0.78632000  0.14318000  0.23740000  1
  C  C9  1  0.73929000  0.14212000  0.15370000  1
  C  C10  1  0.78631000  0.14316000  0.06984000  1
  C  C11  1  0.73928000  0.14211000  0.98615000  1
  C  C12  1  0.64524000  0.14002000  0.98632000  1
  C  C13  1  0.88036000  0.14526000  0.23722000  1
  C  C14  1  0.88036000  0.14524000  0.06967000  1
  C  C15  1  0.02747000  0.14851000  0.15317000  1
  C  C16  1  0.92738000  0.14630000  0.15336000  1
  C  C17  1  0.35707000  0.13365000  0.15441000  1
  C  C18  1  0.45716000  0.13586000  0.15422000  1
  C  C19  1  0.19175000  0.61370000  0.03042000  1
  C  C20  1  0.18966000  0.50422000  0.03959000  1
  C  C21  1  0.18967000  0.50423000  0.20714000  1
  C  C22  1  0.19175000  0.61371000  0.19797000  1
  C  C23  1  0.19279000  0.66844000  0.10961000  1
  C  C24  1  0.19487000  0.77793000  0.10044000  1
  C  C25  1  0.19488000  0.77793000  0.26799000  1
  C  C26  1  0.19279000  0.66845000  0.27716000  1
  C  C27  1  0.19813000  0.94919000  0.16987000  1
  C  C28  1  0.19591000  0.83267000  0.17963000  1
  C  C29  1  0.18640000  0.33296000  0.13771000  1
  C  C30  1  0.18862000  0.44948000  0.12795000  1
  C  C31  1  0.19227000  0.14109000  0.56099000  1
  C  C32  1  0.26608000  0.05506000  0.60740000  1
  C  C33  1  0.26589000  0.05474000  0.71451000  1
  C  C34  1  0.19226000  0.14107000  0.74659000  1
  C  C35  1  0.09804000  0.11731000  0.70969000  1
  C  C36  1  0.09847000  0.11670000  0.60262000  1
  C  C37  1  0.21183000  0.25113000  0.59126000  1
  C  C38  1  0.21397000  0.25039000  0.69845000  1
  C  C39  1  0.19225000  0.14106000  0.85147000  1
  C  C40  1  0.19227000  0.14109000  0.45610000  1
  N  N1  1  0.19225000  0.14106000  0.93509000  1
  N  N2  1  0.19228000  0.14110000  0.37249000  1
  O  O1  1  0.06105000  0.14925000  0.07265000  1
  O  O2  1  0.06106000  0.14926000  0.23356000  1
  O  O3  1  0.32348000  0.13293000  0.23493000  1
  O  O4  1  0.32347000  0.13288000  0.07402000  1
  O  O5  1  0.19888000  0.98830000  0.24705000  1
  O  O6  1  0.19887000  0.98829000  0.08614000  1
  O  O7  1  0.18566000  0.29386000  0.06053000  1
  O  O8  1  0.18566000  0.29387000  0.22144000  1
  F  F1  1  0.60093000  0.13908000  0.40354000  1
  F  F2  1  0.78365000  0.14312000  0.40320000  1
  F  F3  1  0.78360000  0.14307000  0.90404000  1
  F  F4  1  0.60089000  0.13903000  0.90438000  1
  F  F5  1  0.19271000  0.66506000  0.94400000  1
  F  F6  1  0.19183000  0.61709000  0.36357000  1
  F  F7  1  0.25198000  0.95631000  0.58237000  1
  F  F8  1  0.02986000  0.18916000  0.56310000  1
  F  F9  1  0.29766000  0.27378000  0.72852000  1
  F  F10  1  0.25087000  0.95601000  0.75597000  1
  F  F11  1  0.29323000  0.27844000  0.55463000  1
  F  F12  1  0.03031000  0.19148000  0.73641000  1
