# generated using pymatgen
data_CuH9C20N2O4F5
_symmetry_space_group_name_H-M   'P 1'
_cell_length_a   15.99530000
_cell_length_b   14.85350000
_cell_length_c   11.29570000
_cell_angle_alpha   94.11690000
_cell_angle_beta   85.92250000
_cell_angle_gamma   83.55460000
_symmetry_Int_Tables_number   1
_chemical_formula_structural   CuH9C20N2O4F5
_chemical_formula_sum   'Cu2 H18 C40 N4 O8 F10'
_cell_volume   2651.35982962
_cell_formula_units_Z   2
loop_
 _symmetry_equiv_pos_site_id
 _symmetry_equiv_pos_as_xyz
  1  'x, y, z'
loop_
 _atom_site_type_symbol
 _atom_site_label
 _atom_site_symmetry_multiplicity
 _atom_site_fract_x
 _atom_site_fract_y
 _atom_site_fract_z
 _atom_site_occupancy
  Cu  Cu1  1  0.18915000  0.17535000  0.00492000  1
  Cu  Cu2  1  0.17587000  0.18974000  0.23913000  1
  H  H1  1  0.75738000  0.23444000  0.94067000  1
  H  H2  1  0.61367000  0.23206000  0.94036000  1
  H  H3  1  0.62902000  0.03188000  0.13992000  1
  H  H4  1  0.77237000  0.03508000  0.14181000  1
  H  H5  1  0.73520000  0.28528000  0.28142000  1
  H  H6  1  0.59194000  0.27700000  0.28475000  1
  H  H7  1  0.17541000  0.92093000  0.31789000  1
  H  H8  1  0.16741000  0.46822000  0.31789000  1
  H  H9  1  0.18961000  0.44416000  0.92617000  1
  H  H10  1  0.19761000  0.89685000  0.92615000  1
  H  H11  1  0.04434000  0.37418000  0.73346000  1
  H  H12  1  0.99125000  0.37507000  0.60147000  1
  H  H13  1  0.36028000  0.97557000  0.64257000  1
  H  H14  1  0.35979000  0.03276000  0.51060000  1
  H  H15  1  0.09620000  0.27594000  0.82857000  1
  H  H16  1  0.06294000  0.31200000  0.41543000  1
  H  H17  1  0.26882000  0.08915000  0.41546000  1
  H  H18  1  0.30208000  0.05309000  0.82864000  1
  C  C1  1  0.59873000  0.18095000  0.12203000  1
  C  C2  1  0.64146000  0.17395000  0.99158000  1
  C  C3  1  0.73819000  0.17544000  0.99150000  1
  C  C4  1  0.76629000  0.18413000  0.12201000  1
  C  C5  1  0.73789000  0.10141000  0.18680000  1
  C  C6  1  0.64123000  0.09945000  0.18596000  1
  C  C7  1  0.62034000  0.27095000  0.18864000  1
  C  C8  1  0.71706000  0.27377000  0.18620000  1
  C  C9  1  0.86099000  0.18593000  0.12201000  1
  C  C10  1  0.50403000  0.17915000  0.12204000  1
  C  C11  1  0.02944000  0.18914000  0.12201000  1
  C  C12  1  0.93648000  0.18736000  0.12199000  1
  C  C13  1  0.33559000  0.17595000  0.12204000  1
  C  C14  1  0.42854000  0.17772000  0.12205000  1
  C  C15  1  0.17306000  0.50110000  0.22999000  1
  C  C16  1  0.18530000  0.48784000  0.01407000  1
  C  C17  1  0.18697000  0.58187000  0.01407000  1
  C  C18  1  0.18168000  0.63552000  0.12202000  1
  C  C19  1  0.17473000  0.59514000  0.22999000  1
  C  C20  1  0.19391000  0.62225000  0.90611000  1
  C  C21  1  0.19558000  0.71629000  0.90610000  1
  C  C22  1  0.19030000  0.76994000  0.01406000  1
  C  C23  1  0.18334000  0.72956000  0.12202000  1
  C  C24  1  0.17806000  0.78321000  0.22998000  1
  C  C25  1  0.17111000  0.74283000  0.33795000  1
  C  C26  1  0.16945000  0.64880000  0.33794000  1
  C  C27  1  0.19196000  0.86398000  0.01406000  1
  C  C28  1  0.17972000  0.87725000  0.22998000  1
  C  C29  1  0.18844000  0.01771000  0.12202000  1
  C  C30  1  0.18668000  0.91763000  0.12202000  1
  C  C31  1  0.17658000  0.34737000  0.12203000  1
  C  C32  1  0.17835000  0.44745000  0.12203000  1
  C  C33  1  0.09918000  0.27275000  0.59084000  1
  C  C34  1  0.10626000  0.26510000  0.46618000  1
  C  C35  1  0.21973000  0.14227000  0.46621000  1
  C  C36  1  0.21265000  0.14992000  0.59087000  1
  C  C37  1  0.15237000  0.21517000  0.65318000  1
  C  C38  1  0.14529000  0.22282000  0.77784000  1
  C  C39  1  0.25877000  0.09999000  0.77787000  1
  C  C40  1  0.26585000  0.09233000  0.65321000  1
  N  N1  1  0.03822000  0.34343000  0.64922000  1
  N  N2  1  0.33114000  0.02629000  0.59483000  1
  N  N3  1  0.19849000  0.16523000  0.84019000  1
  N  N4  1  0.16653000  0.19985000  0.40386000  1
  O  O1  1  0.06650000  0.18336000  0.01833000  1
  O  O2  1  0.05475000  0.19610000  0.22569000  1
  O  O3  1  0.29855000  0.18145000  0.22572000  1
  O  O4  1  0.31024000  0.16925000  0.01836000  1
  O  O5  1  0.18316000  0.05767000  0.22570000  1
  O  O6  1  0.19491000  0.04493000  0.01834000  1
  O  O7  1  0.18188000  0.30742000  0.01835000  1
  O  O8  1  0.17010000  0.32016000  0.22571000  1
  F  F1  1  0.62386000  0.09563000  0.92877000  1
  F  F2  1  0.60511000  0.10085000  0.30151000  1
  F  F3  1  0.73975000  0.34876000  0.13039000  1
  F  F4  1  0.78065000  0.09765000  0.92950000  1
  F  F5  1  0.58272000  0.34590000  0.13785000  1
  F  F6  1  0.76146000  0.10575000  0.30286000  1
  F  F7  1  0.19913000  0.57144000  0.80040000  1
  F  F8  1  0.20235000  0.75414000  0.80040000  1
  F  F9  1  0.16589000  0.79365000  0.44365000  1
  F  F10  1  0.16267000  0.61095000  0.44364000  1
