# Generated by REPEAT Assigner based on pymatgen
data_DB6-cuf_6812
_audit_creation_date              2022-05-24
_audit_creation_method            REPEAT_Assigner
_cell_length_a                    14.971500
_cell_length_b                    17.019300
_cell_length_c                    11.295700
_cell_angle_alpha                 90.239400
_cell_angle_beta                  85.909900
_cell_angle_gamma                 83.503300
_cell_volume                      2852.210740
_symmetry_space_group_name_H-M    P1
_symmetry_Int_Tables_number       1
loop_
    _symmetry_equiv_pos_site_id
    _symmetry_equiv_pos_as_xyz
    1  x,y,z
loop_
    _atom_site_type_symbol
    _atom_site_label
    _atom_site_fract_x
    _atom_site_fract_y
    _atom_site_fract_z
    _atom_type_partial_charge
    Cu  Cu1  0.220860  0.141390  0.999790  0.601131
    Cu  Cu2  0.206730  0.153900  0.232720  0.775534
    C   C1   0.897810  0.156560  0.223310  0.205289
    C   C2   0.804510  0.155020  0.223460  -0.198998
    C   C3   0.764380  0.148490  0.116170  -0.110333
    C   C4   0.817550  0.143500  0.008720  0.230751
    C   C5   0.910860  0.145040  0.008570  -0.145529
    C   C6   0.623080  0.140270  0.009050  -0.060806
    C   C7   0.529770  0.138730  0.009200  -0.016549
    C   C8   0.516730  0.150250  0.223940  0.301104
    C   C9   0.610040  0.151800  0.223780  -0.303451
    C   C10  0.663210  0.146810  0.116330  0.180786
    O   O1   0.458930  0.155820  0.329130  -0.138816
    C   C11  0.495340  0.164990  0.441190  -0.159853
    H   H1   0.439560  0.168750  0.511770  0.102577
    H   H2   0.527480  0.220630  0.444030  0.076036
    H   H3   0.543920  0.112920  0.459610  0.074282
    O   O2   0.943330  0.162460  0.328070  -0.121001
    C   C12  0.893510  0.165490  0.440940  -0.095488
    H   H4   0.843230  0.218890  0.448470  0.040941
    H   H5   0.940860  0.169410  0.511320  0.077438
    H   H6   0.860330  0.110770  0.455360  0.071818
    O   O3   0.792240  0.096750  0.915600  -0.197668
    C   C13  0.829070  0.108770  0.797270  -0.057413
    H   H7   0.783060  0.088600  0.733620  0.058381
    H   H8   0.895350  0.072600  0.780580  0.058858
    H   H9   0.835240  0.172380  0.780870  0.069308
    O   O4   0.654740  0.177400  0.905910  -0.199450
    C   C14  0.648020  0.262100  0.912010  0.015573
    H   H10  0.616760  0.286990  0.998510  0.057479
    H   H11  0.716410  0.281110  0.897600  0.016935
    H   H12  0.606590  0.286850  0.840470  0.035897
    H   H13  0.761230  0.159090  0.310950  0.123055
    H   H14  0.642710  0.157110  0.311150  0.128388
    H   H15  0.497100  0.133410  0.921830  0.111762
    H   H16  0.954140  0.140970  0.921070  0.109802
    C   C15  0.050290  0.153220  0.115690  0.650144
    C   C16  0.950990  0.151570  0.115860  -0.183251
    O   O5   0.089870  0.148230  0.012520  -0.494034
    O   O6   0.077350  0.159300  0.218750  -0.556270
    C   C17  0.377300  0.142070  0.116810  0.642294
    C   C18  0.476600  0.143720  0.116640  -0.243728
    O   O7   0.337720  0.147050  0.219990  -0.539182
    O   O8   0.350230  0.135990  0.013760  -0.516499
    C   C19  0.222900  0.870440  0.036710  -0.163678
    C   C20  0.220850  0.788610  0.045110  0.161079
    C   C21  0.213300  0.753460  0.156670  0.129707
    C   C22  0.207820  0.800150  0.259850  -0.390621
    C   C23  0.209880  0.881980  0.251450  0.433276
    C   C24  0.206750  0.506680  0.187400  0.176909
    C   C25  0.204680  0.424840  0.195790  -0.178819
    C   C26  0.217710  0.413310  0.981050  0.367767
    C   C27  0.219770  0.495140  0.972670  -0.358990
    C   C28  0.214290  0.541820  0.075840  0.110689
    C   C29  0.211190  0.669820  0.165260  -0.158521
    C   C30  0.216410  0.625460  0.067250  -0.151474
    F   F1   0.203950  0.755430  0.940830  -0.152651
    F   F2   0.204370  0.927230  0.351350  -0.231497
    F   F3   0.223700  0.539860  0.291680  -0.156777
    F   F4   0.223220  0.368060  0.881160  -0.200345
    H   H17  0.229040  0.899060  0.945860  0.156122
    H   H18  0.225910  0.523760  0.881820  0.177008
    H   H19  0.198540  0.396230  0.286650  0.153367
    H   H20  0.201680  0.771530  0.350690  0.184248
    H   H21  0.222550  0.654080  0.976420  0.144981
    H   H22  0.205050  0.641200  0.256100  0.147467
    C   C31  0.219620  0.004220  0.130950  0.644110
    C   C32  0.217420  0.917130  0.139880  -0.250537
    O   O9   0.214100  0.038980  0.231070  -0.430198
    O   O10  0.226610  0.027910  0.024840  -0.490758
    C   C33  0.207970  0.291070  0.101550  0.612775
    C   C34  0.210170  0.378160  0.092630  -0.202070
    O   O11  0.213480  0.256310  0.001430  -0.415643
    O   O12  0.200980  0.267380  0.207660  -0.498088
    C   C35  0.125050  0.226050  0.577040  0.207124
    C   C36  0.132590  0.219400  0.453060  0.012959
    C   C37  0.253430  0.112640  0.464020  0.169218
    C   C38  0.245890  0.119290  0.588000  -0.059581
    C   C39  0.181700  0.176000  0.644500  -0.098091
    C   C40  0.174160  0.182650  0.768480  0.086616
    C   C41  0.295000  0.075890  0.779440  -0.066858
    C   C42  0.302540  0.069240  0.655460  0.197842
    O   O13  0.061210  0.282440  0.638380  -0.232871
    C   C43  0.002460  0.334340  0.572050  -0.061866
    H   H23  0.041840  0.371920  0.512910  0.062386
    H   H24  0.957740  0.373840  0.634870  0.093831
    H   H25  0.959340  0.300150  0.520250  0.065414
    O   O14  0.366380  0.012850  0.594120  -0.213414
    C   C44  0.425130  0.960950  0.660450  -0.057573
    H   H26  0.469840  0.921450  0.597630  0.093679
    H   H27  0.385750  0.923370  0.719590  0.056897
    H   H28  0.468250  0.995150  0.712250  0.065168
    H   H29  0.121880  0.228830  0.814490  0.077718
    H   H30  0.086470  0.260170  0.398140  0.102686
    H   H31  0.305700  0.066470  0.417990  0.063859
    H   H32  0.341120  0.035130  0.834380  0.123538
    N   N1   0.230810  0.132600  0.835960  -0.103002
    N   N2   0.196780  0.162690  0.396550  -0.231759
