# generated using pymatgen
data_CuH19C21N5O6
_symmetry_space_group_name_H-M   'P 1'
_cell_length_a   15.94450000
_cell_length_b   17.01930000
_cell_length_c   11.29570000
_cell_angle_alpha   90.23940000
_cell_angle_beta   85.92140000
_cell_angle_gamma   83.44150000
_symmetry_Int_Tables_number   1
_chemical_formula_structural   CuH19C21N5O6
_chemical_formula_sum   'Cu2 H38 C42 N10 O12'
_cell_volume   3037.24291196
_cell_formula_units_Z   2
loop_
 _symmetry_equiv_pos_site_id
 _symmetry_equiv_pos_as_xyz
  1  'x, y, z'
loop_
 _atom_site_type_symbol
 _atom_site_label
 _atom_site_symmetry_multiplicity
 _atom_site_fract_x
 _atom_site_fract_y
 _atom_site_fract_z
 _atom_site_occupancy
  Cu  Cu1  1  0.17886000  0.21440000  0.97894000  1
  Cu  Cu2  1  0.16558000  0.22692000  0.21187000  1
  H  H1  1  0.59978000  0.04609000  0.04952000  1
  H  H2  1  0.68957000  0.04285000  0.96180000  1
  H  H3  1  0.76821000  0.11407000  0.28504000  1
  H  H4  1  0.78218000  0.05770000  0.16144000  1
  H  H5  1  0.77024000  0.25616000  0.83861000  1
  H  H6  1  0.78365000  0.15724000  0.84866000  1
  H  H7  1  0.55380000  0.38089000  0.01494000  1
  H  H8  1  0.64416000  0.37839000  0.92865000  1
  H  H9  1  0.64321000  0.39209000  0.21735000  1
  H  H10  1  0.73275000  0.34553000  0.26541000  1
  H  H11  1  0.64205000  0.23544000  0.37659000  1
  H  H12  1  0.55261000  0.28159000  0.32777000  1
  H  H13  1  0.09916000  0.94255000  0.46094000  1
  H  H14  1  0.15557000  0.01939000  0.51434000  1
  H  H15  1  0.21481000  0.92881000  0.45987000  1
  H  H16  1  0.31942000  0.77462000  0.82032000  1
  H  H17  1  0.32790000  0.86552000  0.89827000  1
  H  H18  1  0.32660000  0.77337000  0.97868000  1
  H  H19  1  0.12977000  0.51204000  0.73101000  1
  H  H20  1  0.18899000  0.42131000  0.67692000  1
  H  H21  1  0.24535000  0.49832000  0.73003000  1
  H  H22  1  0.01781000  0.66820000  0.21195000  1
  H  H23  1  0.01652000  0.57605000  0.29236000  1
  H  H24  1  0.02494000  0.66695000  0.37031000  1
  H  H25  1  0.18654000  0.97206000  0.92502000  1
  H  H26  1  0.18360000  0.59676000  0.86098000  1
  H  H27  1  0.15789000  0.46927000  0.26579000  1
  H  H28  1  0.16085000  0.84456000  0.32983000  1
  H  H29  1  0.18045000  0.72709000  0.95557000  1
  H  H30  1  0.16401000  0.71422000  0.23525000  1
  H  H31  1  0.03416000  0.38741000  0.68975000  1
  H  H32  1  0.98091000  0.38819000  0.55768000  1
  H  H33  1  0.34995000  0.04057000  0.63441000  1
  H  H34  1  0.34963000  0.09034000  0.49734000  1
  H  H35  1  0.08591000  0.30193000  0.79362000  1
  H  H36  1  0.05265000  0.33333333  0.37726000  1
  H  H37  1  0.25853000  0.13940000  0.39717000  1
  H  H38  1  0.29179000  0.10803000  0.81356000  1
  C  C1  1  0.70649000  0.21510000  0.98320000  1
  C  C2  1  0.65626000  0.15254000  0.04597000  1
  C  C3  1  0.75468000  0.22202000  0.09526000  1
  C  C4  1  0.63876000  0.28180000  0.03275000  1
  C  C5  1  0.58976000  0.21930000  0.09555000  1
  C  C6  1  0.70569000  0.15944000  0.15804000  1
  C  C7  1  0.68819000  0.28876000  0.14479000  1
  C  C8  1  0.63798000  0.22619000  0.20765000  1
  C  C9  1  0.84969000  0.22359000  0.09509000  1
  C  C10  1  0.49475000  0.21773000  0.09572000  1
  C  C11  1  0.01868000  0.22639000  0.09480000  1
  C  C12  1  0.92542000  0.22484000  0.09495000  1
  C  C13  1  0.32576000  0.21494000  0.09601000  1
  C  C14  1  0.41902000  0.21649000  0.09586000  1
  C  C15  1  0.18077000  0.94346000  0.01587000  1
  C  C16  1  0.17884000  0.86163000  0.02426000  1
  C  C17  1  0.17176000  0.82648000  0.13582000  1
  C  C18  1  0.16661000  0.87318000  0.23900000  1
  C  C19  1  0.16855000  0.95501000  0.23060000  1
  C  C20  1  0.16560000  0.57971000  0.16655000  1
  C  C21  1  0.16366000  0.49787000  0.17494000  1
  C  C22  1  0.17590000  0.48632000  0.96021000  1
  C  C23  1  0.17783000  0.56815000  0.95182000  1
  C  C24  1  0.17269000  0.61484000  0.05499000  1
  C  C25  1  0.16978000  0.74284000  0.14441000  1
  C  C26  1  0.17467000  0.69848000  0.04640000  1
  C  C27  1  0.15811000  0.97140000  0.44704000  1
  C  C28  1  0.30055000  0.80830000  0.90404000  1
  C  C29  1  0.18646000  0.46946000  0.74402000  1
  C  C30  1  0.04387000  0.63321000  0.28660000  1
  C  C31  1  0.17769000  0.07723000  0.11010000  1
  C  C32  1  0.17563000  0.99014000  0.11903000  1
  C  C33  1  0.16675000  0.36409000  0.08070000  1
  C  C34  1  0.16881000  0.45118000  0.07178000  1
  C  C35  1  0.08888000  0.29916000  0.55617000  1
  C  C36  1  0.09596000  0.29250000  0.43219000  1
  C  C37  1  0.20944000  0.18562000  0.44318000  1
  C  C38  1  0.20236000  0.19228000  0.56716000  1
  C  C39  1  0.14208000  0.24905000  0.62365000  1
  C  C40  1  0.13500000  0.25571000  0.74763000  1
  C  C41  1  0.24848000  0.14883000  0.75861000  1
  C  C42  1  0.25556000  0.14217000  0.63463000  1
  N  N1  1  0.63176000  0.07684000  0.98395000  1
  N  N2  1  0.73636000  0.09073000  0.21779000  1
  N  N3  1  0.73801000  0.20660000  0.85366000  1
  N  N4  1  0.59548000  0.34500000  0.95656000  1
  N  N5  1  0.70105000  0.35997000  0.18922000  1
  N  N6  1  0.59377000  0.22913000  0.32060000  1
  N  N7  1  0.02793000  0.36065000  0.60825000  1
  N  N8  1  0.32087000  0.08471000  0.58214000  1
  N  N9  1  0.18820000  0.20560000  0.81511000  1
  N  N10  1  0.15624000  0.23573000  0.37569000  1
  O  O1  1  0.05585000  0.22137000  0.99164000  1
  O  O2  1  0.04409000  0.23245000  0.19786000  1
  O  O3  1  0.28859000  0.21996000  0.19917000  1
  O  O4  1  0.30035000  0.20887000  0.99294000  1
  O  O5  1  0.16394000  0.00517000  0.33165000  1
  O  O6  1  0.21022000  0.82127000  0.91882000  1
  O  O7  1  0.18050000  0.43590000  0.85957000  1
  O  O8  1  0.13419000  0.62030000  0.27190000  1
  O  O9  1  0.17250000  0.11200000  0.21022000  1
  O  O10  1  0.18426000  0.10092000  0.00400000  1
  O  O11  1  0.17193000  0.32933000  0.98058000  1
  O  O12  1  0.16019000  0.34041000  0.18681000  1
