# Generated by REPEAT Assigner based on pymatgen
data_DB6-cuf_1590
_audit_creation_date              2022-05-24
_audit_creation_method            REPEAT_Assigner
_cell_length_a                    14.853500
_cell_length_b                    16.109300
_cell_length_c                    14.472300
_cell_angle_alpha                 90.008100
_cell_angle_beta                  90.004000
_cell_angle_gamma                 83.547100
_cell_volume                      3440.985402
_symmetry_space_group_name_H-M    P1
_symmetry_Int_Tables_number       1
loop_
    _symmetry_equiv_pos_site_id
    _symmetry_equiv_pos_as_xyz
    1  x,y,z
loop_
    _atom_site_type_symbol
    _atom_site_label
    _atom_site_fract_x
    _atom_site_fract_y
    _atom_site_fract_z
    _atom_type_partial_charge
    Cu  Cu1  0.221880  0.095490  0.080480  0.847582
    Cu  Cu2  0.221890  0.095500  0.262230  0.805582
    C   C1   0.533810  0.092180  0.087580  -0.178643
    C   C2   0.533820  0.092200  0.255130  -0.171688
    C   C3   0.627850  0.093850  0.255130  0.098452
    C   C4   0.674870  0.094670  0.171360  -0.119466
    C   C5   0.627850  0.093840  0.087580  0.093614
    C   C6   0.674880  0.094680  0.338910  0.126479
    C   C7   0.768910  0.096330  0.338910  0.147454
    C   C8   0.815930  0.097160  0.255140  0.047212
    C   C9   0.768910  0.096320  0.171360  -0.079561
    C   C10  0.815920  0.097140  0.087580  0.055066
    C   C11  0.768900  0.096320  0.003800  0.141343
    C   C12  0.674860  0.094660  0.003800  0.131558
    C   C13  0.909960  0.098810  0.255140  -0.115037
    C   C14  0.909960  0.098800  0.087580  -0.122140
    O   O1   0.816560  0.096320  0.919980  -0.281790
    C   C15  0.818220  0.021140  0.866980  0.026016
    H   H1   0.889740  0.995470  0.855090  0.052986
    H   H2   0.785760  0.035790  0.798990  0.043411
    H   H3   0.783040  0.972130  0.901590  0.033789
    O   O2   0.627180  0.094630  0.919980  -0.274980
    C   C16  0.625580  0.169800  0.866990  -0.015116
    H   H4   0.554050  0.195470  0.855110  0.061838
    H   H5   0.657950  0.155210  0.798990  0.058047
    H   H6   0.660690  0.218820  0.901610  0.040854
    O   O3   0.816600  0.096360  0.422730  -0.276991
    C   C17  0.818200  0.021190  0.475720  0.020332
    H   H7   0.785760  0.035840  0.543720  0.042383
    H   H8   0.889730  0.995520  0.487610  0.053947
    H   H9   0.783080  0.972170  0.441110  0.034879
    O   O4   0.627220  0.094670  0.422740  -0.272794
    C   C18  0.625560  0.169850  0.475740  -0.010973
    H   H10  0.554040  0.195520  0.487620  0.071601
    H   H11  0.660740  0.218860  0.441120  0.036295
    H   H12  0.658020  0.155210  0.543730  0.056802
    H   H13  0.948230  0.099460  0.019360  0.105955
    H   H14  0.495520  0.091510  0.019360  0.129076
    H   H15  0.495540  0.091530  0.323340  0.126099
    H   H16  0.948240  0.099480  0.323350  0.105969
    C   C19  0.057060  0.101390  0.171360  0.538395
    C   C20  0.956970  0.099630  0.171360  -0.046750
    O   O5   0.090630  0.101970  0.090900  -0.483298
    O   O6   0.090650  0.101980  0.251820  -0.480729
    C   C21  0.386710  0.089610  0.171350  0.532055
    C   C22  0.486800  0.091360  0.171350  0.002067
    O   O7   0.353140  0.089040  0.251810  -0.481191
    O   O8   0.353130  0.089000  0.090900  -0.505697
    C   C23  0.222700  0.638850  0.087580  0.292551
    C   C24  0.221060  0.552130  0.087590  -0.285214
    C   C25  0.221070  0.552150  0.255140  0.314658
    C   C26  0.222720  0.638870  0.255130  -0.304400
    C   C27  0.223530  0.682220  0.171350  0.036811
    C   C28  0.220240  0.508780  0.171360  0.018194
    C   C29  0.218450  0.414750  0.171360  0.046962
    C   C30  0.225320  0.776260  0.171350  0.046728
    F   F1   0.223490  0.680160  0.005940  -0.182546
    F   F2   0.220300  0.511520  0.337260  -0.188370
    H   H17  0.220390  0.516820  0.019370  0.183326
    H   H18  0.223390  0.674180  0.323360  0.195595
    C   C31  0.228500  0.943500  0.171350  0.874990
    C   C32  0.226740  0.851210  0.171340  -0.340420
    O   O9   0.229100  0.974480  0.251810  -0.558342
    O   O10  0.229090  0.974470  0.090890  -0.574878
    C   C33  0.215270  0.247490  0.171360  0.872420
    C   C34  0.217030  0.339790  0.171370  -0.337758
    O   O11  0.214680  0.216510  0.090910  -0.585225
    O   O12  0.214670  0.216530  0.251820  -0.551598
    C   C35  0.221890  0.095500  0.578560  0.457250
    C   C36  0.296040  0.027360  0.617750  0.227644
    C   C37  0.295850  0.027110  0.724840  0.072006
    C   C38  0.221880  0.095490  0.764150  0.315026
    C   C39  0.127750  0.076670  0.725260  0.033688
    C   C40  0.128190  0.076190  0.618140  0.088656
    C   C41  0.241020  0.182670  0.618060  0.120105
    C   C42  0.243160  0.182090  0.725190  0.057647
    C   C43  0.221870  0.095490  0.869040  0.039857
    C   C44  0.221890  0.095510  0.473670  -0.064110
    N   N1   0.052130  0.128730  0.574840  -0.736363
    H   H19  0.991170  0.105740  0.591760  0.308135
    H   H20  0.048470  0.190950  0.595570  0.244206
    N   N2   0.053190  0.132160  0.767070  -0.722010
    H   H21  0.991180  0.110980  0.750480  0.307550
    H   H22  0.052100  0.193760  0.744690  0.245223
    N   N3   0.322380  0.210180  0.574680  -0.794967
    H   H23  0.322750  0.274440  0.584570  0.338565
    H   H24  0.381850  0.179450  0.602750  0.279677
    N   N4   0.328990  0.206160  0.762220  -0.919069
    H   H25  0.335900  0.267020  0.740660  0.328254
    H   H26  0.324290  0.212080  0.833940  0.373194
    N   N5   0.289350  0.944670  0.576600  -0.860901
    H   H27  0.348240  0.905390  0.592360  0.350911
    H   H28  0.234820  0.917070  0.603670  0.300818
    N   N6   0.294000  0.943120  0.764610  -0.832760
    H   H29  0.314530  0.943300  0.833720  0.351801
    H   H30  0.229550  0.923520  0.762670  0.274020
    H   H31  0.365810  0.038300  0.751140  0.081508
    H   H32  0.366250  0.038370  0.592010  0.077130
    H   H33  0.111360  0.012620  0.593140  0.073159
    H   H34  0.110510  0.013820  0.752080  0.074824
    H   H35  0.192660  0.235170  0.751940  0.048745
    H   H36  0.186950  0.233380  0.592710  0.093928
    N   N7   0.221870  0.095480  0.952650  -0.214099
    N   N8   0.221900  0.095520  0.390060  -0.143021
