# Generated by REPEAT Assigner based on pymatgen
data_DB6-cuf_4462
_audit_creation_date              2022-05-24
_audit_creation_method            REPEAT_Assigner
_cell_length_a                    15.995300
_cell_length_b                    10.654600
_cell_length_c                    14.472300
_cell_angle_alpha                 90.006800
_cell_angle_beta                  90.010200
_cell_angle_gamma                 83.983700
_cell_volume                      2452.835554
_symmetry_space_group_name_H-M    P1
_symmetry_Int_Tables_number       1
loop_
    _symmetry_equiv_pos_site_id
    _symmetry_equiv_pos_as_xyz
    1  x,y,z
loop_
    _atom_site_type_symbol
    _atom_site_label
    _atom_site_fract_x
    _atom_site_fract_y
    _atom_site_fract_z
    _atom_type_partial_charge
    Cu  Cu1  0.280840  0.083410  0.034210  0.748052
    Cu  Cu2  0.280850  0.083430  0.215950  0.772638
    C   C1   0.697050  0.081210  0.125090  -0.754311
    C   C2   0.732390  0.082600  0.023850  0.444847
    C   C3   0.829120  0.084680  0.023790  0.453759
    C   C4   0.864640  0.085640  0.125070  -0.800185
    C   C5   0.839300  0.964870  0.175350  0.443721
    C   C6   0.742580  0.962220  0.174700  0.454406
    C   C7   0.723040  0.200880  0.176780  0.426775
    C   C8   0.819650  0.205020  0.174880  0.497673
    C   C9   0.959350  0.088140  0.125070  0.441543
    C   C10  0.602340  0.078700  0.125090  0.428021
    O   O1   0.711660  0.956180  0.266750  -0.378056
    C   C11  0.681320  0.838870  0.284430  0.047429
    H   H1   0.625730  0.826610  0.240410  0.015543
    H   H2   0.661190  0.836640  0.357670  0.059020
    H   H3   0.731300  0.759530  0.273520  0.022978
    O   O2   0.869780  0.963220  0.267870  -0.398414
    C   C12  0.920540  0.849860  0.287080  0.101157
    H   H4   0.940340  0.850860  0.360530  0.053682
    H   H5   0.978230  0.841640  0.243690  -0.004138
    H   H6   0.885180  0.766550  0.276780  -0.006851
    O   O3   0.709790  0.975010  0.975090  -0.384809
    C   C13  0.667940  0.010390  0.891820  0.057700
    H   H7   0.654930  0.923700  0.854370  0.062709
    H   H8   0.707590  0.064010  0.846430  0.014205
    H   H9   0.606710  0.066640  0.905910  0.018198
    O   O4   0.868340  0.977520  0.975790  -0.397219
    C   C14  0.907930  0.013360  0.894260  0.064381
    H   H10  0.935160  0.926980  0.857990  0.059072
    H   H11  0.960080  0.071010  0.910640  0.019075
    H   H12  0.861960  0.065750  0.846860  0.018948
    O   O5   0.681780  0.311410  0.134770  -0.383968
    C   C15  0.637260  0.389760  0.200690  0.064586
    H   H13  0.609520  0.476970  0.165720  0.059028
    H   H14  0.679750  0.417760  0.256110  0.004734
    H   H15  0.584980  0.342230  0.230880  0.017669
    O   O6   0.840090  0.316090  0.129050  -0.394155
    C   C16  0.876610  0.397450  0.190550  0.066574
    H   H16  0.889140  0.483920  0.152550  0.061277
    H   H17  0.937640  0.352170  0.217370  0.001320
    H   H18  0.833380  0.426280  0.248590  0.025467
    H   H19  0.845860  0.171210  0.984350  -0.018707
    H   H20  0.702120  0.167920  0.984110  -0.017416
    H   H21  0.727310  0.872030  0.138960  -0.017192
    H   H22  0.870780  0.876320  0.140430  -0.001907
    H   H23  0.843230  0.212910  0.248770  -0.028741
    H   H24  0.700100  0.201090  0.251350  -0.016929
    C   C17  0.127810  0.092610  0.125070  0.822323
    C   C18  0.034850  0.090140  0.125060  -0.449520
    O   O7   0.159000  0.093430  0.044610  -0.535789
    O   O8   0.159020  0.093450  0.205530  -0.537667
    C   C19  0.433870  0.074240  0.125090  0.833536
    C   C20  0.526840  0.076710  0.125100  -0.458934
    O   O9   0.402710  0.073050  0.205550  -0.537505
    O   O10  0.402640  0.073770  0.044630  -0.535167
    C   C21  0.281990  0.648900  0.041300  0.304146
    C   C22  0.279680  0.517910  0.041310  -0.263937
    C   C23  0.279700  0.517950  0.208860  0.289475
    C   C24  0.282010  0.648940  0.208860  -0.259055
    F   F1   0.282970  0.712570  0.960360  -0.183684
    F   F2   0.278800  0.454210  0.289810  -0.184508
    H   H25  0.278740  0.464590  0.973090  0.177026
    H   H26  0.282960  0.702270  0.277080  0.172135
    C   C25  0.285620  0.853820  0.125080  0.565260
    C   C26  0.283160  0.714410  0.125070  -0.080548
    O   O11  0.286450  0.900620  0.205540  -0.481489
    O   O12  0.286440  0.900600  0.044620  -0.439903
    C   C27  0.276070  0.313020  0.125080  0.561848
    C   C28  0.278530  0.452430  0.125090  -0.079467
    O   O13  0.275230  0.266230  0.044630  -0.486130
    O   O14  0.275250  0.266250  0.205540  -0.425448
    C   C29  0.280850  0.083430  0.532280  -0.197658
    C   C30  0.349100  0.980370  0.571490  0.181574
    C   C31  0.348920  0.979990  0.678580  0.244663
    C   C32  0.280840  0.083410  0.717880  -0.132829
    C   C33  0.193250  0.055150  0.678980  0.216038
    C   C34  0.193650  0.054420  0.571850  0.225639
    C   C35  0.299400  0.215070  0.571780  0.279525
    C   C36  0.301380  0.214180  0.678910  0.158970
    C   C37  0.280830  0.083410  0.822760  0.211182
    C   C38  0.280850  0.083440  0.427400  0.250829
    F   F3   0.335660  0.862240  0.538180  -0.218198
    F   F4   0.130180  0.141240  0.538400  -0.220373
    F   F5   0.379190  0.242010  0.710950  -0.214779
    F   F6   0.334630  0.861890  0.711760  -0.217470
    F   F7   0.375090  0.247590  0.537440  -0.228021
    F   F8   0.130610  0.144010  0.711910  -0.230516
    H   H27  0.414000  0.996770  0.704880  0.070255
    H   H28  0.414400  0.996870  0.545750  0.098974
    H   H29  0.177450  0.958430  0.546860  0.082822
    H   H30  0.176670  0.960250  0.705790  0.081516
    H   H31  0.254960  0.294450  0.705660  0.095693
    H   H32  0.249640  0.291760  0.546430  0.076117
    N   N1   0.280830  0.083400  0.906380  -0.192838
    N   N2   0.280850  0.083450  0.343780  -0.231304
