# generated using pymatgen
data_CuH18C22(N2O3)2
_symmetry_space_group_name_H-M   'P 1'
_cell_length_a   14.97150000
_cell_length_b   14.85350000
_cell_length_c   11.29570000
_cell_angle_alpha   94.11690000
_cell_angle_beta   85.90990000
_cell_angle_gamma   83.62140000
_symmetry_Int_Tables_number   1
_chemical_formula_structural   CuH18C22(N2O3)2
_chemical_formula_sum   'Cu2 H36 C44 N8 O12'
_cell_volume   2481.95592186
_cell_formula_units_Z   2
loop_
 _symmetry_equiv_pos_site_id
 _symmetry_equiv_pos_as_xyz
  1  'x, y, z'
loop_
 _atom_site_type_symbol
 _atom_site_label
 _atom_site_symmetry_multiplicity
 _atom_site_fract_x
 _atom_site_fract_y
 _atom_site_fract_z
 _atom_site_occupancy
  Cu  Cu1  1  0.17349000  0.21794000  0.98013000  1
  Cu  Cu2  1  0.15931000  0.23231000  0.21434000  1
  H  H1  1  0.34491000  0.23241000  0.31594000  1
  H  H2  1  0.44333000  0.23764000  0.39679000  1
  H  H3  1  0.96134000  0.24469000  0.31600000  1
  H  H4  1  0.85321000  0.24931000  0.39677000  1
  H  H5  1  0.66859000  0.10516000  0.90222000  1
  H  H6  1  0.59659000  0.16200000  0.80482000  1
  H  H7  1  0.77168000  0.25238000  0.80481000  1
  H  H8  1  0.68789000  0.32117000  0.90223000  1
  H  H9  1  0.71379000  0.23828000  0.29311000  1
  H  H10  1  0.59528000  0.23601000  0.29310000  1
  H  H11  1  0.44976000  0.20876000  0.90135000  1
  H  H12  1  0.90678000  0.21746000  0.90137000  1
  H  H13  1  0.03414000  0.91787000  0.50480000  1
  H  H14  1  0.07314000  0.81839000  0.57710000  1
  H  H15  1  0.01265000  0.80746000  0.44487000  1
  H  H16  1  0.24931000  0.58246000  0.50478000  1
  H  H17  1  0.20162000  0.69074000  0.57709000  1
  H  H18  1  0.27805000  0.68546000  0.44485000  1
  H  H19  1  0.13124000  0.75944000  0.61738000  1
  H  H20  1  0.08349000  0.86779000  0.68969000  1
  H  H21  1  0.05474000  0.76480000  0.74962000  1
  H  H22  1  0.29866000  0.53238000  0.68967000  1
  H  H23  1  0.32015000  0.64280000  0.74960000  1
  H  H24  1  0.25966000  0.63187000  0.61737000  1
  H  H25  1  0.15882000  0.96350000  0.29310000  1
  H  H26  1  0.15027000  0.51079000  0.29311000  1
  H  H27  1  0.17398000  0.48675000  0.90138000  1
  H  H28  1  0.18253000  0.93946000  0.90136000  1
  H  H29  1  0.01880000  0.41659000  0.70869000  1
  H  H30  1  0.96208000  0.41742000  0.57672000  1
  H  H31  1  0.35630000  0.01838000  0.61774000  1
  H  H32  1  0.35578000  0.07556000  0.48578000  1
  H  H33  1  0.07420000  0.31842000  0.80380000  1
  H  H34  1  0.03867000  0.35443000  0.39066000  1
  H  H35  1  0.25860000  0.13184000  0.39065000  1
  H  H36  1  0.29413000  0.09583000  0.80382000  1
  C  C1  1  0.85039000  0.23537000  0.20520000  1
  C  C2  1  0.75709000  0.23360000  0.20520000  1
  C  C3  1  0.71698000  0.22609000  0.09724000  1
  C  C4  1  0.77018000  0.22036000  0.98928000  1
  C  C5  1  0.86347000  0.22214000  0.98928000  1
  C  C6  1  0.57571000  0.21666000  0.98927000  1
  C  C7  1  0.48241000  0.21488000  0.98926000  1
  C  C8  1  0.46933000  0.22812000  0.20519000  1
  C  C9  1  0.56263000  0.22990000  0.20519000  1
  C  C10  1  0.61582000  0.22417000  0.09723000  1
  C  C11  1  0.00288000  0.23153000  0.09724000  1
  C  C12  1  0.90358000  0.22964000  0.09725000  1
  C  C13  1  0.32992000  0.21872000  0.09722000  1
  C  C14  1  0.42922000  0.22061000  0.09722000  1
  C  C15  1  0.15630000  0.54368000  0.20520000  1
  C  C16  1  0.16938000  0.53043000  0.98928000  1
  C  C17  1  0.17116000  0.62446000  0.98928000  1
  C  C18  1  0.16551000  0.67810000  0.09723000  1
  C  C19  1  0.15808000  0.63772000  0.20520000  1
  C  C20  1  0.17858000  0.66485000  0.88132000  1
  C  C21  1  0.18036000  0.75889000  0.88131000  1
  C  C22  1  0.17472000  0.81254000  0.98926000  1
  C  C23  1  0.16729000  0.77215000  0.09723000  1
  C  C24  1  0.16164000  0.82579000  0.20519000  1
  C  C25  1  0.15422000  0.78540000  0.31316000  1
  C  C26  1  0.15244000  0.69137000  0.31316000  1
  C  C27  1  0.17650000  0.90657000  0.98927000  1
  C  C28  1  0.16342000  0.91983000  0.20519000  1
  C  C29  1  0.06268000  0.84545000  0.48948000  1
  C  C30  1  0.22262000  0.65301000  0.48946000  1
  C  C31  1  0.11018000  0.79725000  0.70500000  1
  C  C32  1  0.27011000  0.60481000  0.70499000  1
  C  C33  1  0.17274000  0.06030000  0.09723000  1
  C  C34  1  0.17085000  0.96022000  0.09722000  1
  C  C35  1  0.16007000  0.38995000  0.09724000  1
  C  C36  1  0.16195000  0.49003000  0.09724000  1
  C  C37  1  0.07738000  0.31523000  0.56606000  1
  C  C38  1  0.08494000  0.30759000  0.44140000  1
  C  C39  1  0.20616000  0.18490000  0.44141000  1
  C  C40  1  0.19860000  0.19254000  0.56607000  1
  C  C41  1  0.13421000  0.25771000  0.62839000  1
  C  C42  1  0.12664000  0.26536000  0.75306000  1
  C  C43  1  0.24786000  0.14267000  0.75306000  1
  C  C44  1  0.25543000  0.13502000  0.62840000  1
  N  N1  1  0.41465000  0.23322000  0.31523000  1
  N  N2  1  0.89175000  0.24379000  0.31520000  1
  N  N3  1  0.62027000  0.15932000  0.88950000  1
  N  N4  1  0.73769000  0.26544000  0.88949000  1
  N  N5  1  0.01225000  0.38583000  0.62446000  1
  N  N6  1  0.32518000  0.06906000  0.57001000  1
  N  N7  1  0.18347000  0.20783000  0.81539000  1
  N  N8  1  0.14933000  0.24242000  0.37907000  1
  O  O1  1  0.04247000  0.22580000  0.99356000  1
  O  O2  1  0.02992000  0.23852000  0.20092000  1
  O  O3  1  0.29033000  0.22444000  0.20091000  1
  O  O4  1  0.30288000  0.21173000  0.99354000  1
  O  O5  1  0.14769000  0.83970000  0.42118000  1
  O  O6  1  0.14588000  0.65032000  0.42117000  1
  O  O7  1  0.18692000  0.79994000  0.77329000  1
  O  O8  1  0.18510000  0.61056000  0.77329000  1
  O  O9  1  0.16709000  0.10025000  0.20091000  1
  O  O10  1  0.17965000  0.08753000  0.99355000  1
  O  O11  1  0.16572000  0.35000000  0.99355000  1
  O  O12  1  0.15314000  0.36272000  0.20092000  1
