# generated using pymatgen
data_CuH12C21NO7F3
_symmetry_space_group_name_H-M   'P 1'
_cell_length_a   14.97150000
_cell_length_b   16.10930000
_cell_length_c   14.42150000
_cell_angle_alpha   90.00860000
_cell_angle_beta   90.00440000
_cell_angle_gamma   83.54100000
_symmetry_Int_Tables_number   1
_chemical_formula_structural   CuH12C21NO7F3
_chemical_formula_sum   'Cu2 H24 C42 N2 O14 F6'
_cell_volume   3456.10548522
_cell_formula_units_Z   2
loop_
 _symmetry_equiv_pos_site_id
 _symmetry_equiv_pos_as_xyz
  1  'x, y, z'
loop_
 _atom_site_type_symbol
 _atom_site_label
 _atom_site_symmetry_multiplicity
 _atom_site_fract_x
 _atom_site_fract_y
 _atom_site_fract_z
 _atom_site_occupancy
  Cu  Cu1  1  0.23237000  0.14972000  0.00308000  1
  Cu  Cu2  1  0.23239000  0.14973000  0.18547000  1
  H  H1  1  0.48218000  0.14962000  0.40396000  1
  H  H2  1  0.56605000  0.20813000  0.35535000  1
  H  H3  1  0.58332000  0.09372000  0.35888000  1
  H  H4  1  0.88207000  0.20604000  0.35867000  1
  H  H5  1  0.98346000  0.15034000  0.40366000  1
  H  H6  1  0.89946000  0.09169000  0.35540000  1
  H  H7  1  0.77836000  0.10912000  0.79160000  1
  H  H8  1  0.89348000  0.08960000  0.82689000  1
  H  H9  1  0.83349000  0.19475000  0.83508000  1
  H  H10  1  0.62835000  0.30324000  0.01371000  1
  H  H11  1  0.72187000  0.30275000  0.93466000  1
  H  H12  1  0.60859000  0.31203000  0.89063000  1
  H  H13  1  0.79165000  0.15079000  0.24681000  1
  H  H14  1  0.67314000  0.14869000  0.24680000  1
  H  H15  1  0.50387000  0.14571000  0.94174000  1
  H  H16  1  0.96088000  0.15372000  0.94175000  1
  H  H17  1  0.17071000  0.64645000  0.35569000  1
  H  H18  1  0.29371000  0.63161000  0.35569000  1
  H  H19  1  0.23060000  0.55368000  0.40422000  1
  H  H20  1  0.17106000  0.66784000  0.83286000  1
  H  H21  1  0.29406000  0.65300000  0.83286000  1
  H  H22  1  0.23417000  0.74577000  0.78433000  1
  H  H23  1  0.23090000  0.57105000  0.94175000  1
  H  H24  1  0.23388000  0.72841000  0.24681000  1
  C  C1  1  0.92291000  0.15307000  0.17835000  1
  C  C2  1  0.82962000  0.15144000  0.17835000  1
  C  C3  1  0.78296000  0.15061000  0.09428000  1
  C  C4  1  0.82961000  0.15143000  0.01020000  1
  C  C5  1  0.92291000  0.15307000  0.01021000  1
  C  C6  1  0.63515000  0.14801000  0.01020000  1
  C  C7  1  0.54185000  0.14638000  0.01020000  1
  C  C8  1  0.54186000  0.14639000  0.17834000  1
  C  C9  1  0.63516000  0.14802000  0.17834000  1
  C  C10  1  0.68180000  0.14884000  0.09427000  1
  C  C11  1  0.53368000  0.14964000  0.34869000  1
  C  C12  1  0.93183000  0.15018000  0.34854000  1
  C  C13  1  0.82825000  0.12678000  0.84277000  1
  C  C14  1  0.65433000  0.28190000  0.94437000  1
  C  C15  1  0.06885000  0.15563000  0.09428000  1
  C  C16  1  0.96956000  0.15388000  0.09429000  1
  C  C17  1  0.39592000  0.14382000  0.09427000  1
  C  C18  1  0.49521000  0.14556000  0.09426000  1
  C  C19  1  0.23319000  0.69307000  0.01020000  1
  C  C20  1  0.23156000  0.60635000  0.01021000  1
  C  C21  1  0.23158000  0.60638000  0.17835000  1
  C  C22  1  0.23321000  0.69310000  0.17835000  1
  C  C23  1  0.23402000  0.73645000  0.09427000  1
  C  C24  1  0.23075000  0.56300000  0.09428000  1
  C  C25  1  0.22898000  0.46897000  0.09428000  1
  C  C26  1  0.23579000  0.83048000  0.09426000  1
  C  C27  1  0.23148000  0.60062000  0.34806000  1
  C  C28  1  0.23329000  0.69883000  0.84049000  1
  C  C29  1  0.23895000  0.99773000  0.09427000  1
  C  C30  1  0.23720000  0.90543000  0.09426000  1
  C  C31  1  0.22582000  0.30172000  0.09428000  1
  C  C32  1  0.22756000  0.39402000  0.09429000  1
  C  C33  1  0.29579000  0.09063000  0.62517000  1
  C  C34  1  0.21491000  0.07460000  0.56333000  1
  C  C35  1  0.23238000  0.14972000  0.68564000  1
  C  C36  1  0.31326000  0.16571000  0.56338000  1
  C  C37  1  0.23239000  0.14973000  0.50292000  1
  C  C38  1  0.15146000  0.13365000  0.62516000  1
  C  C39  1  0.24986000  0.22480000  0.62521000  1
  C  C40  1  0.16893000  0.20881000  0.56340000  1
  C  C41  1  0.23237000  0.14971000  0.79090000  1
  C  C42  1  0.23239000  0.14974000  0.39766000  1
  N  N1  1  0.23237000  0.14970000  0.87480000  1
  N  N2  1  0.23240000  0.14974000  0.31375000  1
  O  O1  1  0.49045000  0.14631000  0.26070000  1
  O  O2  1  0.97479000  0.15337000  0.26040000  1
  O  O3  1  0.79859000  0.10742000  0.93395000  1
  O  O4  1  0.66059000  0.19297000  0.93285000  1
  O  O5  1  0.10216000  0.15621000  0.01354000  1
  O  O6  1  0.10218000  0.15622000  0.17502000  1
  O  O7  1  0.36261000  0.14324000  0.17501000  1
  O  O8  1  0.36259000  0.14323000  0.01353000  1
  O  O9  1  0.23068000  0.55887000  0.26076000  1
  O  O10  1  0.23409000  0.74058000  0.92779000  1
  O  O11  1  0.23954000  0.02871000  0.17501000  1
  O  O12  1  0.23953000  0.02869000  0.01353000  1
  O  O13  1  0.22523000  0.27074000  0.01354000  1
  O  O14  1  0.22523000  0.27076000  0.17502000  1
  F  F1  1  0.19702000  0.99762000  0.53033000  1
  F  F2  1  0.39618000  0.18216000  0.53051000  1
  F  F3  1  0.10396000  0.26939000  0.53047000  1
  F  F4  1  0.36078000  0.03004000  0.65808000  1
  F  F5  1  0.26781000  0.30180000  0.65815000  1
  F  F6  1  0.06856000  0.11718000  0.65811000  1
