data_DB6-cuf_5813_repeat
_audit_creation_date              2024-02-23
_audit_creation_method            'Materials Studio'
_symmetry_space_group_name_H-M    'P1'
_symmetry_Int_Tables_number       1
_symmetry_cell_setting            triclinic
loop_
_symmetry_equiv_pos_as_xyz
  x,y,z
_cell_length_a                    14.8535
_cell_length_b                    12.8114
_cell_length_c                    14.5863
_cell_angle_alpha                 84.5682
_cell_angle_beta                  90.0091
_cell_angle_gamma                 83.8360
loop_
_atom_site_label
_atom_site_type_symbol
_atom_site_fract_x
_atom_site_fract_y
_atom_site_fract_z
_atom_site_U_iso_or_equiv
_atom_site_adp_type
_atom_site_occupancy
Cu1    Cu    0.22564   0.15446   0.01697   0.00000  Uiso   1.00
Cu2    Cu    0.22567   0.15445   0.19730   0.00000  Uiso   1.00
C1     C     0.53756   0.15028   0.02435   0.00000  Uiso   1.00
C2     C     0.53759   0.15027   0.19060   0.00000  Uiso   1.00
C3     C     0.63162   0.15236   0.19043   0.00000  Uiso   1.00
C4     C     0.67863   0.15341   0.10722   0.00000  Uiso   1.00
C5     C     0.63161   0.15237   0.02418   0.00000  Uiso   1.00
C6     C     0.67866   0.15340   0.27346   0.00000  Uiso   1.00
C7     C     0.77270   0.15549   0.27330   0.00000  Uiso   1.00
C8     C     0.81972   0.15654   0.19009   0.00000  Uiso   1.00
C9     C     0.77268   0.15550   0.10705   0.00000  Uiso   1.00
C10    C     0.81969   0.15654   0.02384   0.00000  Uiso   1.00
C11    C     0.77266   0.15551   0.94080   0.00000  Uiso   1.00
C12    C     0.67862   0.15342   0.94097   0.00000  Uiso   1.00
C13    C     0.91376   0.15863   0.18991   0.00000  Uiso   1.00
C14    C     0.91374   0.15863   0.02367   0.00000  Uiso   1.00
N1     N     0.81942   0.16119   0.85434   0.00000  Uiso   1.00
H1     H     0.80273   0.11956   0.79980   0.00000  Uiso   1.00
H2     H     0.86845   0.21318   0.84186   0.00000  Uiso   1.00
N2     N     0.63080   0.15702   0.85469   0.00000  Uiso   1.00
H3     H     0.65659   0.11664   0.79991   0.00000  Uiso   1.00
H4     H     0.57066   0.20659   0.84248   0.00000  Uiso   1.00
N3     N     0.81975   0.15470   0.35940   0.00000  Uiso   1.00
H5     H     0.88152   0.10927   0.37421   0.00000  Uiso   1.00
H6     H     0.78980   0.19490   0.41255   0.00000  Uiso   1.00
N4     N     0.63211   0.14944   0.35984   0.00000  Uiso   1.00
H7     H     0.66214   0.10932   0.41966   0.00000  Uiso   1.00
H8     H     0.57035   0.19487   0.36703   0.00000  Uiso   1.00
H9     H     0.95201   0.15947   0.95591   0.00000  Uiso   1.00
H10    H     0.49926   0.14944   0.95674   0.00000  Uiso   1.00
H11    H     0.49931   0.14943   0.25834   0.00000  Uiso   1.00
H12    H     0.95205   0.15946   0.25752   0.00000  Uiso   1.00
C15    C     0.06086   0.16189   0.10652   0.00000  Uiso   1.00
C16    C     0.96077   0.15967   0.10671   0.00000  Uiso   1.00
O1     O     0.09443   0.16263   0.02663   0.00000  Uiso   1.00
O2     O     0.09446   0.16263   0.18629   0.00000  Uiso   1.00
C17    C     0.39046   0.14702   0.10775   0.00000  Uiso   1.00
C18    C     0.49055   0.14923   0.10756   0.00000  Uiso   1.00
O3     O     0.35688   0.14629   0.18764   0.00000  Uiso   1.00
O4     O     0.35686   0.14626   0.02798   0.00000  Uiso   1.00
C19    C     0.22513   0.62709   0.98473   0.00000  Uiso   1.00
C20    C     0.22304   0.51761   0.99382   0.00000  Uiso   1.00
C21    C     0.22306   0.51760   0.16007   0.00000  Uiso   1.00
C22    C     0.22515   0.62708   0.15097   0.00000  Uiso   1.00
C23    C     0.22618   0.68182   0.06330   0.00000  Uiso   1.00
C24    C     0.22825   0.79131   0.05420   0.00000  Uiso   1.00
C25    C     0.22828   0.79129   0.22044   0.00000  Uiso   1.00
C26    C     0.22620   0.68181   0.22954   0.00000  Uiso   1.00
N5     N     0.22960   0.67786   0.89286   0.00000  Uiso   1.00
H13    H     0.25896   0.74761   0.87760   0.00000  Uiso   1.00
H14    H     0.21444   0.63811   0.83646   0.00000  Uiso   1.00
N6     N     0.22870   0.63000   0.32149   0.00000  Uiso   1.00
H15    H     0.21515   0.67408   0.37754   0.00000  Uiso   1.00
H16    H     0.25532   0.55178   0.33745   0.00000  Uiso   1.00
H17    H     0.22909   0.83588   0.98281   0.00000  Uiso   1.00
H18    H     0.22220   0.47305   0.92984   0.00000  Uiso   1.00
H19    H     0.22223   0.47301   0.23145   0.00000  Uiso   1.00
H20    H     0.22913   0.83587   0.28442   0.00000  Uiso   1.00
C27    C     0.23152   0.96257   0.12309   0.00000  Uiso   1.00
C28    C     0.22931   0.84605   0.13277   0.00000  Uiso   1.00
O5     O     0.23228   0.00166   0.19966   0.00000  Uiso   1.00
O6     O     0.23225   0.00167   0.04001   0.00000  Uiso   1.00
C29    C     0.21979   0.34634   0.09118   0.00000  Uiso   1.00
C30    C     0.22201   0.46286   0.08149   0.00000  Uiso   1.00
O7     O     0.21904   0.30724   0.01460   0.00000  Uiso   1.00
O8     O     0.21906   0.30724   0.17426   0.00000  Uiso   1.00
C31    C     0.16476   0.22586   0.64917   0.00000  Uiso   1.00
C32    C     0.16477   0.22586   0.55319   0.00000  Uiso   1.00
C33    C     0.28657   0.08304   0.56510   0.00000  Uiso   1.00
C34    C     0.28656   0.08305   0.66108   0.00000  Uiso   1.00
C35    C     0.22565   0.15446   0.70311   0.00000  Uiso   1.00
C36    C     0.22567   0.15445   0.51115   0.00000  Uiso   1.00
C37    C     0.22568   0.15445   0.40709   0.00000  Uiso   1.00
C38    C     0.22563   0.15446   0.80719   0.00000  Uiso   1.00
N7     N     0.35003   0.00863   0.52453   0.00000  Uiso   1.00
H21    H     0.35400   0.00397   0.45362   0.00000  Uiso   1.00
H22    H     0.39494   0.95597   0.56601   0.00000  Uiso   1.00
N8     N     0.10129   0.30028   0.68974   0.00000  Uiso   1.00
H23    H     0.09732   0.30493   0.76065   0.00000  Uiso   1.00
H24    H     0.05638   0.35294   0.64826   0.00000  Uiso   1.00
H25    H     0.11519   0.28402   0.50928   0.00000  Uiso   1.00
H26    H     0.33615   0.02489   0.70499   0.00000  Uiso   1.00
N9     N     0.22563   0.15446   0.89014   0.00000  Uiso   1.00
N10    N     0.22569   0.15445   0.32413   0.00000  Uiso   1.00
