# generated using pymatgen
data_CuH12C21N3(OF)4
_symmetry_space_group_name_H-M   'P 1'
_cell_length_a   15.99530000
_cell_length_b   12.81140000
_cell_length_c   14.18490000
_cell_angle_alpha   71.50410000
_cell_angle_beta   103.13400000
_cell_angle_gamma   83.76410000
_symmetry_Int_Tables_number   1
_chemical_formula_structural   CuH12C21N3(OF)4
_chemical_formula_sum   'Cu2 H24 C42 N6 O8 F8'
_cell_volume   2632.65127987
_cell_formula_units_Z   2
loop_
 _symmetry_equiv_pos_site_id
 _symmetry_equiv_pos_as_xyz
  1  'x, y, z'
loop_
 _atom_site_type_symbol
 _atom_site_label
 _atom_site_symmetry_multiplicity
 _atom_site_fract_x
 _atom_site_fract_y
 _atom_site_fract_z
 _atom_site_occupancy
  Cu  Cu1  1  0.14408000  0.15163000  0.09873000  1
  Cu  Cu2  1  0.18993000  0.09368000  0.30133000  1
  H  H1  1  0.69472000  0.24287000  0.03629000  1
  H  H2  1  0.55099000  0.24013000  0.03628000  1
  H  H3  1  0.62132000  0.93682000  0.23202000  1
  H  H4  1  0.76507000  0.94004000  0.23331000  1
  H  H5  1  0.75792000  0.19432000  0.32780000  1
  H  H6  1  0.61569000  0.18335000  0.33161000  1
  H  H7  1  0.13860000  0.84402000  0.06035000  1
  H  H8  1  0.11874000  0.49823000  0.00084000  1
  H  H9  1  0.19541000  0.40127000  0.33970000  1
  H  H10  1  0.21527000  0.74710000  0.39922000  1
  H  H11  1  0.29787000  0.12454000  0.94011000  1
  H  H12  1  0.26244000  0.06075000  0.05175000  1
  H  H13  1  0.91310000  0.39901000  0.59011000  1
  H  H14  1  0.96015000  0.40953000  0.48715000  1
  H  H15  1  0.07139000  0.18405000  0.34844000  1
  H  H16  1  0.03623000  0.11991000  0.46026000  1
  H  H17  1  0.38945000  0.85465000  0.91113000  1
  H  H18  1  0.37746000  0.79476000  0.81335000  1
  H  H19  1  0.26932000  0.99329000  0.90237000  1
  H  H20  1  0.37406000  0.86091000  0.66163000  1
  H  H21  1  0.32980000  0.91687000  0.46600000  1
  H  H22  1  0.06467000  0.25202000  0.49769000  1
  H  H23  1  0.95995000  0.38440000  0.73842000  1
  H  H24  1  0.00420000  0.32845000  0.93406000  1
  C  C1  1  0.58326000  0.12075000  0.20021000  1
  C  C2  1  0.59303000  0.15423000  0.08725000  1
  C  C3  1  0.68971000  0.15604000  0.08702000  1
  C  C4  1  0.75075000  0.12456000  0.19985000  1
  C  C5  1  0.74058000  0.00489000  0.26532000  1
  C  C6  1  0.64375000  0.00282000  0.26480000  1
  C  C7  1  0.61982000  0.20696000  0.24849000  1
  C  C8  1  0.71586000  0.21112000  0.24605000  1
  C  C9  1  0.84541000  0.12671000  0.19965000  1
  C  C10  1  0.48860000  0.11859000  0.20041000  1
  C  C11  1  0.01378000  0.13054000  0.19930000  1
  C  C12  1  0.92086000  0.12843000  0.19948000  1
  C  C13  1  0.32022000  0.11477000  0.20076000  1
  C  C14  1  0.41314000  0.11688000  0.20058000  1
  C  C15  1  0.13540000  0.63463000  0.06250000  1
  C  C16  1  0.13578000  0.52222000  0.07272000  1
  C  C17  1  0.17804000  0.46880000  0.25950000  1
  C  C18  1  0.17767000  0.58120000  0.24928000  1
  C  C19  1  0.15634000  0.66411000  0.15078000  1
  C  C20  1  0.15596000  0.77651000  0.14056000  1
  C  C21  1  0.19823000  0.72308000  0.32734000  1
  C  C22  1  0.19861000  0.61068000  0.33756000  1
  C  C23  1  0.17650000  0.92563000  0.21796000  1
  C  C24  1  0.17691000  0.80600000  0.22884000  1
  C  C25  1  0.15750000  0.31968000  0.18210000  1
  C  C26  1  0.15710000  0.43931000  0.17122000  1
  C  C27  1  0.31684000  0.93325000  0.61229000  1
  C  C28  1  0.29243000  0.96411000  0.50444000  1
  C  C29  1  0.17629000  0.11092000  0.49105000  1
  C  C30  1  0.20069000  0.08008000  0.59889000  1
  C  C31  1  0.27096000  0.99125000  0.65950000  1
  C  C32  1  0.15481000  0.13808000  0.64611000  1
  C  C33  1  0.17920000  0.10724000  0.75395000  1
  C  C34  1  0.24947000  0.01840000  0.81457000  1
  C  C35  1  0.29535000  0.96040000  0.76734000  1
  C  C36  1  0.08453000  0.22691000  0.58550000  1
  C  C37  1  0.03865000  0.28491000  0.63272000  1
  C  C38  1  0.06305000  0.25407000  0.74056000  1
  C  C39  1  0.13332000  0.16523000  0.80117000  1
  C  C40  1  0.01717000  0.31206000  0.78778000  1
  C  C41  1  0.04156000  0.28122000  0.89562000  1
  C  C42  1  0.15771000  0.13439000  0.90901000  1
  N  N1  1  0.24726000  0.09813000  0.97130000  1
  N  N2  1  0.96695000  0.37535000  0.56648000  1
  N  N3  1  0.08666000  0.14666000  0.42889000  1
  N  N4  1  0.36230000  0.86425000  0.83388000  1
  N  N5  1  0.11183000  0.19238000  0.95623000  1
  N  N6  1  0.22217000  0.05292000  0.44383000  1
  O  O1  1  0.02466000  0.15691000  0.10955000  1
  O  O2  1  0.06526000  0.10560000  0.28892000  1
  O  O3  1  0.30938000  0.08809000  0.29054000  1
  O  O4  1  0.26871000  0.14003000  0.11111000  1
  O  O5  1  0.19667000  0.94012000  0.30399000  1
  O  O6  1  0.15607000  0.99143000  0.12461000  1
  O  O7  1  0.13734000  0.30519000  0.09607000  1
  O  O8  1  0.17793000  0.25388000  0.27545000  1
  F  F1  1  0.56119000  0.08077000  0.04102000  1
  F  F2  1  0.63692000  0.96742000  0.36537000  1
  F  F3  1  0.72276000  0.31866000  0.18924000  1
  F  F4  1  0.71812000  0.08295000  0.04144000  1
  F  F5  1  0.56769000  0.31284000  0.19605000  1
  F  F6  1  0.79351000  0.97285000  0.36602000  1
  F  F7  1  0.11450000  0.71355000  0.96617000  1
  F  F8  1  0.21951000  0.53176000  0.43389000  1
