# generated using pymatgen
data_CuH14C21NO4
_symmetry_space_group_name_H-M   'P 1'
_cell_length_a   17.01930000
_cell_length_b   14.97150000
_cell_length_c   15.50040000
_cell_angle_alpha   92.84750000
_cell_angle_beta   91.05620000
_cell_angle_gamma   83.50330000
_symmetry_Int_Tables_number   1
_chemical_formula_structural   CuH14C21NO4
_chemical_formula_sum   'Cu2 H28 C42 N2 O8'
_cell_volume   3919.03631189
_cell_formula_units_Z   2
loop_
 _symmetry_equiv_pos_site_id
 _symmetry_equiv_pos_as_xyz
  1  'x, y, z'
loop_
 _atom_site_type_symbol
 _atom_site_label
 _atom_site_symmetry_multiplicity
 _atom_site_fract_x
 _atom_site_fract_y
 _atom_site_fract_z
 _atom_site_occupancy
  Cu  Cu1  1  0.18722000  0.15363000  0.06158000  1
  Cu  Cu2  1  0.17863000  0.16344000  0.23110000  1
  H  H1  1  0.93721000  0.17062000  0.27035000  1
  H  H2  1  0.78850000  0.16719000  0.25926000  1
  H  H3  1  0.56298000  0.16631000  0.31696000  1
  H  H4  1  0.41427000  0.16285000  0.30587000  1
  H  H5  1  0.42864000  0.14644000  0.02233000  1
  H  H6  1  0.57734000  0.14990000  0.03342000  1
  H  H7  1  0.80286000  0.15077000  0.97573000  1
  H  H8  1  0.95158000  0.15422000  0.98680000  1
  H  H9  1  0.69172000  0.16470000  0.24811000  1
  H  H10  1  0.67412000  0.15238000  0.04457000  1
  H  H11  1  0.19389000  0.87883000  0.00485000  1
  H  H12  1  0.19110000  0.70958000  0.00464000  1
  H  H13  1  0.18911000  0.59107000  0.00450000  1
  H  H14  1  0.18632000  0.42180000  0.00429000  1
  H  H15  1  0.17196000  0.43824000  0.28784000  1
  H  H16  1  0.17477000  0.60750000  0.28805000  1
  H  H17  1  0.17674000  0.72600000  0.28818000  1
  H  H18  1  0.17954000  0.89527000  0.28839000  1
  H  H19  1  0.09705000  0.25647000  0.92674000  1
  H  H20  1  0.10539000  0.24700000  0.76307000  1
  H  H21  1  0.06721000  0.29056000  0.51519000  1
  H  H22  1  0.07553000  0.28108000  0.35150000  1
  H  H23  1  0.26880000  0.06059000  0.36594000  1
  H  H24  1  0.26047000  0.07008000  0.52962000  1
  H  H25  1  0.29865000  0.02652000  0.77749000  1
  H  H26  1  0.29032000  0.03599000  0.94118000  1
  H  H27  1  0.11349000  0.23776000  0.65651000  1
  H  H28  1  0.25237000  0.07931000  0.63616000  1
  C  C1  1  0.90707000  0.16617000  0.20423000  1
  C  C2  1  0.82509000  0.16427000  0.19812000  1
  C  C3  1  0.78807000  0.15879000  0.11692000  1
  C  C4  1  0.83302000  0.15523000  0.04184000  1
  C  C5  1  0.91499000  0.15713000  0.04795000  1
  C  C6  1  0.54076000  0.15281000  0.09456000  1
  C  C7  1  0.45879000  0.15090000  0.08845000  1
  C  C8  1  0.45087000  0.15994000  0.24474000  1
  C  C9  1  0.53284000  0.16185000  0.25084000  1
  C  C10  1  0.57778000  0.15829000  0.17575000  1
  C  C11  1  0.70428000  0.15685000  0.11068000  1
  C  C12  1  0.66157000  0.16024000  0.18200000  1
  C  C13  1  0.03925000  0.16463000  0.13564000  1
  C  C14  1  0.95201000  0.16260000  0.12915000  1
  C  C15  1  0.32660000  0.15244000  0.15704000  1
  C  C16  1  0.41384000  0.15447000  0.16354000  1
  C  C17  1  0.19004000  0.84454000  0.06843000  1
  C  C18  1  0.18850000  0.75124000  0.06832000  1
  C  C19  1  0.18377000  0.70912000  0.14640000  1
  C  C20  1  0.18059000  0.76030000  0.22460000  1
  C  C21  1  0.18214000  0.85360000  0.22471000  1
  C  C22  1  0.17736000  0.56583000  0.22436000  1
  C  C23  1  0.17581000  0.47253000  0.22425000  1
  C  C24  1  0.18372000  0.46347000  0.06797000  1
  C  C25  1  0.18527000  0.55677000  0.06808000  1
  C  C26  1  0.18209000  0.60795000  0.14628000  1
  C  C27  1  0.18851000  0.99502000  0.14675000  1
  C  C28  1  0.18686000  0.89572000  0.14662000  1
  C  C29  1  0.17734000  0.32205000  0.14593000  1
  C  C30  1  0.17899000  0.42135000  0.14606000  1
  C  C31  1  0.14229000  0.20487000  0.89326000  1
  C  C32  1  0.14689000  0.19964000  0.80303000  1
  C  C33  1  0.20244000  0.13626000  0.76189000  1
  C  C34  1  0.25341000  0.07812000  0.81099000  1
  C  C35  1  0.24882000  0.08335000  0.90122000  1
  C  C36  1  0.21897000  0.11743000  0.48966000  1
  C  C37  1  0.22356000  0.11220000  0.39943000  1
  C  C38  1  0.11703000  0.23373000  0.39147000  1
  C  C39  1  0.11244000  0.23895000  0.48170000  1
  C  C40  1  0.16342000  0.18081000  0.53079000  1
  C  C41  1  0.20714000  0.13092000  0.66966000  1
  C  C42  1  0.15872000  0.18616000  0.62302000  1
  N  N1  1  0.19326000  0.14672000  0.94235000  1
  N  N2  1  0.17259000  0.17035000  0.35034000  1
  O  O1  1  0.07233000  0.16097000  0.06278000  1
  O  O2  1  0.06473000  0.16966000  0.21287000  1
  O  O3  1  0.29352000  0.15610000  0.22991000  1
  O  O4  1  0.30112000  0.14742000  0.07981000  1
  O  O5  1  0.18526000  0.03269000  0.22184000  1
  O  O6  1  0.19286000  0.02400000  0.07175000  1
  O  O7  1  0.18059000  0.28438000  0.07084000  1
  O  O8  1  0.17300000  0.29307000  0.22094000  1
