# generated using pymatgen
data_CuH13C19NO4
_symmetry_space_group_name_H-M   'P 1'
_cell_length_a   15.62520000
_cell_length_b   10.65460000
_cell_length_c   14.47230000
_cell_angle_alpha   90.00680000
_cell_angle_beta   71.92380000
_cell_angle_gamma   84.35230000
_symmetry_Int_Tables_number   1
_chemical_formula_structural   CuH13C19NO4
_chemical_formula_sum   'Cu2 H26 C38 N2 O8'
_cell_volume   2278.12281713
_cell_formula_units_Z   2
loop_
 _symmetry_equiv_pos_site_id
 _symmetry_equiv_pos_as_xyz
  1  'x, y, z'
loop_
 _atom_site_type_symbol
 _atom_site_label
 _atom_site_symmetry_multiplicity
 _atom_site_fract_x
 _atom_site_fract_y
 _atom_site_fract_z
 _atom_site_occupancy
  Cu  Cu1  1  0.22365000  0.10532000  0.06698000  1
  Cu  Cu2  1  0.22366000  0.10535000  0.24873000  1
  H  H1  1  0.95004000  0.11133000  0.09754000  1
  H  H2  1  0.89428000  0.10983000  0.01691000  1
  H  H3  1  0.80894000  0.10756000  0.89350000  1
  H  H4  1  0.66786000  0.10381000  0.85700000  1
  H  H5  1  0.49724000  0.09930000  0.91419000  1
  H  H6  1  0.49726000  0.09934000  0.21816000  1
  H  H7  1  0.55304000  0.10082000  0.29880000  1
  H  H8  1  0.63836000  0.10311000  0.42220000  1
  H  H9  1  0.77945000  0.10687000  0.45870000  1
  H  H10  1  0.95007000  0.11138000  0.40153000  1
  H  H11  1  0.22589000  0.72413000  0.00511000  1
  H  H12  1  0.22139000  0.48650000  0.00662000  1
  H  H13  1  0.22142000  0.48654000  0.31060000  1
  H  H14  1  0.22593000  0.72419000  0.30909000  1
  H  H15  1  0.36702000  0.01894000  0.68960000  1
  H  H16  1  0.36746000  0.01904000  0.53032000  1
  H  H17  1  0.28445000  0.90524000  0.55696000  1
  H  H18  1  0.28407000  0.90432000  0.71672000  1
  H  H19  1  0.11233000  0.98014000  0.61695000  1
  H  H20  1  0.07339000  0.14830000  0.62906000  1
  H  H21  1  0.07329000  0.14988000  0.78760000  1
  H  H22  1  0.11149000  0.98197000  0.77616000  1
  H  H23  1  0.31099000  0.26439000  0.54828000  1
  H  H24  1  0.31515000  0.25772000  0.70644000  1
  H  H25  1  0.19579000  0.31631000  0.74778000  1
  H  H26  1  0.19005000  0.31362000  0.59046000  1
  C  C1  1  0.62958000  0.10281000  0.93805000  1
  C  C2  1  0.53553000  0.10032000  0.96959000  1
  C  C3  1  0.53554000  0.10034000  0.13712000  1
  C  C4  1  0.62960000  0.10284000  0.10560000  1
  C  C5  1  0.67661000  0.10407000  0.00607000  1
  C  C6  1  0.67663000  0.10410000  0.17361000  1
  C  C7  1  0.77068000  0.10658000  0.14210000  1
  C  C8  1  0.81770000  0.10781000  0.04257000  1
  C  C9  1  0.77066000  0.10656000  0.97455000  1
  C  C10  1  0.62962000  0.10285000  0.27315000  1
  C  C11  1  0.67665000  0.10411000  0.34116000  1
  C  C12  1  0.77069000  0.10661000  0.30964000  1
  C  C13  1  0.81771000  0.10784000  0.21011000  1
  C  C14  1  0.81773000  0.10787000  0.37766000  1
  C  C15  1  0.91178000  0.11035000  0.34614000  1
  C  C16  1  0.91176000  0.11033000  0.17860000  1
  C  C17  1  0.05889000  0.11423000  0.21307000  1
  C  C18  1  0.95879000  0.11159000  0.24661000  1
  C  C19  1  0.38842000  0.09644000  0.10264000  1
  C  C20  1  0.48852000  0.09908000  0.06910000  1
  C  C21  1  0.22489000  0.67082000  0.07367000  1
  C  C22  1  0.22240000  0.53982000  0.07450000  1
  C  C23  1  0.22242000  0.53986000  0.24205000  1
  C  C24  1  0.22491000  0.67085000  0.24121000  1
  C  C25  1  0.22880000  0.87574000  0.15613000  1
  C  C26  1  0.22614000  0.73633000  0.15702000  1
  C  C27  1  0.21851000  0.33493000  0.15958000  1
  C  C28  1  0.22116000  0.47434000  0.15870000  1
  C  C29  1  0.22366000  0.10534000  0.56506000  1
  C  C30  1  0.29715000  0.00241000  0.57963000  1
  C  C31  1  0.29695000  0.00203000  0.68678000  1
  C  C32  1  0.22365000  0.10533000  0.75065000  1
  C  C33  1  0.12934000  0.07689000  0.74336000  1
  C  C34  1  0.12977000  0.07617000  0.63610000  1
  C  C35  1  0.24363000  0.23702000  0.59786000  1
  C  C36  1  0.24576000  0.23613000  0.70427000  1
  C  C37  1  0.22364000  0.10532000  0.85554000  1
  C  C38  1  0.22366000  0.10535000  0.46017000  1
  N  N1  1  0.22364000  0.10531000  0.93915000  1
  N  N2  1  0.22366000  0.10536000  0.37656000  1
  O  O1  1  0.09247000  0.11511000  0.12136000  1
  O  O2  1  0.09248000  0.11513000  0.28227000  1
  O  O3  1  0.35484000  0.09556000  0.19435000  1
  O  O4  1  0.35482000  0.09554000  0.03344000  1
  O  O5  1  0.22969000  0.92254000  0.23628000  1
  O  O6  1  0.22968000  0.92252000  0.07538000  1
  O  O7  1  0.21761000  0.28813000  0.07943000  1
  O  O8  1  0.21763000  0.28815000  0.24033000  1
