# generated using pymatgen
data_CuH6C18NO5F4
_symmetry_space_group_name_H-M   'P 1'
_cell_length_a   12.81140000
_cell_length_b   16.10930000
_cell_length_c   14.42150000
_cell_angle_alpha   90.00860000
_cell_angle_beta   95.43860000
_cell_angle_gamma   83.75590000
_symmetry_Int_Tables_number   1
_chemical_formula_structural   CuH6C18NO5F4
_chemical_formula_sum   'Cu2 H12 C36 N2 O10 F8'
_cell_volume   2945.21663492
_cell_formula_units_Z   2
loop_
 _symmetry_equiv_pos_site_id
 _symmetry_equiv_pos_as_xyz
  1  'x, y, z'
loop_
 _atom_site_type_symbol
 _atom_site_label
 _atom_site_symmetry_multiplicity
 _atom_site_fract_x
 _atom_site_fract_y
 _atom_site_fract_z
 _atom_site_occupancy
  Cu  Cu1  1  0.15713000  0.20000000  0.03738000  1
  Cu  Cu2  1  0.15716000  0.20001000  0.21976000  1
  H  H1  1  0.83858000  0.20320000  0.25431000  1
  H  H2  1  0.47577000  0.19686000  0.30789000  1
  H  H3  1  0.47570000  0.19681000  0.00283000  1
  H  H4  1  0.83853000  0.20316000  0.94925000  1
  H  H5  1  0.08478000  0.69654000  0.38390000  1
  H  H6  1  0.22911000  0.68208000  0.39604000  1
  H  H7  1  0.15505000  0.60395000  0.43834000  1
  H  H8  1  0.08519000  0.71793000  0.86111000  1
  H  H9  1  0.22952000  0.70347000  0.87324000  1
  H  H10  1  0.15924000  0.79606000  0.81880000  1
  H  H11  1  0.15540000  0.62132000  0.97590000  1
  H  H12  1  0.15890000  0.77869000  0.28126000  1
  C  C1  1  0.62980000  0.19954000  0.25238000  1
  C  C2  1  0.52032000  0.19762000  0.24318000  1
  C  C3  1  0.52029000  0.19760000  0.07503000  1
  C  C4  1  0.62977000  0.19952000  0.08423000  1
  C  C5  1  0.68452000  0.20049000  0.17291000  1
  C  C6  1  0.79400000  0.20241000  0.18211000  1
  C  C7  1  0.79397000  0.20239000  0.01397000  1
  C  C8  1  0.68449000  0.20047000  0.00476000  1
  C  C9  1  0.96525000  0.20541000  0.11243000  1
  C  C10  1  0.84873000  0.20336000  0.10264000  1
  C  C11  1  0.34904000  0.19460000  0.14471000  1
  C  C12  1  0.46556000  0.19665000  0.15450000  1
  C  C13  1  0.15810000  0.74336000  0.04458000  1
  C  C14  1  0.15618000  0.65663000  0.04442000  1
  C  C15  1  0.15620000  0.65666000  0.21257000  1
  C  C16  1  0.15812000  0.74338000  0.21272000  1
  C  C17  1  0.15906000  0.78673000  0.12873000  1
  C  C18  1  0.15522000  0.61328000  0.12841000  1
  C  C19  1  0.15315000  0.51924000  0.12824000  1
  C  C20  1  0.16114000  0.88077000  0.12890000  1
  C  C21  1  0.15609000  0.65090000  0.38227000  1
  C  C22  1  0.15820000  0.74911000  0.87488000  1
  C  C23  1  0.16485000  0.04803000  0.12921000  1
  C  C24  1  0.16280000  0.95572000  0.12903000  1
  C  C25  1  0.14944000  0.35198000  0.12793000  1
  C  C26  1  0.15149000  0.44428000  0.12811000  1
  C  C27  1  0.23155000  0.14110000  0.66573000  1
  C  C28  1  0.13664000  0.12483000  0.59591000  1
  C  C29  1  0.15714000  0.20000000  0.71993000  1
  C  C30  1  0.25205000  0.21624000  0.60566000  1
  C  C31  1  0.15715000  0.20001000  0.53721000  1
  C  C32  1  0.06218000  0.18369000  0.65147000  1
  C  C33  1  0.17765000  0.27513000  0.66123000  1
  C  C34  1  0.08268000  0.25889000  0.59144000  1
  C  C35  1  0.15713000  0.19999000  0.82519000  1
  C  C36  1  0.15715000  0.20002000  0.43195000  1
  N  N1  1  0.15712000  0.19998000  0.90909000  1
  N  N2  1  0.15716000  0.20002000  0.34805000  1
  O  O1  1  0.00433000  0.20609000  0.03498000  1
  O  O2  1  0.00435000  0.20610000  0.19646000  1
  O  O3  1  0.30995000  0.19392000  0.22216000  1
  O  O4  1  0.30993000  0.19390000  0.06068000  1
  O  O5  1  0.15515000  0.60914000  0.29489000  1
  O  O6  1  0.15914000  0.79087000  0.96226000  1
  O  O7  1  0.16555000  0.07901000  0.21001000  1
  O  O8  1  0.16553000  0.07899000  0.04853000  1
  O  O9  1  0.14875000  0.32100000  0.04713000  1
  O  O10  1  0.14875000  0.32101000  0.20861000  1
  F  F1  1  0.68118000  0.20044000  0.33910000  1
  F  F2  1  0.63311000  0.19957000  0.91804000  1
  F  F3  1  0.11565000  0.04779000  0.56114000  1
  F  F4  1  0.34935000  0.23294000  0.58098000  1
  F  F5  1  0.00644000  0.31927000  0.55209000  1
  F  F6  1  0.30781000  0.08072000  0.70506000  1
  F  F7  1  0.19871000  0.35219000  0.69595000  1
  F  F8  1  0.96490000  0.16696000  0.67624000  1
