# Generated by REPEAT Assigner based on pymatgen
data_DB6-cuf_9416
_audit_creation_date              2022-05-24
_audit_creation_method            REPEAT_Assigner
_cell_length_a                    15.944500
_cell_length_b                    16.109300
_cell_length_c                    14.472300
_cell_angle_alpha                 90.008100
_cell_angle_beta                  90.009400
_cell_angle_gamma                 83.478600
_cell_volume                      3693.226053
_symmetry_space_group_name_H-M    P1
_symmetry_Int_Tables_number       1
loop_
    _symmetry_equiv_pos_site_id
    _symmetry_equiv_pos_as_xyz
    1  x,y,z
loop_
    _atom_site_type_symbol
    _atom_site_label
    _atom_site_fract_x
    _atom_site_fract_y
    _atom_site_fract_z
    _atom_type_partial_charge
    Cu  Cu1  0.199260  0.155350  0.041700  0.832099
    Cu  Cu2  0.199270  0.155370  0.223450  0.787553
    C   C1   0.727130  0.155840  0.045060  0.150242
    C   C2   0.680420  0.086360  0.088790  0.359041
    C   C3   0.781720  0.156800  0.132570  0.191761
    C   C4   0.662290  0.223340  0.088820  0.315697
    C   C5   0.616810  0.153920  0.132580  0.118835
    C   C6   0.736240  0.087280  0.176300  0.156796
    C   C7   0.718110  0.224330  0.176320  0.167638
    C   C8   0.671420  0.154830  0.220110  0.242654
    C   C9   0.876720  0.158460  0.132560  -0.285563
    C   C10  0.521810  0.152250  0.132590  -0.108159
    N   N1   0.652310  0.010080  0.034640  -0.810231
    H   H1   0.624040  0.973960  0.083080  0.307009
    H   H2   0.708820  0.975510  0.014750  0.314312
    N   N2   0.770250  0.011490  0.217210  -0.823061
    H   H3   0.805950  0.032280  0.271250  0.335502
    H   H4   0.812830  0.979860  0.170850  0.275794
    N   N3   0.751260  0.154210  0.943860  -0.759867
    H   H5   0.782680  0.207300  0.936130  0.307646
    H   H6   0.796570  0.102470  0.936060  0.284812
    N   N4   0.614730  0.294260  0.034720  -0.792864
    H   H7   0.576410  0.328780  0.082880  0.294243
    H   H8   0.661860  0.331030  0.015730  0.308324
    N   N5   0.733580  0.296870  0.216460  -0.795196
    H   H9   0.677370  0.329130  0.240850  0.265846
    H   H10  0.769600  0.277350  0.274430  0.305237
    N   N6   0.633660  0.151540  0.308000  -0.727850
    H   H11  0.685140  0.155020  0.351950  0.262199
    H   H12  0.592950  0.206430  0.317740  0.264163
    C   C11  0.045690  0.161430  0.132560  0.751256
    C   C12  0.952440  0.159790  0.132550  -0.174559
    O   O1   0.076980  0.161970  0.052110  -0.556099
    O   O2   0.076990  0.161990  0.213020  -0.537863
    C   C13  0.352830  0.149290  0.132580  0.760401
    C   C14  0.446080  0.150930  0.132590  -0.243184
    O   O3   0.321550  0.148750  0.213040  -0.533916
    O   O4   0.321540  0.148730  0.052130  -0.527229
    C   C15  0.200030  0.698710  0.048800  0.279849
    C   C16  0.198490  0.611990  0.048800  -0.203621
    C   C17  0.198500  0.612010  0.216350  0.284642
    C   C18  0.200040  0.698730  0.216350  -0.206938
    C   C19  0.200800  0.742080  0.132570  -0.049940
    C   C20  0.197730  0.568640  0.132580  -0.059032
    C   C21  0.196060  0.474610  0.132580  0.058542
    C   C22  0.202460  0.836110  0.132570  0.044538
    O   O5   0.197660  0.564500  0.298470  -0.265315
    C   C23  0.198410  0.606260  0.385470  -0.010598
    H   H13  0.141340  0.652150  0.393070  0.045830
    H   H14  0.256840  0.637180  0.393080  0.051103
    H   H15  0.197580  0.559310  0.441440  0.084630
    O   O6   0.200870  0.746220  0.966680  -0.257360
    C   C24  0.200120  0.704460  0.879680  -0.022699
    H   H16  0.141680  0.673540  0.872070  0.043994
    H   H17  0.257190  0.658570  0.872080  0.055982
    H   H18  0.200950  0.751410  0.823710  0.090873
    H   H19  0.197870  0.576680  0.980580  0.149591
    H   H20  0.200660  0.734040  0.284580  0.150228
    C   C25  0.205430  0.003360  0.132570  0.809732
    C   C26  0.203790  0.911060  0.132560  -0.319418
    O   O7   0.205980  0.034330  0.213030  -0.539413
    O   O8   0.205970  0.034320  0.052110  -0.533368
    C   C27  0.193100  0.307360  0.132580  0.825387
    C   C28  0.194740  0.399660  0.132580  -0.337735
    O   O9   0.192550  0.276380  0.052120  -0.538925
    O   O10  0.192540  0.276400  0.213040  -0.533518
    C   C29  0.199270  0.155360  0.539780  -0.108575
    C   C30  0.268350  0.087140  0.578980  0.226159
    C   C31  0.268170  0.086890  0.686070  0.199581
    C   C32  0.199260  0.155350  0.725370  -0.161951
    C   C33  0.111550  0.136630  0.686470  0.208514
    C   C34  0.111960  0.136150  0.579350  0.223424
    C   C35  0.217090  0.242510  0.579280  0.184723
    C   C36  0.219080  0.241930  0.686400  0.236954
    C   C37  0.199250  0.155350  0.830260  0.213449
    C   C38  0.199270  0.155370  0.434890  0.166969
    F   F1   0.255570  0.008930  0.545670  -0.228453
    F   F2   0.047770  0.193620  0.545900  -0.225797
    F   F3   0.296970  0.260350  0.718440  -0.226733
    F   F4   0.254550  0.008700  0.719240  -0.211032
    F   F5   0.292830  0.264050  0.544940  -0.211563
    F   F6   0.048190  0.195460  0.719400  -0.222251
    H   H21  0.333360  0.098000  0.712370  0.090896
    H   H22  0.333760  0.098070  0.553240  0.085387
    H   H23  0.096280  0.072600  0.554350  0.075587
    H   H24  0.095490  0.073810  0.713290  0.087335
    H   H25  0.172040  0.295060  0.713160  0.077082
    H   H26  0.166710  0.293280  0.553920  0.094207
    N   N7   0.199250  0.155340  0.913870  -0.194694
    N   N8   0.199270  0.155380  0.351280  -0.159677
