# generated using pymatgen
data_CuH9C19N(OF)5
_symmetry_space_group_name_H-M   'P 1'
_cell_length_a   15.99530000
_cell_length_b   16.10930000
_cell_length_c   13.44830000
_cell_angle_alpha   90.00120000
_cell_angle_beta   90.01370000
_cell_angle_gamma   83.47420000
_symmetry_Int_Tables_number   1
_chemical_formula_structural   CuH9C19N(OF)5
_chemical_formula_sum   'Cu2 H18 C38 N2 O10 F10'
_cell_volume   3442.81265418
_cell_formula_units_Z   2
loop_
 _symmetry_equiv_pos_site_id
 _symmetry_equiv_pos_as_xyz
  1  'x, y, z'
loop_
 _atom_site_type_symbol
 _atom_site_label
 _atom_site_symmetry_multiplicity
 _atom_site_fract_x
 _atom_site_fract_y
 _atom_site_fract_z
 _atom_site_occupancy
  Cu  Cu1  1  0.18748000  0.17496000  0.02727000  1
  Cu  Cu2  1  0.18751000  0.17495000  0.22285000  1
  H  H1  1  0.75198000  0.23309000  0.97361000  1
  H  H2  1  0.60826000  0.23091000  0.97336000  1
  H  H3  1  0.63522000  0.03500000  0.14000000  1
  H  H4  1  0.77867000  0.03784000  0.14158000  1
  H  H5  1  0.74912000  0.26067000  0.25817000  1
  H  H6  1  0.60606000  0.25284000  0.26095000  1
  H  H7  1  0.12978000  0.67172000  0.40539000  1
  H  H8  1  0.24492000  0.65675000  0.40540000  1
  H  H9  1  0.18584000  0.57887000  0.45744000  1
  H  H10  1  0.13008000  0.69317000  0.84472000  1
  H  H11  1  0.24522000  0.67820000  0.84474000  1
  H  H12  1  0.18916000  0.77104000  0.79268000  1
  H  H13  1  0.18610000  0.59630000  0.96150000  1
  H  H14  1  0.18891000  0.75362000  0.28864000  1
  H  H15  1  0.08441000  0.27772000  0.69115000  1
  H  H16  1  0.08441000  0.27770000  0.55891000  1
  H  H17  1  0.29061000  0.07220000  0.37013000  1
  H  H18  1  0.29057000  0.07221000  0.88007000  1
  C  C1  1  0.60372000  0.17349000  0.12507000  1
  C  C2  1  0.63904000  0.17442000  0.01612000  1
  C  C3  1  0.73576000  0.17580000  0.01606000  1
  C  C4  1  0.77128000  0.17642000  0.12505000  1
  C  C5  1  0.74666000  0.09646000  0.17915000  1
  C  C6  1  0.64996000  0.09471000  0.17845000  1
  C  C7  1  0.62900000  0.25271000  0.18069000  1
  C  C8  1  0.72558000  0.25545000  0.17865000  1
  C  C9  1  0.86597000  0.17808000  0.12505000  1
  C  C10  1  0.50902000  0.17183000  0.12508000  1
  C  C11  1  0.03441000  0.18104000  0.12505000  1
  C  C12  1  0.94146000  0.17940000  0.12504000  1
  C  C13  1  0.34058000  0.16887000  0.12508000  1
  C  C14  1  0.43353000  0.17051000  0.12508000  1
  C  C15  1  0.18825000  0.71832000  0.03491000  1
  C  C16  1  0.18672000  0.63159000  0.03491000  1
  C  C17  1  0.18674000  0.63160000  0.21522000  1
  C  C18  1  0.18828000  0.71832000  0.21522000  1
  C  C19  1  0.18903000  0.76168000  0.12506000  1
  C  C20  1  0.18597000  0.58824000  0.12506000  1
  C  C21  1  0.18431000  0.49421000  0.12507000  1
  C  C22  1  0.19069000  0.85571000  0.12505000  1
  C  C23  1  0.18667000  0.62583000  0.39721000  1
  C  C24  1  0.18833000  0.72409000  0.85291000  1
  C  C25  1  0.19364000  0.02295000  0.12505000  1
  C  C26  1  0.19201000  0.93066000  0.12505000  1
  C  C27  1  0.18135000  0.32696000  0.12507000  1
  C  C28  1  0.18299000  0.41925000  0.12507000  1
  C  C29  1  0.13066000  0.23159000  0.83763000  1
  C  C30  1  0.13067000  0.23160000  0.73353000  1
  C  C31  1  0.18749000  0.17496000  0.68150000  1
  C  C32  1  0.24432000  0.11833000  0.73358000  1
  C  C33  1  0.24431000  0.11833000  0.83768000  1
  C  C34  1  0.24433000  0.11832000  0.51660000  1
  C  C35  1  0.24434000  0.11832000  0.41249000  1
  C  C36  1  0.13069000  0.23159000  0.41245000  1
  C  C37  1  0.13068000  0.23159000  0.51655000  1
  C  C38  1  0.18750000  0.17496000  0.56862000  1
  N  N1  1  0.18747000  0.17496000  0.88970000  1
  N  N2  1  0.18752000  0.17495000  0.36042000  1
  O  O1  1  0.06559000  0.18159000  0.03847000  1
  O  O2  1  0.06561000  0.18158000  0.21163000  1
  O  O3  1  0.30944000  0.16808000  0.21165000  1
  O  O4  1  0.30935000  0.16857000  0.03849000  1
  O  O5  1  0.18591000  0.58408000  0.30359000  1
  O  O6  1  0.18908000  0.76583000  0.94653000  1
  O  O7  1  0.19420000  0.05392000  0.21164000  1
  O  O8  1  0.19418000  0.05393000  0.03847000  1
  O  O9  1  0.18080000  0.29599000  0.03848000  1
  O  O10  1  0.18081000  0.29599000  0.21165000  1
  F  F1  1  0.61797000  0.10576000  0.96368000  1
  F  F2  1  0.62041000  0.08945000  0.27494000  1
  F  F3  1  0.74499000  0.32777000  0.13205000  1
  F  F4  1  0.77480000  0.10758000  0.96429000  1
  F  F5  1  0.58839000  0.32470000  0.13828000  1
  F  F6  1  0.77683000  0.09389000  0.27607000  1
  F  F7  1  0.07596000  0.28670000  0.88826000  1
  F  F8  1  0.32080000  0.08835000  0.69738000  1
  F  F9  1  0.27419000  0.04230000  0.55288000  1
  F  F10  1  0.07544000  0.28608000  0.36180000  1
