# Generated by REPEAT Assigner based on pymatgen
data_DB6-cuf_8021
_audit_creation_date              2022-05-24
_audit_creation_method            REPEAT_Assigner
_cell_length_a                    12.811400
_cell_length_b                    19.188900
_cell_length_c                    15.500400
_cell_angle_alpha                 92.828000
_cell_angle_beta                  92.590300
_cell_angle_gamma                 83.594000
_cell_volume                      3779.137775
_symmetry_space_group_name_H-M    P1
_symmetry_Int_Tables_number       1
loop_
    _symmetry_equiv_pos_site_id
    _symmetry_equiv_pos_as_xyz
    1  x,y,z
loop_
    _atom_site_type_symbol
    _atom_site_label
    _atom_site_fract_x
    _atom_site_fract_y
    _atom_site_fract_z
    _atom_type_partial_charge
    Cu  Cu1  0.143190  0.196180  0.065350  0.691196
    Cu  Cu2  0.131740  0.203790  0.234610  0.681061
    C   C1   0.602330  0.204760  0.264880  0.313565
    C   C2   0.493440  0.202760  0.256340  -0.314152
    C   C3   0.503990  0.195740  0.100300  -0.206596
    C   C4   0.612880  0.197730  0.108840  0.018766
    C   C5   0.662050  0.202240  0.191130  0.038183
    C   C6   0.770950  0.204240  0.199670  -0.237177
    C   C7   0.781490  0.197220  0.043630  -0.301431
    C   C8   0.672600  0.195220  0.035090  0.312537
    F   F1   0.648260  0.209120  0.345360  -0.199262
    F   F2   0.626680  0.190850  0.954610  -0.198541
    H   H1   0.810980  0.207910  0.266680  0.152780
    H   H2   0.444820  0.204810  0.316400  0.168115
    H   H3   0.463940  0.192070  0.033300  0.144176
    H   H4   0.830130  0.195170  0.983570  0.162987
    C   C9   0.946570  0.203850  0.135010  0.594574
    C   C10  0.830670  0.201730  0.125910  0.028606
    O   O1   0.990530  0.201200  0.063130  -0.507545
    O   O2   0.980390  0.207940  0.212990  -0.481493
    C   C11  0.328370  0.196120  0.164960  0.600322
    C   C12  0.444270  0.198250  0.174050  0.018159
    O   O3   0.284410  0.198780  0.236840  -0.491062
    O   O4   0.294550  0.192030  0.086980  -0.500234
    C   C13  0.137900  0.961960  0.228460  -0.199569
    C   C14  0.136290  0.889120  0.228330  0.409513
    C   C15  0.140770  0.849200  0.150250  -0.540541
    C   C16  0.146830  0.882120  0.072290  -0.144219
    C   C17  0.148440  0.954960  0.072420  0.361856
    N   N1   0.201590  0.727420  0.096640  -0.364365
    N   N2   0.200070  0.658230  0.096520  -0.370139
    C   C18  0.135930  0.629750  0.149850  0.993520
    N   N3   0.073390  0.673070  0.203330  -0.356423
    N   N4   0.074910  0.742270  0.203450  -0.357618
    C   C19  0.139030  0.770220  0.150100  1.002073
    C   C20  0.128110  0.517860  0.227670  0.407607
    C   C21  0.126490  0.445020  0.227540  -0.199803
    C   C22  0.137040  0.438020  0.071490  0.378928
    C   C23  0.138650  0.510860  0.071630  -0.154321
    C   C24  0.134190  0.550770  0.149720  -0.532847
    F   F3   0.131720  0.858080  0.304640  -0.201984
    F   F4   0.154110  0.986870  0.996830  -0.211870
    F   F5   0.125060  0.555550  0.304070  -0.202054
    F   F6   0.141190  0.399380  0.995800  -0.226906
    H   H5   0.134250  0.994450  0.292050  0.134633
    H   H6   0.150490  0.849610  0.008710  0.134024
    H   H7   0.121540  0.418220  0.291020  0.144372
    H   H8   0.143610  0.537660  0.008150  0.137053
    C   C25  0.145680  0.072390  0.150640  0.535783
    C   C26  0.143970  0.994870  0.150510  -0.116202
    O   O5   0.141180  0.101770  0.225610  -0.457715
    O   O6   0.151320  0.095030  0.075750  -0.383760
    C   C27  0.129260  0.327580  0.149330  0.533984
    C   C28  0.130960  0.405100  0.149460  -0.123925
    O   O7   0.133760  0.298200  0.074360  -0.409457
    O   O8   0.123610  0.304940  0.224220  -0.428635
    C   C29  0.083270  0.235900  0.895660  0.014798
    C   C30  0.089390  0.231850  0.805580  0.146287
    C   C31  0.163510  0.182720  0.766120  0.127317
    C   C32  0.231510  0.137650  0.816770  -0.396061
    C   C33  0.225380  0.141710  0.906860  0.517817
    C   C34  0.185560  0.168130  0.494400  0.142056
    C   C35  0.191670  0.164070  0.404300  -0.024515
    C   C36  0.049560  0.258270  0.393110  0.476188
    C   C37  0.043440  0.262320  0.483200  -0.381415
    C   C38  0.111440  0.217250  0.533840  0.147175
    C   C39  0.169770  0.178580  0.674040  -0.123912
    C   C40  0.105180  0.221400  0.625930  -0.166566
    F   F7   0.003170  0.265480  0.765570  -0.167104
    F   F8   0.291060  0.097960  0.955900  -0.159553
    F   F9   0.271820  0.134530  0.534400  -0.158256
    F   F10  0.983880  0.302010  0.344060  -0.157626
    H   H9   0.022910  0.275900  0.927780  0.161772
    H   H10  0.983090  0.302320  0.515320  0.179783
    H   H11  0.252030  0.124070  0.372190  0.163876
    H   H12  0.291860  0.097660  0.784640  0.181534
    H   H13  0.044840  0.261400  0.658050  0.179923
    H   H14  0.230120  0.138580  0.641910  0.167147
    N   N5   0.151260  0.190830  0.946300  -0.286808
    N   N6   0.123680  0.209140  0.353660  -0.262387
