# generated using pymatgen
data_CuH12C21N(O2F)3
_symmetry_space_group_name_H-M   'P 1'
_cell_length_a   14.97150000
_cell_length_b   16.10930000
_cell_length_c   15.50040000
_cell_angle_alpha   92.84340000
_cell_angle_beta   87.17480000
_cell_angle_gamma   83.54100000
_symmetry_Int_Tables_number   1
_chemical_formula_structural   CuH12C21N(O2F)3
_chemical_formula_sum   'Cu2 H24 C42 N2 O12 F6'
_cell_volume   3704.41531805
_cell_formula_units_Z   2
loop_
 _symmetry_equiv_pos_site_id
 _symmetry_equiv_pos_as_xyz
  1  'x, y, z'
loop_
 _atom_site_type_symbol
 _atom_site_label
 _atom_site_symmetry_multiplicity
 _atom_site_fract_x
 _atom_site_fract_y
 _atom_site_fract_z
 _atom_site_occupancy
  Cu  Cu1  1  0.24287000  0.10280000  0.04581000  1
  Cu  Cu2  1  0.23309000  0.11194000  0.21598000  1
  H  H1  1  0.47114000  0.12275000  0.41983000  1
  H  H2  1  0.55761000  0.17883000  0.37447000  1
  H  H3  1  0.57470000  0.06460000  0.37777000  1
  H  H4  1  0.87345000  0.17691000  0.37757000  1
  H  H5  1  0.97242000  0.12346000  0.41955000  1
  H  H6  1  0.89103000  0.06240000  0.37452000  1
  H  H7  1  0.80022000  0.05162000  0.84851000  1
  H  H8  1  0.91345000  0.03387000  0.88143000  1
  H  H9  1  0.85302000  0.13943000  0.88907000  1
  H  H10  1  0.63827000  0.25686000  0.05573000  1
  H  H11  1  0.73604000  0.25241000  0.98198000  1
  H  H12  1  0.62513000  0.25949000  0.94090000  1
  H  H13  1  0.78905000  0.11606000  0.27320000  1
  H  H14  1  0.67054000  0.11396000  0.27320000  1
  H  H15  1  0.51766000  0.09572000  0.98858000  1
  H  H16  1  0.97467000  0.10374000  0.98860000  1
  H  H17  1  0.24469000  0.52106000  0.98859000  1
  H  H18  1  0.23128000  0.69368000  0.27321000  1
  H  H19  1  0.14011000  0.19854000  0.91769000  1
  H  H20  1  0.10610000  0.23027000  0.50837000  1
  H  H21  1  0.33584000  0.01618000  0.34409000  1
  H  H22  1  0.36987000  0.98446000  0.75342000  1
  H  H23  1  0.15885000  0.18112000  0.64624000  1
  H  H24  1  0.31712000  0.03362000  0.61554000  1
  C  C1  1  0.92399000  0.11492000  0.20934000  1
  C  C2  1  0.83069000  0.11329000  0.20933000  1
  C  C3  1  0.78856000  0.10826000  0.13090000  1
  C  C4  1  0.83972000  0.10487000  0.05246000  1
  C  C5  1  0.93302000  0.10651000  0.05247000  1
  C  C6  1  0.64527000  0.10145000  0.05246000  1
  C  C7  1  0.55197000  0.09981000  0.05245000  1
  C  C8  1  0.54294000  0.10823000  0.20933000  1
  C  C9  1  0.63623000  0.10987000  0.20933000  1
  C  C10  1  0.68740000  0.10648000  0.13089000  1
  C  C11  1  0.52560000  0.12001000  0.36826000  1
  C  C12  1  0.92376000  0.12054000  0.36812000  1
  C  C13  1  0.84736000  0.07184000  0.89625000  1
  C  C14  1  0.66798000  0.23205000  0.99104000  1
  C  C15  1  0.07444000  0.11327000  0.13090000  1
  C  C16  1  0.97515000  0.11153000  0.13091000  1
  C  C17  1  0.40151000  0.10146000  0.13089000  1
  C  C18  1  0.50080000  0.10321000  0.13088000  1
  C  C19  1  0.24331000  0.64651000  0.05246000  1
  C  C20  1  0.24167000  0.55979000  0.05246000  1
  C  C21  1  0.23265000  0.56823000  0.20934000  1
  C  C22  1  0.23429000  0.65495000  0.20933000  1
  C  C23  1  0.23961000  0.69409000  0.13089000  1
  C  C24  1  0.23634000  0.52064000  0.13090000  1
  C  C25  1  0.23457000  0.42662000  0.13090000  1
  C  C26  1  0.24138000  0.78812000  0.13089000  1
  C  C27  1  0.24454000  0.95537000  0.13089000  1
  C  C28  1  0.24280000  0.86307000  0.13088000  1
  C  C29  1  0.23141000  0.25936000  0.13090000  1
  C  C30  1  0.23316000  0.35166000  0.13091000  1
  C  C31  1  0.19167000  0.15050000  0.88084000  1
  C  C32  1  0.19691000  0.14563000  0.79027000  1
  C  C33  1  0.26022000  0.08663000  0.74499000  1
  C  C34  1  0.31831000  0.03250000  0.79029000  1
  C  C35  1  0.31308000  0.03737000  0.88086000  1
  C  C36  1  0.27906000  0.06910000  0.47153000  1
  C  C37  1  0.28428000  0.06423000  0.38095000  1
  C  C38  1  0.16288000  0.17737000  0.38093000  1
  C  C39  1  0.15765000  0.18223000  0.47150000  1
  C  C40  1  0.21574000  0.12810000  0.51680000  1
  C  C41  1  0.26557000  0.08166000  0.65241000  1
  C  C42  1  0.21040000  0.13308000  0.60937000  1
  N  N1  1  0.24975000  0.09637000  0.92613000  1
  N  N2  1  0.22620000  0.11836000  0.33566000  1
  O  O1  1  0.48710000  0.11227000  0.28617000  1
  O  O2  1  0.97146000  0.11932000  0.28589000  1
  O  O3  1  0.81280000  0.05704000  0.98132000  1
  O  O4  1  0.67486000  0.14254000  0.98029000  1
  O  O5  1  0.11209000  0.10981000  0.05557000  1
  O  O6  1  0.10343000  0.11790000  0.20623000  1
  O  O7  1  0.36386000  0.10492000  0.20622000  1
  O  O8  1  0.37252000  0.09684000  0.05556000  1
  O  O9  1  0.24080000  0.99039000  0.20622000  1
  O  O10  1  0.24946000  0.98230000  0.05556000  1
  O  O11  1  0.23516000  0.22435000  0.05557000  1
  O  O12  1  0.22649000  0.23244000  0.20623000  1
  F  F1  1  0.24848000  0.68373000  0.97602000  1
  F  F2  1  0.22746000  0.53171000  0.28622000  1
  F  F3  1  0.12317000  0.18627000  0.75704000  1
  F  F4  1  0.36918000  0.98482000  0.92475000  1
  F  F5  1  0.35284000  0.02850000  0.50476000  1
  F  F6  1  0.10677000  0.22991000  0.33705000  1
