# generated using pymatgen
data_CuH6C18N2(O2F3)2
_symmetry_space_group_name_H-M   'P 1'
_cell_length_a   15.99530000
_cell_length_b   16.10930000
_cell_length_c   14.42150000
_cell_angle_alpha   90.00860000
_cell_angle_beta   90.01170000
_cell_angle_gamma   83.47420000
_symmetry_Int_Tables_number   1
_chemical_formula_structural   CuH6C18N2(O2F3)2
_chemical_formula_sum   'Cu2 H12 C36 N4 O8 F12'
_cell_volume   3691.95531572
_cell_formula_units_Z   2
loop_
 _symmetry_equiv_pos_site_id
 _symmetry_equiv_pos_as_xyz
  1  'x, y, z'
loop_
 _atom_site_type_symbol
 _atom_site_label
 _atom_site_symmetry_multiplicity
 _atom_site_fract_x
 _atom_site_fract_y
 _atom_site_fract_z
 _atom_site_occupancy
  Cu  Cu1  1  0.20264000  0.16216000  0.03049000  1
  Cu  Cu2  1  0.20266000  0.16217000  0.21288000  1
  H  H1  1  0.76714000  0.22029000  0.98046000  1
  H  H2  1  0.62343000  0.21811000  0.98022000  1
  H  H3  1  0.65038000  0.02221000  0.13561000  1
  H  H4  1  0.79383000  0.02506000  0.13708000  1
  H  H5  1  0.76427000  0.24790000  0.24581000  1
  H  H6  1  0.62121000  0.24007000  0.24840000  1
  H  H7  1  0.20001000  0.51216000  0.29884000  1
  H  H8  1  0.20175000  0.61009000  0.35536000  1
  H  H9  1  0.20529000  0.81218000  0.94453000  1
  H  H10  1  0.20355000  0.71424000  0.88801000  1
  H  H11  1  0.20126000  0.58349000  0.96916000  1
  H  H12  1  0.20405000  0.74085000  0.27422000  1
  C  C1  1  0.61887000  0.16070000  0.12169000  1
  C  C2  1  0.65420000  0.16162000  0.02010000  1
  C  C3  1  0.75092000  0.16300000  0.02004000  1
  C  C4  1  0.78643000  0.16363000  0.12168000  1
  C  C5  1  0.76182000  0.08368000  0.17212000  1
  C  C6  1  0.66511000  0.08192000  0.17147000  1
  C  C7  1  0.64415000  0.23993000  0.17356000  1
  C  C8  1  0.74073000  0.24267000  0.17166000  1
  C  C9  1  0.88113000  0.16529000  0.12167000  1
  C  C10  1  0.52418000  0.15904000  0.12170000  1
  C  C11  1  0.04957000  0.16825000  0.12167000  1
  C  C12  1  0.95662000  0.16661000  0.12166000  1
  C  C13  1  0.35574000  0.15608000  0.12170000  1
  C  C14  1  0.44869000  0.15772000  0.12171000  1
  C  C15  1  0.20341000  0.70552000  0.03761000  1
  C  C16  1  0.20188000  0.61880000  0.03762000  1
  C  C17  1  0.20190000  0.61882000  0.20576000  1
  C  C18  1  0.20343000  0.70554000  0.20576000  1
  C  C19  1  0.20418000  0.74889000  0.12168000  1
  C  C20  1  0.20112000  0.57545000  0.12169000  1
  C  C21  1  0.19946000  0.48142000  0.12169000  1
  C  C22  1  0.20584000  0.84292000  0.12168000  1
  C  C23  1  0.20880000  0.01016000  0.12168000  1
  C  C24  1  0.20716000  0.91787000  0.12167000  1
  C  C25  1  0.19651000  0.31417000  0.12169000  1
  C  C26  1  0.19814000  0.40647000  0.12169000  1
  C  C27  1  0.26201000  0.10300000  0.65259000  1
  C  C28  1  0.18630000  0.08707000  0.59074000  1
  C  C29  1  0.20265000  0.16216000  0.71305000  1
  C  C30  1  0.27836000  0.17807000  0.59080000  1
  C  C31  1  0.20266000  0.16217000  0.53033000  1
  C  C32  1  0.12690000  0.14619000  0.65256000  1
  C  C33  1  0.21901000  0.23722000  0.65262000  1
  C  C34  1  0.14325000  0.22132000  0.59081000  1
  C  C35  1  0.20264000  0.16215000  0.81831000  1
  C  C36  1  0.20266000  0.16218000  0.42507000  1
  N  N1  1  0.20116000  0.57658000  0.29337000  1
  N  N2  1  0.20415000  0.74776000  0.95000000  1
  N  N3  1  0.20264000  0.16215000  0.90221000  1
  N  N4  1  0.20267000  0.16219000  0.34116000  1
  O  O1  1  0.08075000  0.16879000  0.04093000  1
  O  O2  1  0.08077000  0.16881000  0.20241000  1
  O  O3  1  0.32459000  0.15530000  0.20243000  1
  O  O4  1  0.32451000  0.15577000  0.04095000  1
  O  O5  1  0.20936000  0.04114000  0.20242000  1
  O  O6  1  0.20934000  0.04113000  0.04094000  1
  O  O7  1  0.19596000  0.28319000  0.04095000  1
  O  O8  1  0.19596000  0.28321000  0.20243000  1
  F  F1  1  0.63313000  0.09295000  0.97119000  1
  F  F2  1  0.63556000  0.07668000  0.26145000  1
  F  F3  1  0.76015000  0.31498000  0.12820000  1
  F  F4  1  0.78996000  0.09477000  0.97176000  1
  F  F5  1  0.60355000  0.31192000  0.13401000  1
  F  F6  1  0.79198000  0.08112000  0.26250000  1
  F  F7  1  0.16955000  0.01010000  0.55774000  1
  F  F8  1  0.35599000  0.19443000  0.55794000  1
  F  F9  1  0.08243000  0.28197000  0.55786000  1
  F  F10  1  0.32284000  0.04235000  0.68551000  1
  F  F11  1  0.23581000  0.31421000  0.68557000  1
  F  F12  1  0.04929000  0.12980000  0.68550000  1
