# generated using pymatgen
data_CuH9C17N3O4
_symmetry_space_group_name_H-M   'P 1'
_cell_length_a   10.65460000
_cell_length_b   15.94450000
_cell_length_c   17.66630000
_cell_angle_alpha   89.99790000
_cell_angle_beta   90.00260000
_cell_angle_gamma   83.98810000
_symmetry_Int_Tables_number   1
_chemical_formula_structural   CuH9C17N3O4
_chemical_formula_sum   'Cu2 H18 C34 N6 O8'
_cell_volume   2984.68507635
_cell_formula_units_Z   2
loop_
 _symmetry_equiv_pos_site_id
 _symmetry_equiv_pos_as_xyz
  1  'x, y, z'
loop_
 _atom_site_type_symbol
 _atom_site_label
 _atom_site_symmetry_multiplicity
 _atom_site_fract_x
 _atom_site_fract_y
 _atom_site_fract_z
 _atom_site_occupancy
  Cu  Cu1  1  0.11765000  0.17646000  0.11672000  1
  Cu  Cu2  1  0.11767000  0.17647000  0.26560000  1
  H  H1  1  0.73648000  0.17856000  0.31567000  1
  H  H2  1  0.49885000  0.17437000  0.31567000  1
  H  H3  1  0.49883000  0.17437000  0.06664000  1
  H  H4  1  0.73647000  0.17857000  0.06664000  1
  H  H5  1  0.11896000  0.72884000  0.32346000  1
  H  H6  1  0.92531000  0.63962000  0.25732000  1
  H  H7  1  0.92789000  0.74438000  0.12506000  1
  H  H8  1  0.11614000  0.62429000  0.05878000  1
  H  H9  1  0.30996000  0.71333000  0.12505000  1
  H  H10  1  0.30719000  0.60846000  0.25732000  1
  H  H11  1  0.27223000  0.07356000  0.00464000  1
  H  H12  1  0.27224000  0.07357000  0.86088000  1
  H  H13  1  0.96307000  0.27936000  0.86086000  1
  H  H14  1  0.96304000  0.27935000  0.00463000  1
  H  H15  1  0.27225000  0.07357000  0.52146000  1
  H  H16  1  0.27225000  0.07357000  0.37769000  1
  H  H17  1  0.96309000  0.27938000  0.37768000  1
  H  H18  1  0.96308000  0.27937000  0.52144000  1
  C  C1  1  0.68316000  0.17762000  0.25979000  1
  C  C2  1  0.55216000  0.17531000  0.25978000  1
  C  C3  1  0.55217000  0.17531000  0.12252000  1
  C  C4  1  0.68316000  0.17763000  0.12253000  1
  C  C5  1  0.88806000  0.18126000  0.19116000  1
  C  C6  1  0.74865000  0.17879000  0.19116000  1
  C  C7  1  0.34726000  0.17167000  0.19116000  1
  C  C8  1  0.48667000  0.17415000  0.19115000  1
  C  C9  1  0.11840000  0.70435000  0.26285000  1
  C  C10  1  0.01344000  0.65700000  0.22702000  1
  C  C11  1  0.11983000  0.75894000  0.19116000  1
  C  C12  1  0.22036000  0.64011000  0.22700000  1
  C  C13  1  0.11548000  0.59400000  0.19116000  1
  C  C14  1  0.01482000  0.71282000  0.15533000  1
  C  C15  1  0.22183000  0.69593000  0.15533000  1
  C  C16  1  0.11685000  0.64861000  0.11944000  1
  C  C17  1  0.12234000  0.85395000  0.19117000  1
  C  C18  1  0.11296000  0.49899000  0.19115000  1
  C  C19  1  0.12683000  0.02295000  0.19117000  1
  C  C20  1  0.12435000  0.92969000  0.19117000  1
  C  C21  1  0.10849000  0.32998000  0.19115000  1
  C  C22  1  0.11097000  0.42324000  0.19114000  1
  C  C23  1  0.20286000  0.11975000  0.97238000  1
  C  C24  1  0.20285000  0.11975000  0.89313000  1
  C  C25  1  0.11766000  0.17647000  0.85350000  1
  C  C26  1  0.03243000  0.23318000  0.89313000  1
  C  C27  1  0.03243000  0.23318000  0.97237000  1
  C  C28  1  0.11767000  0.17648000  0.61474000  1
  C  C29  1  0.11765000  0.17648000  0.76757000  1
  C  C30  1  0.20288000  0.11976000  0.48920000  1
  C  C31  1  0.20287000  0.11975000  0.40995000  1
  C  C32  1  0.03245000  0.23319000  0.40994000  1
  C  C33  1  0.03246000  0.23319000  0.48919000  1
  C  C34  1  0.11767000  0.17647000  0.52881000  1
  N  N1  1  0.10193000  0.25070000  0.72908000  1
  N  N2  1  0.10195000  0.25070000  0.65380000  1
  N  N3  1  0.13340000  0.10225000  0.65380000  1
  N  N4  1  0.13339000  0.10225000  0.72909000  1
  N  N5  1  0.11765000  0.17646000  0.01200000  1
  N  N6  1  0.11767000  0.17647000  0.37032000  1
  O  O1  1  0.93483000  0.18209000  0.12525000  1
  O  O2  1  0.93485000  0.18209000  0.25707000  1
  O  O3  1  0.30048000  0.17084000  0.25707000  1
  O  O4  1  0.30047000  0.17085000  0.12525000  1
  O  O5  1  0.12767000  0.05425000  0.25708000  1
  O  O6  1  0.12765000  0.05424000  0.12526000  1
  O  O7  1  0.10765000  0.29869000  0.12524000  1
  O  O8  1  0.10766000  0.29869000  0.25706000  1
