# Generated by REPEAT Assigner based on pymatgen
data_DB6-cuf_10019
_audit_creation_date              2022-05-24
_audit_creation_method            REPEAT_Assigner
_cell_length_a                    15.995300
_cell_length_b                    16.109300
_cell_length_c                    14.586300
_cell_angle_alpha                 90.002400
_cell_angle_beta                  90.015200
_cell_angle_gamma                 83.474200
_cell_volume                      3734.144679
_symmetry_space_group_name_H-M    P1
_symmetry_Int_Tables_number       1
loop_
    _symmetry_equiv_pos_site_id
    _symmetry_equiv_pos_as_xyz
    1  x,y,z
loop_
    _atom_site_type_symbol
    _atom_site_label
    _atom_site_fract_x
    _atom_site_fract_y
    _atom_site_fract_z
    _atom_type_partial_charge
    Cu  Cu1  0.192240  0.153850  0.050920  0.834227
    Cu  Cu2  0.192270  0.153850  0.231250  0.825332
    C   C1   0.608480  0.152380  0.141090  -0.071279
    C   C2   0.643800  0.153310  0.040650  0.222793
    C   C3   0.740520  0.154690  0.040590  0.231282
    C   C4   0.776040  0.155310  0.141080  -0.094666
    C   C5   0.751430  0.075360  0.190950  0.230185
    C   C6   0.654720  0.073600  0.190310  0.217247
    C   C7   0.633760  0.231600  0.192380  0.239992
    C   C8   0.730340  0.234340  0.190490  0.208671
    C   C9   0.870730  0.156970  0.141070  0.029886
    C   C10  0.513780  0.150720  0.141100  0.011414
    F   F1   0.622720  0.084650  0.992290  -0.247284
    F   F2   0.625170  0.068340  0.279270  -0.240936
    F   F3   0.749760  0.306660  0.147530  -0.242623
    F   F4   0.779550  0.086470  0.992850  -0.248565
    F   F5   0.593150  0.303590  0.153270  -0.249653
    F   F6   0.781600  0.072790  0.280310  -0.249507
    H   H1   0.756740  0.211980  0.001450  0.064310
    H   H2   0.613020  0.209800  0.001220  0.061580
    H   H3   0.639980  0.013890  0.154860  0.064494
    H   H4   0.783430  0.016740  0.156310  0.065728
    H   H5   0.753880  0.239560  0.263810  0.066230
    H   H6   0.610820  0.231730  0.266370  0.059865
    C   C11  0.039170  0.159930  0.141070  0.777822
    C   C12  0.946220  0.158290  0.141060  -0.284904
    O   O1   0.070350  0.160480  0.061240  -0.534782
    O   O2   0.070380  0.160480  0.220900  -0.537737
    C   C13  0.345340  0.147760  0.141100  0.777098
    C   C14  0.438290  0.149400  0.141110  -0.274138
    O   O3   0.314200  0.146970  0.220920  -0.535565
    O   O4   0.314110  0.147460  0.061270  -0.539705
    C   C15  0.193010  0.697210  0.057960  0.425113
    C   C16  0.191480  0.610480  0.057970  -0.327054
    C   C17  0.191510  0.610490  0.224210  0.428583
    C   C18  0.193040  0.697210  0.224210  -0.330157
    C   C19  0.193790  0.740570  0.141080  -0.038314
    C   C20  0.190730  0.567130  0.141090  -0.036985
    C   C21  0.189070  0.473100  0.141090  0.073964
    C   C22  0.195450  0.834600  0.141080  0.077563
    N   N1   0.190770  0.568240  0.310830  -0.900158
    H   H7   0.189630  0.503820  0.316240  0.376388
    H   H8   0.191380  0.601750  0.372120  0.375605
    N   N2   0.193750  0.739460  0.971340  -0.899516
    H   H9   0.194890  0.803880  0.965930  0.377431
    H   H10  0.193140  0.705950  0.910050  0.375839
    H   H11  0.190860  0.575190  0.990280  0.186240
    H   H12  0.193670  0.732510  0.291900  0.187115
    C   C23  0.198400  0.001840  0.141080  0.769633
    C   C24  0.196770  0.909550  0.141070  -0.327023
    O   O5   0.198970  0.032810  0.220910  -0.524730
    O   O6   0.198940  0.032820  0.061250  -0.539844
    C   C25  0.186110  0.305850  0.141090  0.769640
    C   C26  0.187750  0.398150  0.141090  -0.321808
    O   O7   0.185560  0.274880  0.061260  -0.528254
    O   O8   0.185570  0.274880  0.220920  -0.541610
    C   C27  0.135430  0.210480  0.689060  0.273926
    C   C28  0.135450  0.210480  0.593070  -0.186464
    C   C29  0.249090  0.097210  0.593120  0.274531
    C   C30  0.249080  0.097210  0.689100  -0.187317
    C   C31  0.192250  0.153850  0.737060  -0.056599
    C   C32  0.192270  0.153850  0.545100  -0.052891
    C   C33  0.192280  0.153850  0.441040  0.177780
    C   C34  0.192240  0.153850  0.841140  0.185859
    O   O9   0.304790  0.041690  0.540540  -0.248370
    C   C35  0.363790  0.982880  0.586760  -0.016777
    H   H13  0.330520  0.939770  0.629260  0.050624
    H   H14  0.407370  0.015710  0.629280  0.060707
    H   H15  0.401750  0.945040  0.534810  0.103942
    O   O10  0.079730  0.266000  0.741630  -0.248123
    C   C36  0.020730  0.324810  0.695410  -0.016401
    H   H16  0.977150  0.291990  0.652890  0.059801
    H   H17  0.054000  0.367920  0.652920  0.050538
    H   H18  0.982770  0.362650  0.747370  0.101775
    H   H19  0.089190  0.256610  0.554000  0.162548
    H   H20  0.295350  0.051090  0.728180  0.163948
    N   N3   0.192230  0.153850  0.924090  -0.203178
    N   N4   0.192290  0.153840  0.358080  -0.194328
