# generated using pymatgen
data_CuH13C17(N3O2)2
_symmetry_space_group_name_H-M   'P 1'
_cell_length_a   15.94450000
_cell_length_b   12.81140000
_cell_length_c   14.58630000
_cell_angle_alpha   84.56820000
_cell_angle_beta   90.01450000
_cell_angle_gamma   83.76840000
_symmetry_Int_Tables_number   1
_chemical_formula_structural   CuH13C17(N3O2)2
_chemical_formula_sum   'Cu2 H26 C34 N12 O8'
_cell_volume   2948.49063903
_cell_formula_units_Z   2
loop_
 _symmetry_equiv_pos_site_id
 _symmetry_equiv_pos_as_xyz
  1  'x, y, z'
loop_
 _atom_site_type_symbol
 _atom_site_label
 _atom_site_symmetry_multiplicity
 _atom_site_fract_x
 _atom_site_fract_y
 _atom_site_fract_z
 _atom_site_occupancy
  Cu  Cu1  1  0.21817000  0.15831000  0.01883000  1
  Cu  Cu2  1  0.21820000  0.15830000  0.19916000  1
  H  H1  1  0.64212000  0.92931000  0.07894000  1
  H  H2  1  0.72691000  0.93127000  0.01098000  1
  H  H3  1  0.82433000  0.00291000  0.25951000  1
  H  H4  1  0.83095000  0.93674000  0.16540000  1
  H  H5  1  0.80183000  0.22390000  0.90863000  1
  H  H6  1  0.81523000  0.09156000  0.91957000  1
  H  H7  1  0.59614000  0.37725000  0.04148000  1
  H  H8  1  0.68158000  0.38010000  0.97462000  1
  H  H9  1  0.69711000  0.37767000  0.19818000  1
  H  H10  1  0.78911000  0.31229000  0.23694000  1
  H  H11  1  0.70408000  0.15785000  0.32670000  1
  H  H12  1  0.61213000  0.22275000  0.28736000  1
  H  H13  1  0.24922000  0.75141000  0.87948000  1
  H  H14  1  0.20773000  0.64198000  0.83832000  1
  H  H15  1  0.20840000  0.67794000  0.37940000  1
  H  H16  1  0.24583000  0.55559000  0.33932000  1
  H  H17  1  0.22139000  0.83972000  0.98468000  1
  H  H18  1  0.21496000  0.47691000  0.93171000  1
  H  H19  1  0.21500000  0.47687000  0.23331000  1
  H  H20  1  0.22142000  0.83971000  0.28629000  1
  H  H21  1  0.33777000  0.00764000  0.45551000  1
  H  H22  1  0.37591000  0.95959000  0.56791000  1
  H  H23  1  0.09862000  0.30896000  0.76249000  1
  H  H24  1  0.06048000  0.35702000  0.65009000  1
  H  H25  1  0.11526000  0.28802000  0.51112000  1
  H  H26  1  0.32113000  0.02858000  0.70688000  1
  C  C1  1  0.74606000  0.15892000  0.02212000  1
  C  C2  1  0.69902000  0.07120000  0.07280000  1
  C  C3  1  0.80066000  0.16012000  0.10884000  1
  C  C4  1  0.68153000  0.24414000  0.05845000  1
  C  C5  1  0.63573000  0.15648000  0.10915000  1
  C  C6  1  0.75486000  0.07236000  0.15954000  1
  C  C7  1  0.73736000  0.24537000  0.14516000  1
  C  C8  1  0.69035000  0.15763000  0.19591000  1
  C  C9  1  0.89566000  0.16222000  0.10866000  1
  C  C10  1  0.54072000  0.15438000  0.10934000  1
  C  C11  1  0.06465000  0.16597000  0.10835000  1
  C  C12  1  0.97139000  0.16389000  0.10851000  1
  C  C13  1  0.37173000  0.15064000  0.10965000  1
  C  C14  1  0.46499000  0.15271000  0.10948000  1
  C  C15  1  0.21769000  0.63094000  0.98659000  1
  C  C16  1  0.21575000  0.52146000  0.99569000  1
  C  C17  1  0.21577000  0.52145000  0.16193000  1
  C  C18  1  0.21771000  0.63093000  0.15283000  1
  C  C19  1  0.21867000  0.68567000  0.06516000  1
  C  C20  1  0.22061000  0.79515000  0.05606000  1
  C  C21  1  0.22063000  0.79514000  0.22231000  1
  C  C22  1  0.21869000  0.68566000  0.23140000  1
  C  C23  1  0.22365000  0.96641000  0.12495000  1
  C  C24  1  0.22159000  0.84989000  0.13464000  1
  C  C25  1  0.21273000  0.35020000  0.09304000  1
  C  C26  1  0.21479000  0.46672000  0.08336000  1
  C  C27  1  0.16145000  0.22980000  0.65102000  1
  C  C28  1  0.16146000  0.22980000  0.55504000  1
  C  C29  1  0.27494000  0.08681000  0.56698000  1
  C  C30  1  0.27493000  0.08681000  0.66296000  1
  C  C31  1  0.21818000  0.15831000  0.70498000  1
  C  C32  1  0.21820000  0.15830000  0.51302000  1
  C  C33  1  0.21821000  0.15830000  0.40895000  1
  C  C34  1  0.21817000  0.15831000  0.80905000  1
  N  N1  1  0.67055000  0.97492000  0.02709000  1
  N  N2  1  0.78852000  0.97666000  0.20808000  1
  N  N3  1  0.77017000  0.15688000  0.92188000  1
  N  N4  1  0.63429000  0.33368000  0.99733000  1
  N  N5  1  0.75317000  0.33695000  0.17737000  1
  N  N6  1  0.65258000  0.15346000  0.28345000  1
  N  N7  1  0.22186000  0.68170000  0.89473000  1
  N  N8  1  0.22102000  0.63384000  0.32335000  1
  N  N9  1  0.33407000  0.01230000  0.52643000  1
  N  N10  1  0.10232000  0.30431000  0.69158000  1
  N  N11  1  0.21816000  0.15831000  0.89200000  1
  N  N12  1  0.21822000  0.15830000  0.32599000  1
  O  O1  1  0.09593000  0.16667000  0.02847000  1
  O  O2  1  0.09595000  0.16666000  0.18812000  1
  O  O3  1  0.34045000  0.14994000  0.18953000  1
  O  O4  1  0.34043000  0.14994000  0.02987000  1
  O  O5  1  0.22436000  0.00551000  0.20153000  1
  O  O6  1  0.22433000  0.00551000  0.04187000  1
  O  O7  1  0.21202000  0.31110000  0.01647000  1
  O  O8  1  0.21204000  0.31110000  0.17612000  1
