# Generated by REPEAT Assigner based on pymatgen
data_DB6-cuf_6637
_audit_creation_date              2022-05-24
_audit_creation_method            REPEAT_Assigner
_cell_length_a                    14.971500
_cell_length_b                    16.109300
_cell_length_c                    14.184900
_cell_angle_alpha                 76.813900
_cell_angle_beta                  103.144000
_cell_angle_gamma                 83.541000
_cell_volume                      3194.542104
_symmetry_space_group_name_H-M    P1
_symmetry_Int_Tables_number       1
loop_
    _symmetry_equiv_pos_site_id
    _symmetry_equiv_pos_as_xyz
    1  x,y,z
loop_
    _atom_site_type_symbol
    _atom_site_label
    _atom_site_fract_x
    _atom_site_fract_y
    _atom_site_fract_z
    _atom_type_partial_charge
    Cu  Cu1  0.201560  0.126370  0.047450  0.583795
    Cu  Cu2  0.249490  0.081720  0.244770  0.759850
    C   C1   0.938140  0.086800  0.237070  0.246751
    C   C2   0.844840  0.085170  0.237070  -0.202498
    C   C3   0.776100  0.104930  0.146110  -0.129030
    C   C4   0.800670  0.126340  0.055150  0.253370
    C   C5   0.893970  0.127980  0.055160  -0.168131
    C   C6   0.606210  0.122920  0.055150  -0.064062
    C   C7   0.512910  0.121290  0.055150  0.009676
    C   C8   0.557080  0.080120  0.237060  0.265785
    C   C9   0.650380  0.081750  0.237060  -0.291954
    C   C10  0.674940  0.103160  0.146100  0.188809
    O   O1   0.527300  0.059870  0.326160  -0.125511
    C   C11  0.593650  0.041650  0.421360  -0.123739
    H   H1   0.556670  0.028090  0.481150  0.097171
    H   H2   0.627760  0.098510  0.428560  0.064595
    H   H3   0.645970  0.983230  0.432380  0.059226
    O   O2   0.011570  0.067000  0.325840  -0.148202
    C   C12  0.991760  0.042230  0.421190  -0.095392
    H   H4   0.944650  0.095610  0.432150  0.048011
    H   H5   0.057860  0.028890  0.480830  0.072268
    H   H6   0.961190  0.982060  0.428620  0.066728
    O   O3   0.749620  0.101000  0.972660  -0.195228
    C   C13  0.755330  0.142690  0.874010  -0.060683
    H   H7   0.692000  0.137570  0.818650  0.068065
    H   H8   0.816390  0.109410  0.856820  0.051262
    H   H9   0.758550  0.212550  0.865690  0.062656
    O   O4   0.611330  0.186820  0.971470  -0.194145
    C   C14  0.608100  0.272940  0.983930  0.016175
    H   H10  0.600330  0.277290  0.058950  0.048541
    H   H11  0.673080  0.296160  0.973420  0.025235
    H   H12  0.548240  0.316220  0.925790  0.040449
    H   H13  0.824850  0.067750  0.311130  0.124976
    H   H14  0.706350  0.065650  0.311120  0.135389
    H   H15  0.456950  0.137380  0.981080  0.095970
    H   H16  0.913960  0.145400  0.981100  0.123747
    C   C15  0.061990  0.109950  0.146120  0.645362
    C   C16  0.962700  0.108200  0.146120  -0.193454
    O   O5   0.074100  0.130300  0.058760  -0.480499
    O   O6   0.116530  0.090760  0.233470  -0.540748
    C   C17  0.389050  0.098140  0.146100  0.600194
    C   C18  0.488350  0.099880  0.146090  -0.222895
    O   O7   0.376950  0.077780  0.233450  -0.530379
    O   O8   0.334520  0.117330  0.058750  -0.476011
    C   C19  0.204250  0.667980  0.055150  0.329269
    C   C20  0.202620  0.581260  0.055160  -0.296341
    C   C21  0.246800  0.540110  0.237070  0.323065
    C   C22  0.248440  0.626830  0.237060  -0.286761
    C   C23  0.227160  0.690770  0.146100  -0.010188
    C   C24  0.223890  0.517320  0.146110  0.011281
    C   C25  0.222120  0.423290  0.146120  0.061273
    C   C26  0.228930  0.784800  0.146100  0.095493
    F   F1   0.183510  0.729360  0.966520  -0.193432
    F   F2   0.267680  0.479290  0.326220  -0.192324
    H   H17  0.183980  0.562720  0.981090  0.190754
    H   H18  0.267090  0.645370  0.311140  0.187502
    C   C27  0.232090  0.952050  0.146100  0.935444
    C   C28  0.230340  0.859750  0.146090  -0.401058
    O   O9   0.253890  0.963250  0.233450  -0.570117
    O   O10  0.211460  0.002790  0.058750  -0.566846
    C   C29  0.218960  0.256040  0.146120  0.853244
    C   C30  0.220710  0.348330  0.146120  -0.356297
    O   O11  0.197170  0.244830  0.058760  -0.543843
    O   O12  0.239580  0.205300  0.233470  -0.515061
    C   C31  0.382130  0.958100  0.541100  -0.198402
    C   C32  0.356620  0.981870  0.436070  0.023456
    C   C33  0.235230  0.095000  0.436060  0.414802
    C   C34  0.260730  0.071240  0.541090  -0.116008
    C   C35  0.334180  0.002780  0.593610  0.035949
    C   C36  0.212780  0.115930  0.593600  0.102944
    C   C37  0.238270  0.092160  0.698620  0.045032
    C   C38  0.311720  0.023710  0.751140  -0.269950
    C   C39  0.359670  0.979020  0.698630  0.282284
    C   C40  0.139330  0.184380  0.541080  -0.307948
    C   C41  0.091370  0.229070  0.593580  0.281197
    C   C42  0.116870  0.205310  0.698610  0.058589
    C   C43  0.190320  0.136850  0.751130  -0.094029
    C   C44  0.068920  0.250000  0.751120  -0.223028
    C   C45  0.094410  0.226230  0.856150  -0.026545
    C   C46  0.215810  0.113090  0.856160  0.313664
    F   F3   0.428270  0.910420  0.750860  -0.179780
    F   F4   0.017800  0.292970  0.541360  -0.183484
    F   F5   0.187890  0.172400  0.375220  -0.130872
    F   F6   0.298960  0.068840  0.917000  -0.064248
    H   H19  0.332470  0.004360  0.836660  0.159513
    H   H20  0.441940  0.902350  0.583860  0.136630
    H   H21  0.395680  0.945470  0.393330  0.136292
    H   H22  0.118570  0.203720  0.455560  0.194811
    H   H23  0.009110  0.305730  0.708360  0.149203
    H   H24  0.055360  0.262620  0.898900  0.141186
    N   N1   0.167860  0.157770  0.908660  -0.061700
    N   N2   0.283190  0.050310  0.383550  -0.186110
