# generated using pymatgen
data_CuH16C20(NO2)3
_symmetry_space_group_name_H-M   'P 1'
_cell_length_a   12.81140000
_cell_length_b   16.10930000
_cell_length_c   15.50040000
_cell_angle_alpha   92.84340000
_cell_angle_beta   92.59030000
_cell_angle_gamma   83.75590000
_symmetry_Int_Tables_number   1
_chemical_formula_structural   CuH16C20(NO2)3
_chemical_formula_sum   'Cu2 H32 C40 N6 O12'
_cell_volume   3173.56829345
_cell_formula_units_Z   2
loop_
 _symmetry_equiv_pos_site_id
 _symmetry_equiv_pos_as_xyz
  1  'x, y, z'
loop_
 _atom_site_type_symbol
 _atom_site_label
 _atom_site_symmetry_multiplicity
 _atom_site_fract_x
 _atom_site_fract_y
 _atom_site_fract_z
 _atom_site_occupancy
  Cu  Cu1  1  0.14708000  0.12542000  0.13278000  1
  Cu  Cu2  1  0.13567000  0.13448000  0.30204000  1
  H  H1  1  0.71994000  0.17224000  0.43286000  1
  H  H2  1  0.60790000  0.13325000  0.47149000  1
  H  H3  1  0.67815000  0.10663000  0.96359000  1
  H  H4  1  0.55325000  0.14570000  0.00122000  1
  H  H5  1  0.81492000  0.13938000  0.33411000  1
  H  H6  1  0.44875000  0.13570000  0.38383000  1
  H  H7  1  0.46782000  0.12053000  0.10072000  1
  H  H8  1  0.83401000  0.12421000  0.05100000  1
  H  H9  1  0.12697000  0.48870000  0.38156000  1
  H  H10  1  0.12560000  0.58946000  0.43419000  1
  H  H11  1  0.15578000  0.77120000  0.05326000  1
  H  H12  1  0.15716000  0.67045000  0.00064000  1
  H  H13  1  0.14921000  0.54370000  0.07572000  1
  H  H14  1  0.13356000  0.71621000  0.35911000  1
  H  H15  1  0.33553000  0.90272000  0.94774000  1
  H  H16  1  0.41784000  0.91415000  0.04349000  1
  H  H17  1  0.42972000  0.98076000  0.95573000  1
  H  H18  1  0.06603000  0.36126000  0.80476000  1
  H  H19  1  0.12619000  0.32864000  0.90646000  1
  H  H20  1  0.18401000  0.28946000  0.80549000  1
  H  H21  1  0.85321000  0.27920000  0.47860000  1
  H  H22  1  0.86534000  0.34562000  0.39067000  1
  H  H23  1  0.94741000  0.35716000  0.48659000  1
  H  H24  1  0.09860000  0.97051000  0.62959000  1
  H  H25  1  0.15641000  0.93133000  0.52862000  1
  H  H26  1  0.21652000  0.89867000  0.63032000  1
  H  H27  1  0.02714000  0.22035000  0.99524000  1
  H  H28  1  0.98743000  0.25181000  0.58280000  1
  H  H29  1  0.25561000  0.03955000  0.43958000  1
  H  H30  1  0.29533000  0.00810000  0.85202000  1
  H  H31  1  0.04901000  0.20308000  0.72550000  1
  H  H32  1  0.23376000  0.05683000  0.70931000  1
  C  C1  1  0.60626000  0.13563000  0.33231000  1
  C  C2  1  0.49736000  0.13325000  0.32377000  1
  C  C3  1  0.50788000  0.12489000  0.16772000  1
  C  C4  1  0.61678000  0.12727000  0.17626000  1
  C  C5  1  0.66597000  0.13264000  0.25856000  1
  C  C6  1  0.77487000  0.13501000  0.26710000  1
  C  C7  1  0.78539000  0.12666000  0.11105000  1
  C  C8  1  0.67649000  0.12428000  0.10251000  1
  C  C9  1  0.95049000  0.13456000  0.20243000  1
  C  C10  1  0.83459000  0.13202000  0.19334000  1
  C  C11  1  0.33226000  0.12535000  0.23239000  1
  C  C12  1  0.44817000  0.12788000  0.24148000  1
  C  C13  1  0.14760000  0.66914000  0.13946000  1
  C  C14  1  0.14569000  0.58240000  0.13932000  1
  C  C15  1  0.13516000  0.59077000  0.29536000  1
  C  C16  1  0.13707000  0.67750000  0.29551000  1
  C  C17  1  0.14329000  0.71669000  0.21756000  1
  C  C18  1  0.13947000  0.54322000  0.21726000  1
  C  C19  1  0.13740000  0.44917000  0.21711000  1
  C  C20  1  0.14535000  0.81074000  0.21771000  1
  C  C21  1  0.14904000  0.97801000  0.21800000  1
  C  C22  1  0.14700000  0.88570000  0.21784000  1
  C  C23  1  0.13371000  0.28190000  0.21682000  1
  C  C24  1  0.13575000  0.37421000  0.21698000  1
  C  C25  1  0.08733000  0.17272000  0.96311000  1
  C  C26  1  0.09344000  0.16789000  0.87302000  1
  C  C27  1  0.16734000  0.10940000  0.83354000  1
  C  C28  1  0.23515000  0.05572000  0.88417000  1
  C  C29  1  0.22904000  0.06055000  0.97426000  1
  C  C30  1  0.18933000  0.09201000  0.56181000  1
  C  C31  1  0.19543000  0.08719000  0.47171000  1
  C  C32  1  0.05372000  0.19936000  0.46057000  1
  C  C33  1  0.04761000  0.20418000  0.55066000  1
  C  C34  1  0.11542000  0.15051000  0.60128000  1
  C  C35  1  0.17359000  0.10446000  0.74146000  1
  C  C36  1  0.10918000  0.15545000  0.69336000  1
  C  C37  1  0.37332000  0.94873000  0.99108000  1
  C  C38  1  0.10911000  0.30790000  0.83829000  1
  C  C39  1  0.90973000  0.31114000  0.44326000  1
  C  C40  1  0.17350000  0.95207000  0.59672000  1
  N  N1  1  0.65120000  0.14439000  0.41853000  1
  N  N2  1  0.63049000  0.12195000  0.01620000  1
  N  N3  1  0.12874000  0.55286000  0.37660000  1
  N  N4  1  0.15402000  0.70705000  0.05823000  1
  N  N5  1  0.15512000  0.11905000  0.01372000  1
  N  N6  1  0.12763000  0.14085000  0.42109000  1
  O  O1  1  0.99444000  0.13140000  0.13055000  1
  O  O2  1  0.98433000  0.13942000  0.28042000  1
  O  O3  1  0.28831000  0.12851000  0.30427000  1
  O  O4  1  0.29842000  0.12048000  0.15440000  1
  O  O5  1  0.14467000  0.01299000  0.29299000  1
  O  O6  1  0.15478000  0.00497000  0.14313000  1
  O  O7  1  0.13809000  0.24691000  0.14183000  1
  O  O8  1  0.12796000  0.25493000  0.29169000  1
  O  O9  1  0.29571000  0.00825000  0.02878000  1
  O  O10  1  0.04536000  0.24018000  0.83457000  1
  O  O11  1  0.98734000  0.25146000  0.40575000  1
  O  O12  1  0.23730000  0.01974000  0.60051000  1
