# generated using pymatgen
data_CuH8C14N5(O2F)2
_symmetry_space_group_name_H-M   'P 1'
_cell_length_a   10.65460000
_cell_length_b   19.18890000
_cell_length_c   9.13031000
_cell_angle_alpha   89.99600000
_cell_angle_beta   90.00510000
_cell_angle_gamma   83.81290000
_symmetry_Int_Tables_number   1
_chemical_formula_structural   CuH8C14N5(O2F)2
_chemical_formula_sum   'Cu2 H16 C28 N10 O8 F4'
_cell_volume   1855.81935083
_cell_formula_units_Z   2
loop_
 _symmetry_equiv_pos_site_id
 _symmetry_equiv_pos_as_xyz
  1  'x, y, z'
loop_
 _atom_site_type_symbol
 _atom_site_label
 _atom_site_symmetry_multiplicity
 _atom_site_fract_x
 _atom_site_fract_y
 _atom_site_fract_z
 _atom_site_occupancy
  Cu  Cu1  1  0.11663000  0.29416000  0.92925000  1
  Cu  Cu2  1  0.11665000  0.29416000  0.21733000  1
  H  H1  1  0.49785000  0.29242000  0.31420000  1
  H  H2  1  0.73543000  0.29592000  0.83236000  1
  H  H3  1  0.12153000  0.14458000  0.80255000  1
  H  H4  1  0.11986000  0.06380000  0.70399000  1
  H  H5  1  0.16626000  0.89241000  0.35295000  1
  H  H6  1  0.11384000  0.97285000  0.44111000  1
  H  H7  1  0.16033000  0.68971000  0.35287000  1
  H  H8  1  0.10431000  0.61653000  0.44105000  1
  H  H9  1  0.10301000  0.44442000  0.80243000  1
  H  H10  1  0.10560000  0.52513000  0.70396000  1
  H  H11  1  0.12431000  0.08226000  0.31423000  1
  H  H12  1  0.12076000  0.95015000  0.83239000  1
  H  H13  1  0.10901000  0.50604000  0.31418000  1
  H  H14  1  0.11248000  0.63820000  0.83235000  1
  H  H15  1  0.96161000  0.37970000  0.43416000  1
  H  H16  1  0.27170000  0.20863000  0.71243000  1
  C  C1  1  0.68214000  0.29512000  0.20608000  1
  C  C2  1  0.55116000  0.29320000  0.20607000  1
  C  C3  1  0.55115000  0.29320000  0.94049000  1
  C  C4  1  0.68213000  0.29513000  0.94050000  1
  C  C5  1  0.88702000  0.29815000  0.07330000  1
  C  C6  1  0.74762000  0.29609000  0.07330000  1
  C  C7  1  0.34626000  0.29018000  0.07328000  1
  C  C8  1  0.48566000  0.29223000  0.07328000  1
  C  C9  1  0.12352000  0.05262000  0.20610000  1
  C  C10  1  0.12158000  0.97978000  0.20609000  1
  C  C11  1  0.12061000  0.94337000  0.07331000  1
  C  C12  1  0.12154000  0.97980000  0.94051000  1
  C  C13  1  0.12347000  0.05264000  0.94052000  1
  C  C14  1  0.11479000  0.72392000  0.07328000  1
  C  C15  1  0.11851000  0.86439000  0.07328000  1
  C  C16  1  0.11174000  0.60853000  0.20606000  1
  C  C17  1  0.10979000  0.53569000  0.20605000  1
  C  C18  1  0.10977000  0.53571000  0.94046000  1
  C  C19  1  0.11170000  0.60854000  0.94047000  1
  C  C20  1  0.11270000  0.64495000  0.07328000  1
  C  C21  1  0.12652000  0.16656000  0.07331000  1
  C  C22  1  0.12447000  0.08904000  0.07332000  1
  C  C23  1  0.10676000  0.42176000  0.07327000  1
  C  C24  1  0.10881000  0.49928000  0.07326000  1
  C  C25  1  0.03116000  0.34130000  0.64993000  1
  C  C26  1  0.03119000  0.34130000  0.49659000  1
  C  C27  1  0.20213000  0.24702000  0.49666000  1
  C  C28  1  0.20211000  0.24702000  0.65000000  1
  N  N1  1  0.18903000  0.82417000  0.97446000  1
  N  N2  1  0.18720000  0.75498000  0.97446000  1
  N  N3  1  0.04430000  0.76467000  0.17211000  1
  N  N4  1  0.04613000  0.83387000  0.17212000  1
  N  N5  1  0.12029000  0.09025000  0.80398000  1
  N  N6  1  0.12821000  0.94456000  0.34363000  1
  N  N7  1  0.12003000  0.64277000  0.34357000  1
  N  N8  1  0.10463000  0.49872000  0.80385000  1
  N  N9  1  0.11662000  0.29416000  0.72663000  1
  N  N10  1  0.11666000  0.29416000  0.41995000  1
  O  O1  1  0.93378000  0.29884000  0.94576000  1
  O  O2  1  0.93381000  0.29883000  0.20083000  1
  O  O3  1  0.29950000  0.28948000  0.20082000  1
  O  O4  1  0.29947000  0.28949000  0.94575000  1
  O  O5  1  0.12722000  0.19257000  0.20084000  1
  O  O6  1  0.12719000  0.19257000  0.94577000  1
  O  O7  1  0.10607000  0.39575000  0.94574000  1
  O  O8  1  0.10608000  0.39575000  0.20081000  1
  F  F1  1  0.74582000  0.29595000  0.33439000  1
  F  F2  1  0.48739000  0.29245000  0.81218000  1
  F  F3  1  0.94844000  0.38678000  0.72441000  1
  F  F4  1  0.28494000  0.20159000  0.42210000  1
