# Generated by REPEAT Assigner based on pymatgen
data_DB6-cuf_2077
_audit_creation_date              2022-05-24
_audit_creation_method            REPEAT_Assigner
_cell_length_a                    10.654600
_cell_length_b                    19.188900
_cell_length_c                    15.500400
_cell_angle_alpha                 92.828000
_cell_angle_beta                  87.151900
_cell_angle_gamma                 83.812900
_cell_volume                      3141.929826
_symmetry_space_group_name_H-M    P1
_symmetry_Int_Tables_number       1
loop_
    _symmetry_equiv_pos_site_id
    _symmetry_equiv_pos_as_xyz
    1  x,y,z
loop_
    _atom_site_type_symbol
    _atom_site_label
    _atom_site_fract_x
    _atom_site_fract_y
    _atom_site_fract_z
    _atom_type_partial_charge
    Cu  Cu1  0.092890  0.232290  0.076890  0.685799
    Cu  Cu2  0.079120  0.239900  0.247050  0.500977
    C   C1   0.645140  0.240560  0.240400  0.470234
    C   C2   0.514160  0.238640  0.240400  -0.290723
    C   C3   0.526880  0.231620  0.083530  0.451293
    C   C4   0.657860  0.233550  0.083530  -0.267917
    N   N1   0.705530  0.245670  0.320460  -0.879162
    H   H1   0.803130  0.247150  0.321430  0.332798
    H   H2   0.653040  0.247600  0.379460  0.320470
    N   N2   0.465980  0.229040  0.003470  -0.859921
    H   H3   0.367790  0.230250  0.002960  0.290600
    H   H4   0.516190  0.237610  0.946090  0.313667
    H   H5   0.455680  0.240720  0.304270  0.143572
    H   H6   0.716340  0.231480  0.019660  0.139073
    C   C5   0.856390  0.240080  0.161970  0.666712
    C   C6   0.716990  0.238020  0.161970  -0.276223
    O   O1   0.909260  0.237400  0.086640  -0.479274
    O   O2   0.897070  0.244140  0.237300  -0.375119
    C   C7   0.315630  0.232110  0.161970  0.594947
    C   C8   0.455030  0.234170  0.161960  -0.235814
    O   O3   0.262750  0.234790  0.237300  -0.440417
    O   O4   0.274950  0.228050  0.086640  -0.332123
    C   C9   0.086530  0.998060  0.240410  -0.173699
    C   C10  0.084580  0.925230  0.240410  0.435571
    C   C11  0.089970  0.885300  0.161980  -0.539234
    C   C12  0.097270  0.918220  0.083540  -0.118840
    C   C13  0.099200  0.991060  0.083540  0.292967
    N   N3   0.163130  0.763490  0.103590  -0.384713
    N   N4   0.161300  0.694300  0.103590  -0.369189
    C   C14  0.084160  0.665860  0.161960  0.961764
    N   N5   0.008930  0.709220  0.220340  -0.359555
    N   N6   0.010760  0.778410  0.220340  -0.350478
    C   C15  0.087880  0.806330  0.161970  0.980713
    C   C16  0.074750  0.553970  0.240390  0.421825
    C   C17  0.072800  0.481130  0.240390  -0.156799
    C   C18  0.085500  0.474130  0.083510  0.273339
    C   C19  0.087430  0.546960  0.083520  -0.105866
    C   C20  0.082060  0.586880  0.161960  -0.537216
    O   O5   0.106480  0.027520  0.006680  -0.184088
    C   C21  0.112430  0.988850  0.925230  -0.100040
    H   H7   0.025880  0.962070  0.917990  0.071909
    H   H8   0.198600  0.950410  0.918310  0.052719
    H   H9   0.117900  0.025870  0.872830  0.088988
    O   O6   0.079760  0.893880  0.320060  -0.408366
    C   C22  0.198150  0.859780  0.343740  0.150747
    H   H10  0.222990  0.884200  0.406100  0.024191
    H   H11  0.277060  0.863340  0.294770  -0.016672
    H   H12  0.188650  0.803540  0.352610  0.041694
    O   O7   0.090690  0.430790  0.006660  -0.208639
    C   C23  0.098490  0.462190  0.925210  0.055248
    H   H13  0.013660  0.500030  0.917970  0.035305
    H   H14  0.101790  0.420460  0.872820  0.021464
    H   H15  0.186370  0.488270  0.918290  0.031043
    O   O8   0.071590  0.592090  0.320020  -0.410843
    C   C24  0.191400  0.611990  0.343760  0.194100
    H   H16  0.215090  0.589220  0.406060  0.013303
    H   H17  0.184740  0.670020  0.352620  0.023346
    H   H18  0.269740  0.593960  0.294790  -0.018293
    H   H19  0.082140  0.030560  0.304290  0.130965
    H   H20  0.101670  0.885710  0.019680  0.098562
    H   H21  0.066840  0.454340  0.304250  0.105988
    H   H22  0.093390  0.573760  0.019660  0.088766
    C   C25  0.095880  0.108490  0.161980  0.588367
    C   C26  0.093830  0.030970  0.161990  -0.157231
    O   O9   0.090470  0.137870  0.237310  -0.488565
    O   O10  0.102670  0.131130  0.086650  -0.491732
    C   C27  0.076130  0.363700  0.161960  0.570298
    C   C28  0.078180  0.441210  0.161950  -0.142729
    O   O11  0.081550  0.334310  0.086630  -0.526163
    O   O12  0.069340  0.341050  0.237290  -0.429176
    C   C29  0.020810  0.272040  0.911900  -0.038728
    C   C30  0.028180  0.267980  0.821330  0.336759
    C   C31  0.117330  0.218810  0.776070  -0.094920
    C   C32  0.199120  0.173700  0.821380  -0.330235
    C   C33  0.191750  0.177760  0.911950  0.463075
    C   C34  0.143850  0.204200  0.502610  0.175031
    C   C35  0.151200  0.200150  0.412030  -0.085222
    C   C36  0.980270  0.294430  0.412000  0.432975
    C   C37  0.972910  0.298480  0.502570  -0.374285
    C   C38  0.054700  0.253370  0.547870  0.063401
    C   C39  0.124860  0.214670  0.683490  -0.018339
    C   C40  0.047170  0.257520  0.640450  -0.149708
    N   N7   0.274730  0.131490  0.958360  -0.548866
    H   H23  0.270600  0.134260  0.025900  0.275952
    H   H24  0.341010  0.094100  0.925510  0.275806
    N   N8   0.909660  0.294490  0.788230  -0.791758
    H   H25  0.860120  0.341290  0.814610  0.316640
    H   H26  0.859550  0.261760  0.750310  0.332322
    N   N9   0.262360  0.177700  0.535710  -0.675060
    H   H27  0.311900  0.130900  0.509330  0.293779
    H   H28  0.312470  0.210430  0.573630  0.308755
    N   N10  0.897290  0.340690  0.365580  -0.619028
    H   H29  0.901480  0.337960  0.298040  0.293465
    H   H30  0.831010  0.378090  0.398430  0.295419
    H   H31  0.948210  0.312080  0.948760  0.135280
    H   H32  0.900320  0.338520  0.539420  0.151657
    H   H33  0.223800  0.160100  0.375180  0.157334
    H   H34  0.271710  0.133670  0.784510  0.131438
    H   H35  0.974590  0.297560  0.677300  0.117819
    H   H36  0.197440  0.174630  0.646630  0.086885
    N   N11  0.102590  0.226930  0.957210  -0.284607
    N   N12  0.069420  0.245260  0.366730  -0.181539
