# Generated by REPEAT Assigner based on pymatgen
data_DB6-cuf_8629
_audit_creation_date              2022-05-24
_audit_creation_method            REPEAT_Assigner
_cell_length_a                    15.995300
_cell_length_b                    12.811400
_cell_length_c                    15.500400
_cell_angle_alpha                 87.431900
_cell_angle_beta                  87.185800
_cell_angle_gamma                 83.764100
_cell_volume                      3151.280117
_symmetry_space_group_name_H-M    P1
_symmetry_Int_Tables_number       1
loop_
    _symmetry_equiv_pos_site_id
    _symmetry_equiv_pos_as_xyz
    1  x,y,z
loop_
    _atom_site_type_symbol
    _atom_site_label
    _atom_site_fract_x
    _atom_site_fract_y
    _atom_site_fract_z
    _atom_type_partial_charge
    Cu  Cu1  0.157090  0.126990  0.119500  0.765981
    Cu  Cu2  0.148020  0.138480  0.288760  0.747490
    C   C1   0.568760  0.130890  0.204280  -0.074820
    C   C2   0.609160  0.125660  0.109910  0.228018
    C   C3   0.705900  0.127390  0.109720  0.230383
    C   C4   0.736350  0.134580  0.203980  -0.130840
    C   C5   0.708430  0.037350  0.258680  0.252178
    C   C6   0.611740  0.035100  0.258250  0.209144
    C   C7   0.592240  0.233640  0.244610  0.257445
    C   C8   0.688950  0.236970  0.242580  0.210560
    C   C9   0.831070  0.136660  0.203810  0.078412
    C   C10  0.474050  0.128810  0.204450  0.039739
    F   F1   0.589840  0.036350  0.071290  -0.245611
    F   F2   0.577660  0.034170  0.342270  -0.248197
    F   F3   0.711240  0.325040  0.195120  -0.241825
    F   F4   0.746660  0.038680  0.071640  -0.252028
    F   F5   0.554320  0.321560  0.200810  -0.256354
    F   F6   0.734070  0.039810  0.342810  -0.254480
    H   H1   0.724660  0.196840  0.067340  0.060227
    H   H2   0.580930  0.194090  0.067340  0.056873
    H   H3   0.598200  0.957860  0.230850  0.064798
    H   H4   0.741610  0.961520  0.231940  0.064132
    H   H5   0.708840  0.248190  0.310870  0.065744
    H   H6   0.565570  0.238530  0.314060  0.051264
    C   C11  0.999530  0.140370  0.203520  0.924030
    C   C12  0.906570  0.138320  0.203670  -0.377551
    O   O1   0.034740  0.135970  0.128540  -0.572330
    O   O2   0.026720  0.146150  0.278400  -0.599963
    C   C13  0.305580  0.125100  0.204740  0.905687
    C   C14  0.398550  0.127150  0.204590  -0.351170
    O   O3   0.270400  0.129180  0.279750  -0.568261
    O   O4   0.278370  0.119630  0.129840  -0.598813
    C   C15  0.158240  0.597570  0.089240  0.564289
    C   C16  0.155850  0.488670  0.097780  -0.451092
    C   C17  0.147480  0.499260  0.253820  -0.270460
    C   C18  0.149870  0.608160  0.245280  0.013997
    C   C19  0.155250  0.657310  0.162990  -0.079475
    C   C20  0.157640  0.766210  0.154450  -0.206196
    C   C21  0.149280  0.776790  0.310490  -0.419504
    C   C22  0.146880  0.667890  0.319030  0.467265
    N   N1   0.167030  0.642470  0.003020  -1.002752
    H   H7   0.195070  0.711210  0.988700  0.395696
    H   H8   0.155790  0.599160  0.950070  0.383015
    N   N2   0.144570  0.621930  0.405330  -0.911079
    H   H9   0.129160  0.669610  0.457940  0.364969
    H   H10  0.168490  0.544700  0.420320  0.353561
    H   H11  0.162010  0.806230  0.087440  0.130591
    H   H12  0.158290  0.440040  0.037720  0.198626
    H   H13  0.143110  0.459220  0.320820  0.163042
    H   H14  0.146840  0.825440  0.370540  0.197337
    C   C23  0.157200  0.941850  0.219110  0.577252
    C   C24  0.154650  0.825950  0.228200  0.060065
    O   O5   0.154040  0.985830  0.290990  -0.499129
    O   O6   0.162070  0.975660  0.141130  -0.558062
    C   C25  0.147920  0.323610  0.189160  0.602281
    C   C26  0.150460  0.439510  0.180060  0.076069
    O   O7   0.151080  0.279630  0.117280  -0.511798
    O   O8   0.143040  0.289810  0.267140  -0.580842
    C   C27  0.109640  0.186960  0.949810  -0.058295
    C   C28  0.114490  0.180840  0.859720  0.115851
    C   C29  0.173170  0.106670  0.820280  0.122020
    C   C30  0.227020  0.038610  0.870930  -0.360024
    C   C31  0.222170  0.044730  0.961010  0.326506
    C   C32  0.190630  0.084630  0.548550  0.127857
    C   C33  0.195480  0.078500  0.458450  -0.062695
    C   C34  0.082950  0.220740  0.447250  0.312002
    C   C35  0.078100  0.226850  0.537340  -0.338919
    C   C36  0.131950  0.158800  0.587990  0.091865
    C   C37  0.178130  0.100410  0.728190  -0.111936
    C   C38  0.126990  0.165060  0.680070  -0.081338
    O   O9   0.275110  0.978400  0.015520  -0.068527
    C   C39  0.336760  0.902910  0.977660  -0.123493
    H   H15  0.306000  0.845500  0.941790  0.048536
    H   H16  0.372110  0.859060  0.030020  0.102414
    H   H17  0.382300  0.942590  0.934780  0.086905
    O   O10  0.076650  0.272090  0.817880  -0.320318
    C   C40  0.128450  0.356510  0.809980  0.068531
    H   H18  0.094420  0.423940  0.774530  0.062514
    H   H19  0.142350  0.382380  0.874780  0.032661
    H   H20  0.188320  0.332620  0.773180  0.015765
    O   O11  0.030240  0.286820  0.392450  -0.053424
    C   C41  0.968590  0.362520  0.430100  -0.141073
    H   H21  0.922960  0.322950  0.472980  0.079974
    H   H22  0.933340  0.406240  0.377560  0.108078
    H   H23  0.999270  0.419930  0.465970  0.061931
    O   O12  0.228390  0.993400  0.590650  -0.325730
    C   C42  0.176550  0.909040  0.598490  0.086767
    H   H24  0.116670  0.932930  0.635350  0.018912
    H   H25  0.162650  0.883170  0.533750  0.025505
    H   H26  0.210530  0.841560  0.634000  0.051276
    H   H27  0.061850  0.247360  0.981920  0.162851
    H   H28  0.030320  0.287250  0.569460  0.144813
    H   H29  0.243270  0.018100  0.426340  0.158973
    H   H30  0.274800  0.978220  0.838800  0.148575
    H   H31  0.079220  0.225460  0.712190  0.132768
    H   H32  0.225910  0.040010  0.696070  0.142594
    N   N3   0.163470  0.118910  0.000450  -0.150514
    N   N4   0.141640  0.146560  0.407810  -0.137683
