# Generated by REPEAT Assigner based on pymatgen
data_DB6-cuf_8016
_audit_creation_date              2022-05-24
_audit_creation_method            REPEAT_Assigner
_cell_length_a                    12.811400
_cell_length_b                    19.188900
_cell_length_c                    11.295700
_cell_angle_alpha                 94.092100
_cell_angle_beta                  91.311600
_cell_angle_gamma                 83.594000
_cell_volume                      2752.211739
_symmetry_space_group_name_H-M    P1
_symmetry_Int_Tables_number       1
loop_
    _symmetry_equiv_pos_site_id
    _symmetry_equiv_pos_as_xyz
    1  x,y,z
loop_
    _atom_site_type_symbol
    _atom_site_label
    _atom_site_fract_x
    _atom_site_fract_y
    _atom_site_fract_z
    _atom_type_partial_charge
    Cu  Cu1  0.186390  0.184660  0.002770  0.703172
    Cu  Cu2  0.169810  0.195670  0.235190  0.692443
    C   C1   0.639480  0.197240  0.276750  0.259010
    C   C2   0.530850  0.195070  0.265020  -0.205809
    C   C3   0.546130  0.184920  0.050750  -0.123857
    C   C4   0.654770  0.187090  0.062480  -0.026528
    C   C5   0.701440  0.193250  0.175480  0.034396
    C   C6   0.810070  0.195410  0.187200  -0.191450
    C   C7   0.825350  0.185260  0.972940  -0.217915
    C   C8   0.716720  0.183090  0.961210  0.288790
    O   O1   0.690420  0.203420  0.389040  -0.306441
    C   C9   0.629370  0.207600  0.494020  0.059915
    H   H1   0.570920  0.255060  0.497050  0.042665
    H   H2   0.682500  0.212180  0.572410  0.065887
    H   H3   0.590110  0.159160  0.499130  0.042942
    O   O2   0.665780  0.176910  0.848920  -0.320116
    C   C10  0.726830  0.172730  0.743940  0.099909
    H   H4   0.673700  0.168150  0.665540  0.028975
    H   H5   0.785290  0.125270  0.740910  0.037692
    H   H6   0.766090  0.221180  0.738820  0.031679
    H   H7   0.848070  0.200430  0.279210  0.105480
    H   H8   0.480410  0.198330  0.347490  0.103507
    H   H9   0.508110  0.179910  0.958750  0.085682
    H   H10  0.875810  0.182000  0.890470  0.104327
    C   C11  0.987650  0.193730  0.098410  0.607824
    C   C12  0.872040  0.191420  0.085930  -0.050203
    O   O3   0.033790  0.189630  0.999710  -0.512233
    O   O4   0.019110  0.199380  0.205490  -0.476102
    C   C13  0.368550  0.186600  0.139540  0.636362
    C   C14  0.484170  0.188910  0.152030  -0.094021
    O   O5   0.322410  0.190700  0.238240  -0.510274
    O   O6   0.337100  0.180950  0.032470  -0.499761
    C   C15  0.176160  0.953710  0.226740  -0.213152
    C   C16  0.174540  0.880870  0.226560  0.406122
    C   C17  0.181390  0.839380  0.119350  -0.546966
    C   C18  0.189820  0.870740  0.012290  -0.137016
    C   C19  0.191420  0.943580  0.012470  0.331128
    N   N1   0.243840  0.716520  0.045730  -0.379091
    N   N2   0.242320  0.647330  0.045560  -0.354789
    C   C20  0.176570  0.619920  0.118800  0.990486
    N   N3   0.112400  0.664320  0.192230  -0.373861
    N   N4   0.113930  0.733520  0.192390  -0.341522
    C   C21  0.179660  0.760400  0.119140  1.002308
    C   C22  0.166390  0.509590  0.225650  0.395336
    C   C23  0.164770  0.436750  0.225470  -0.191826
    C   C24  0.180060  0.426620  0.011200  0.369384
    C   C25  0.181660  0.499460  0.011380  -0.167412
    C   C26  0.174830  0.540940  0.118610  -0.523566
    F   F1   0.167660  0.851360  0.331340  -0.203674
    F   F2   0.199390  0.973970  0.908670  -0.201743
    F   F3   0.161020  0.548820  0.330560  -0.198030
    F   F4   0.186500  0.386470  0.907260  -0.214441
    H   H11  0.170580  0.987480  0.314050  0.144780
    H   H12  0.195410  0.836950  0.925000  0.137058
    H   H13  0.157890  0.411230  0.312640  0.135189
    H   H14  0.188540  0.524990  0.924230  0.135580
    C   C27  0.186290  0.062580  0.119880  0.519503
    C   C28  0.184590  0.985060  0.119700  -0.077611
    O   O7   0.179520  0.093470  0.222820  -0.468504
    O   O8   0.194210  0.083720  0.017050  -0.414911
    C   C29  0.169910  0.317750  0.118080  0.539047
    C   C30  0.171610  0.395270  0.118250  -0.110749
    O   O9   0.176690  0.286860  0.015130  -0.434098
    O   O10  0.161990  0.296610  0.220910  -0.463248
    C   C31  0.074000  0.259190  0.576550  0.382176
    C   C32  0.082840  0.253330  0.452840  -0.108167
    C   C33  0.224600  0.159350  0.468180  0.012338
    C   C34  0.215760  0.165210  0.591890  -0.052595
    C   C35  0.140450  0.215130  0.646070  -0.125837
    C   C36  0.131600  0.220980  0.769770  0.084598
    C   C37  0.273370  0.127000  0.785110  -0.044990
    C   C38  0.282210  0.121150  0.661410  0.326441
    N   N5   0.997810  0.313300  0.626700  -0.884701
    H   H15  0.005280  0.337180  0.711740  0.377607
    H   H16  0.939240  0.337340  0.572630  0.378652
    N   N6   0.363760  0.070660  0.611830  -0.859260
    H   H17  0.400250  0.031670  0.663510  0.376871
    H   H18  0.399370  0.075960  0.531450  0.362767
    H   H19  0.070280  0.261620  0.813880  0.104833
    H   H20  0.028730  0.289210  0.396250  0.136835
    H   H21  0.285920  0.118710  0.424060  0.115174
    H   H22  0.327480  0.091120  0.841720  0.132964
    N   N7   0.198070  0.176920  0.839300  -0.172027
    N   N8   0.158140  0.203410  0.398660  -0.129338
