# Generated by REPEAT Assigner based on pymatgen
data_DB6-cuf_5986
_audit_creation_date              2022-05-24
_audit_creation_method            REPEAT_Assigner
_cell_length_a                    15.995300
_cell_length_b                    14.971500
_cell_length_c                    13.330400
_cell_angle_alpha                 89.999900
_cell_angle_beta                  90.010700
_cell_angle_gamma                 83.548600
_cell_volume                      3172.064231
_symmetry_space_group_name_H-M    P1
_symmetry_Int_Tables_number       1
loop_
    _symmetry_equiv_pos_site_id
    _symmetry_equiv_pos_as_xyz
    1  x,y,z
loop_
    _atom_site_type_symbol
    _atom_site_label
    _atom_site_fract_x
    _atom_site_fract_y
    _atom_site_fract_z
    _atom_type_partial_charge
    Cu  Cu1  0.189430  0.118180  0.082200  0.590733
    Cu  Cu2  0.189450  0.118170  0.279520  0.672214
    C   C1   0.605660  0.116600  0.180870  0.320182
    C   C2   0.640990  0.117600  0.070960  0.323804
    C   C3   0.737710  0.119090  0.070900  0.073663
    C   C4   0.773220  0.119750  0.180850  0.277042
    C   C5   0.748500  0.033730  0.235430  0.162546
    C   C6   0.651800  0.031840  0.234730  0.109850
    C   C7   0.631040  0.201820  0.236990  0.172024
    C   C8   0.727630  0.204770  0.234930  0.111482
    C   C9   0.867920  0.121530  0.180850  -0.032407
    C   C10  0.510960  0.114810  0.180880  -0.078321
    N   N1   0.614460  0.016760  0.333460  -0.754573
    H   H1   0.637520  0.953060  0.360090  0.294702
    H   H2   0.627420  0.064560  0.386350  0.239235
    N   N2   0.787580  0.023600  0.335430  -0.818058
    H   H3   0.780310  0.960010  0.364310  0.311237
    H   H4   0.761440  0.072080  0.385910  0.268127
    N   N3   0.581800  0.283920  0.198890  -0.846219
    H   H5   0.584400  0.336170  0.250430  0.332069
    H   H6   0.604750  0.303960  0.130030  0.298451
    N   N4   0.750910  0.288800  0.190730  -0.955741
    H   H7   0.724860  0.342670  0.234690  0.337278
    H   H8   0.815510  0.291300  0.198990  0.353143
    N   N5   0.612540  0.045230  0.009240  -0.912975
    H   H9   0.625270  0.057740  0.933920  0.346467
    H   H10  0.644640  0.982790  0.027390  0.307626
    N   N6   0.782020  0.050660  0.004530  -0.873356
    H   H11  0.842520  0.067300  0.989460  0.344887
    H   H12  0.788030  0.986780  0.036490  0.268719
    H   H13  0.754010  0.180720  0.028080  0.069336
    H   H14  0.610290  0.178380  0.027820  0.049951
    H   H15  0.636980  0.967610  0.195930  0.061353
    H   H16  0.780440  0.970660  0.197520  0.040453
    H   H17  0.751170  0.210390  0.315150  0.013295
    H   H18  0.608100  0.201960  0.317960  0.069805
    C   C11  0.036360  0.124720  0.180850  0.895130
    C   C12  0.943410  0.122960  0.180840  -0.376604
    O   O1   0.067550  0.125310  0.093500  -0.601886
    O   O2   0.067560  0.125300  0.268200  -0.576236
    C   C13  0.342520  0.111630  0.180880  0.888308
    C   C14  0.435470  0.113390  0.180890  -0.352589
    O   O3   0.311370  0.110770  0.268220  -0.575757
    O   O4   0.311290  0.111310  0.093530  -0.567063
    C   C15  0.192800  0.808700  0.089900  0.351267
    C   C16  0.191150  0.715400  0.089910  -0.314907
    C   C17  0.190340  0.668750  0.180860  0.044423
    C   C18  0.191180  0.715410  0.271810  0.190556
    C   C19  0.192830  0.808700  0.271810  -0.162290
    C   C20  0.187740  0.520950  0.271820  0.178779
    C   C21  0.186090  0.427650  0.271820  -0.158366
    C   C22  0.186060  0.427650  0.089920  0.370280
    C   C23  0.187710  0.520940  0.089910  -0.334260
    C   C24  0.188550  0.567590  0.180870  0.062147
    F   F1   0.194040  0.854030  0.001880  -0.197997
    F   F2   0.225520  0.678060  0.356930  -0.154279
    F   F3   0.153400  0.558340  0.356920  -0.161225
    F   F4   0.184820  0.382340  0.001940  -0.217467
    H   H19  0.190490  0.677430  0.015840  0.159620
    H   H20  0.188370  0.558930  0.015850  0.181205
    H   H21  0.185420  0.389670  0.345880  0.157985
    H   H22  0.193500  0.846680  0.345870  0.144600
    C   C25  0.195390  0.954640  0.180860  0.616541
    C   C26  0.193630  0.855350  0.180850  -0.183926
    O   O5   0.195980  0.987960  0.268210  -0.486243
    O   O6   0.195970  0.987970  0.093510  -0.424271
    C   C27  0.183490  0.281710  0.180870  0.600584
    C   C28  0.185250  0.381000  0.180880  -0.192724
    O   O7   0.182890  0.248390  0.093520  -0.395842
    O   O8   0.182920  0.248380  0.268220  -0.496269
    C   C29  0.246200  0.057230  0.470830  -0.017532
    C   C30  0.132710  0.179090  0.470800  -0.033197
    C   C31  0.132700  0.179100  0.575820  -0.001594
    C   C32  0.189440  0.118170  0.628350  -0.041340
    C   C33  0.246190  0.057240  0.575860  -0.015629
    C   C34  0.075950  0.240030  0.628310  0.153212
    C   C35  0.075940  0.240040  0.733340  0.204270
    C   C36  0.132680  0.179110  0.785870  -0.073273
    C   C37  0.189440  0.118180  0.733380  -0.008489
    C   C38  0.246180  0.057250  0.785910  -0.052987
    C   C39  0.302940  0.996310  0.733420  0.188229
    C   C40  0.302940  0.996310  0.628390  0.172064
    C   C41  0.132680  0.179110  0.890890  0.051479
    C   C42  0.246180  0.057250  0.890940  0.032743
    O   O9   0.359160  0.934760  0.786540  -0.312951
    C   C43  0.344570  0.842600  0.776470  0.070201
    H   H23  0.334530  0.814760  0.852090  0.053440
    H   H24  0.400840  0.804000  0.742660  0.044599
    H   H25  0.288620  0.833270  0.729490  0.021186
    O   O10  0.360270  0.935930  0.575290  -0.310281
    C   C44  0.446670  0.951000  0.585450  0.061930
    H   H26  0.472800  0.961550  0.509840  0.045643
    H   H27  0.482540  0.890740  0.619210  0.051781
    H   H28  0.455710  0.010680  0.632340  0.029568
    O   O11  0.018610  0.300420  0.786440  -0.292542
    C   C45  0.932210  0.285350  0.776290  -0.016107
    H   H29  0.896380  0.345650  0.742450  0.069402
    H   H30  0.906080  0.274790  0.851890  0.070706
    H   H31  0.923170  0.225660  0.729390  0.043206
    O   O12  0.019720  0.301580  0.575200  -0.308101
    C   C46  0.034310  0.393740  0.585260  0.054572
    H   H32  0.044350  0.421590  0.509650  0.048853
    H   H33  0.090260  0.403070  0.632240  0.031052
    H   H34  0.978040  0.432350  0.619070  0.051664
    H   H35  0.292380  0.007630  0.933700  0.144955
    H   H36  0.292410  0.007630  0.428090  0.150932
    H   H37  0.086510  0.228710  0.428030  0.147267
    H   H38  0.086470  0.228720  0.933630  0.139021
    N   N7   0.189430  0.118190  0.943420  -0.065004
    N   N8   0.189460  0.118160  0.418300  -0.042194
