# generated using pymatgen
data_CuH10C19N3O5F3
_symmetry_space_group_name_H-M   'P 1'
_cell_length_a   15.94450000
_cell_length_b   14.97150000
_cell_length_c   14.58630000
_cell_angle_alpha   90.00230000
_cell_angle_beta   90.01450000
_cell_angle_gamma   83.55300000
_symmetry_Int_Tables_number   1
_chemical_formula_structural   CuH10C19N3O5F3
_chemical_formula_sum   'Cu2 H20 C38 N6 O10 F6'
_cell_volume   3459.92123027
_cell_formula_units_Z   2
loop_
 _symmetry_equiv_pos_site_id
 _symmetry_equiv_pos_as_xyz
  1  'x, y, z'
loop_
 _atom_site_type_symbol
 _atom_site_label
 _atom_site_symmetry_multiplicity
 _atom_site_fract_x
 _atom_site_fract_y
 _atom_site_fract_z
 _atom_site_occupancy
  Cu  Cu1  1  0.14632000  0.20732000  0.04476000  1
  Cu  Cu2  1  0.14635000  0.20732000  0.22508000  1
  H  H1  1  0.14059000  0.39908000  0.96653000  1
  H  H2  1  0.14083000  0.50239000  0.90428000  1
  H  H3  1  0.15203000  0.01550000  0.96649000  1
  H  H4  1  0.15171000  0.91227000  0.90430000  1
  H  H5  1  0.04574000  0.69783000  0.28505000  1
  H  H6  1  0.10428000  0.61986000  0.36005000  1
  H  H7  1  0.18848000  0.79484000  0.36007000  1
  H  H8  1  0.24700000  0.71687000  0.28507000  1
  H  H9  1  0.14738000  0.76657000  0.98411000  1
  H  H10  1  0.14526000  0.64807000  0.98412000  1
  H  H11  1  0.14232000  0.47882000  0.28573000  1
  H  H12  1  0.15042000  0.93583000  0.28572000  1
  H  H13  1  0.28476000  0.97702000  0.62309000  1
  H  H14  1  0.36195000  0.05872000  0.62312000  1
  H  H15  1  0.35623000  0.98270000  0.52864000  1
  H  H16  1  0.93073000  0.35592000  0.64673000  1
  H  H17  1  0.00792000  0.43762000  0.64675000  1
  H  H18  1  0.93646000  0.43194000  0.74120000  1
  H  H19  1  0.04307000  0.31787000  0.54783000  1
  H  H20  1  0.24962000  0.09677000  0.72201000  1
  C  C1  1  0.67420000  0.20785000  0.04809000  1
  C  C2  1  0.62740000  0.13309000  0.09148000  1
  C  C3  1  0.72880000  0.20887000  0.13491000  1
  C  C4  1  0.60946000  0.28047000  0.09151000  1
  C  C5  1  0.56388000  0.20577000  0.13492000  1
  C  C6  1  0.68323000  0.13408000  0.17831000  1
  C  C7  1  0.66528000  0.28152000  0.17832000  1
  C  C8  1  0.61851000  0.20674000  0.22178000  1
  C  C9  1  0.82380000  0.21066000  0.13491000  1
  C  C10  1  0.46888000  0.20398000  0.13493000  1
  C  C11  1  0.99278000  0.21385000  0.13491000  1
  C  C12  1  0.89953000  0.21208000  0.13490000  1
  C  C13  1  0.29990000  0.20079000  0.13493000  1
  C  C14  1  0.39315000  0.20255000  0.13494000  1
  C  C15  1  0.14970000  0.89784000  0.05179000  1
  C  C16  1  0.14805000  0.80455000  0.05180000  1
  C  C17  1  0.14724000  0.75790000  0.13492000  1
  C  C18  1  0.14809000  0.80456000  0.21804000  1
  C  C19  1  0.14974000  0.89785000  0.21803000  1
  C  C20  1  0.14464000  0.61010000  0.21804000  1
  C  C21  1  0.14298000  0.51680000  0.21805000  1
  C  C22  1  0.14295000  0.51679000  0.05180000  1
  C  C23  1  0.14460000  0.61009000  0.05180000  1
  C  C24  1  0.14545000  0.65674000  0.13492000  1
  C  C25  1  0.15230000  0.04379000  0.13491000  1
  C  C26  1  0.15054000  0.94449000  0.13491000  1
  C  C27  1  0.14037000  0.37085000  0.13493000  1
  C  C28  1  0.14214000  0.47015000  0.13493000  1
  C  C29  1  0.08941000  0.26825000  0.68289000  1
  C  C30  1  0.08942000  0.26825000  0.58691000  1
  C  C31  1  0.20328000  0.14639000  0.58695000  1
  C  C32  1  0.20327000  0.14639000  0.68293000  1
  C  C33  1  0.14633000  0.20732000  0.73090000  1
  C  C34  1  0.14635000  0.20732000  0.53894000  1
  C  C35  1  0.14636000  0.20732000  0.43487000  1
  C  C36  1  0.14632000  0.20732000  0.83497000  1
  C  C37  1  0.31819000  0.02340000  0.58060000  1
  C  C38  1  0.97449000  0.39124000  0.68925000  1
  N  N1  1  0.14139000  0.46878000  0.96708000  1
  N  N2  1  0.15124000  0.94587000  0.96710000  1
  N  N3  1  0.09693000  0.64867000  0.29486000  1
  N  N4  1  0.19580000  0.76596000  0.29487000  1
  N  N5  1  0.14631000  0.20732000  0.91792000  1
  N  N6  1  0.14637000  0.20732000  0.35191000  1
  O  O1  1  0.02405000  0.21445000  0.05508000  1
  O  O2  1  0.02408000  0.21444000  0.21474000  1
  O  O3  1  0.26863000  0.20020000  0.21476000  1
  O  O4  1  0.26860000  0.20019000  0.05510000  1
  O  O5  1  0.15291000  0.07711000  0.21474000  1
  O  O6  1  0.15288000  0.07711000  0.05509000  1
  O  O7  1  0.13976000  0.33753000  0.05510000  1
  O  O8  1  0.13980000  0.33753000  0.21475000  1
  O  O9  1  0.25908000  0.08667000  0.53437000  1
  O  O10  1  0.03361000  0.32797000  0.73547000  1
  F  F1  1  0.60682000  0.05701000  0.04696000  1
  F  F2  1  0.57056000  0.35548000  0.04703000  1
  F  F3  1  0.58880000  0.20621000  0.31077000  1
  F  F4  1  0.70389000  0.20840000  0.95908000  1
  F  F5  1  0.68580000  0.35766000  0.22282000  1
  F  F6  1  0.72220000  0.05905000  0.22275000  1
