# Generated by REPEAT Assigner based on pymatgen
data_DB6-cuf_6059
_audit_creation_date              2022-05-24
_audit_creation_method            REPEAT_Assigner
_cell_length_a                    12.811400
_cell_length_b                    16.109300
_cell_length_c                    13.330400
_cell_angle_alpha                 90.000000
_cell_angle_beta                  95.437600
_cell_angle_gamma                 83.755900
_cell_volume                      2722.388119
_symmetry_space_group_name_H-M    P1
_symmetry_Int_Tables_number       1
loop_
    _symmetry_equiv_pos_site_id
    _symmetry_equiv_pos_as_xyz
    1  x,y,z
loop_
    _atom_site_type_symbol
    _atom_site_label
    _atom_site_fract_x
    _atom_site_fract_y
    _atom_site_fract_z
    _atom_type_partial_charge
    Cu  Cu1  0.149990  0.140000  0.101340  0.663512
    Cu  Cu2  0.150010  0.139990  0.298660  0.682528
    C   C1   0.622650  0.139520  0.333940  0.262404
    C   C2   0.513170  0.137600  0.323990  -0.229476
    C   C3   0.513140  0.137600  0.142080  -0.150031
    C   C4   0.622620  0.139520  0.152030  -0.002131
    C   C5   0.677370  0.140480  0.247970  0.000852
    C   C6   0.786850  0.142400  0.257920  -0.151521
    C   C7   0.786820  0.142400  0.076010  -0.228057
    C   C8   0.677350  0.140480  0.066060  0.261961
    O   O1   0.681620  0.140550  0.429280  -0.250616
    C   C9   0.628060  0.139600  0.518400  -0.033848
    H   H1   0.570030  0.195940  0.521000  0.051964
    H   H2   0.686800  0.140630  0.584960  0.075777
    H   H3   0.588960  0.081620  0.522720  0.041153
    O   O2   0.618380  0.139460  0.970720  -0.248637
    C   C10  0.671940  0.140400  0.881600  -0.035324
    H   H4   0.613200  0.139370  0.815040  0.075321
    H   H5   0.729970  0.084070  0.879000  0.052213
    H   H6   0.711040  0.198380  0.877280  0.041933
    H   H7   0.831430  0.143180  0.336040  0.077567
    H   H8   0.468620  0.136830  0.394000  0.131298
    H   H9   0.468550  0.136830  0.063970  0.076222
    H   H10  0.831390  0.143180  0.006010  0.130415
    C   C11  0.958100  0.145410  0.182540  0.562737
    C   C12  0.841580  0.143360  0.171940  -0.033715
    O   O3   0.997190  0.146100  0.098750  -0.489787
    O   O4   0.997210  0.146090  0.273450  -0.456703
    C   C13  0.341900  0.134590  0.217460  0.560495
    C   C14  0.458420  0.136640  0.228060  -0.032389
    O   O5   0.302810  0.133910  0.301250  -0.494088
    O   O6   0.302790  0.133910  0.126550  -0.451188
    C   C15  0.150950  0.683360  0.109130  0.288874
    C   C16  0.149040  0.596640  0.108960  -0.199745
    C   C17  0.149050  0.596640  0.290870  0.287448
    C   C18  0.150970  0.683370  0.291040  -0.197817
    C   C19  0.151920  0.726730  0.200170  -0.077841
    C   C20  0.148080  0.553270  0.199830  -0.074957
    C   C21  0.146000  0.459240  0.199640  0.079944
    C   C22  0.154000  0.820770  0.200350  0.084162
    O   O7   0.148010  0.549120  0.379930  -0.265914
    C   C23  0.148940  0.590860  0.474460  0.009903
    H   H11  0.077630  0.636500  0.476230  0.038385
    H   H12  0.221960  0.622040  0.489360  0.043244
    H   H13  0.147910  0.543900  0.535130  0.068458
    O   O8   0.152000  0.730890  0.020070  -0.266186
    C   C24  0.151060  0.689140  0.925540  0.009453
    H   H14  0.078040  0.657960  0.910640  0.043094
    H   H15  0.222370  0.643500  0.923770  0.038713
    H   H16  0.152100  0.736100  0.864870  0.068484
    H   H17  0.148260  0.561340  0.034830  0.144895
    H   H18  0.151760  0.718670  0.365180  0.144319
    C   C25  0.157700  0.988020  0.200690  0.933901
    C   C26  0.155650  0.895720  0.200500  -0.398805
    O   O9   0.158400  0.018990  0.288110  -0.582294
    O   O10  0.158380  0.019000  0.113410  -0.584899
    C   C27  0.142300  0.291980  0.199310  0.933557
    C   C28  0.144340  0.384280  0.199500  -0.395389
    O   O11  0.141610  0.261010  0.111890  -0.580458
    O   O12  0.141610  0.261000  0.286590  -0.586918
    C   C29  0.221240  0.083610  0.496450  -0.023279
    C   C30  0.078790  0.196370  0.483460  0.014955
    C   C31  0.078780  0.196380  0.588480  -0.045583
    C   C32  0.150000  0.140000  0.647490  -0.028364
    C   C33  0.221240  0.083610  0.601470  0.000677
    C   C34  0.007540  0.252760  0.634500  0.198684
    C   C35  0.007530  0.252770  0.739520  0.123318
    C   C36  0.078760  0.196390  0.798530  0.005814
    C   C37  0.150000  0.140000  0.752510  -0.034004
    C   C38  0.221220  0.083620  0.811520  -0.037803
    C   C39  0.292460  0.027230  0.765500  0.190427
    C   C40  0.292470  0.027230  0.660480  0.130671
    C   C41  0.078760  0.196390  0.903550  -0.024870
    C   C42  0.221210  0.083620  0.916550  0.013697
    O   O13  0.363030  0.970270  0.825040  -0.292254
    C   C43  0.344880  0.884540  0.813320  0.021793
    H   H19  0.332340  0.858620  0.887800  0.065756
    H   H20  0.415480  0.848910  0.785930  0.058438
    H   H21  0.274760  0.875620  0.759970  0.041648
    O   O14  0.364420  0.971360  0.613920  -0.278629
    C   C44  0.472700  0.985740  0.633910  -0.058242
    H   H22  0.505440  0.995670  0.561280  0.089992
    H   H23  0.517760  0.929900  0.671780  0.082585
    H   H24  0.483950  0.041260  0.681830  0.061720
    O   O15  0.935580  0.308640  0.786090  -0.277721
    C   C45  0.827300  0.294250  0.766090  -0.052373
    H   H25  0.782280  0.350140  0.728160  0.080132
    H   H26  0.794550  0.284320  0.838720  0.088368
    H   H27  0.816050  0.238730  0.718180  0.060425
    O   O16  0.936960  0.309730  0.574970  -0.294105
    C   C46  0.955120  0.395460  0.586680  0.026640
    H   H28  0.967660  0.421380  0.512210  0.064141
    H   H29  0.025240  0.404370  0.640030  0.040459
    H   H30  0.884520  0.431090  0.614080  0.057110
    H   H31  0.279210  0.037700  0.964580  0.142843
    H   H32  0.279250  0.037700  0.458980  0.144000
    H   H33  0.020800  0.242280  0.435420  0.142774
    H   H34  0.020750  0.242300  0.941010  0.143758
    N   N1   0.149980  0.140010  0.962560  -0.053225
    N   N2   0.150020  0.139990  0.437440  -0.056821
