# Generated by REPEAT Assigner based on pymatgen
data_DB6-cuf_7450
_audit_creation_date              2022-05-24
_audit_creation_method            REPEAT_Assigner
_cell_length_a                    15.944500
_cell_length_b                    19.188900
_cell_length_c                    11.295700
_cell_angle_alpha                 94.092100
_cell_angle_beta                  85.921400
_cell_angle_gamma                 83.315400
_cell_volume                      3412.735446
_symmetry_space_group_name_H-M    P1
_symmetry_Int_Tables_number       1
loop_
    _symmetry_equiv_pos_site_id
    _symmetry_equiv_pos_as_xyz
    1  x,y,z
loop_
    _atom_site_type_symbol
    _atom_site_label
    _atom_site_fract_x
    _atom_site_fract_y
    _atom_site_fract_z
    _atom_type_partial_charge
    Cu  Cu1  0.152480  0.238370  0.980300  0.611747
    Cu  Cu2  0.139100  0.249510  0.214510  0.668700
    C   C1   0.680110  0.238990  0.984620  0.155310
    C   C2   0.630370  0.183310  0.040990  0.180204
    C   C3   0.728250  0.245150  0.097390  0.368176
    C   C4   0.611850  0.298350  0.041010  0.197276
    C   C5   0.563340  0.242730  0.097400  0.346724
    C   C6   0.679740  0.189450  0.153760  0.171350
    C   C7   0.661220  0.304540  0.153760  0.158549
    C   C8   0.611500  0.248860  0.210210  0.169726
    C   C9   0.823240  0.246540  0.097390  -0.308251
    C   C10  0.468350  0.241330  0.097420  -0.307279
    F   F1   0.613390  0.121170  0.983180  -0.219969
    F   F2   0.575960  0.354160  0.983230  -0.224587
    F   F3   0.575180  0.253940  0.325800  -0.214438
    F   F4   0.716410  0.233910  0.869020  -0.213556
    F   F5   0.678130  0.366730  0.211550  -0.216743
    F   F6   0.715710  0.133630  0.211490  -0.215753
    C   C11  0.992200  0.249040  0.097390  0.782351
    C   C12  0.898960  0.247660  0.097380  -0.119083
    O   O1   0.029410  0.244570  0.993710  -0.571580
    O   O2   0.017570  0.254430  0.201070  -0.548766
    C   C13  0.299380  0.238840  0.097420  0.755575
    C   C14  0.392620  0.240220  0.097430  -0.107884
    O   O3   0.262170  0.243310  0.201090  -0.556487
    O   O4   0.274010  0.233450  0.993730  -0.545228
    C   C15  0.144220  0.007500  0.205370  -0.247313
    C   C16  0.142920  0.934680  0.205370  0.663315
    C   C17  0.148440  0.893130  0.097410  -0.618913
    C   C18  0.155240  0.924420  0.989450  -0.193600
    C   C19  0.156530  0.997250  0.989460  0.517963
    N   N1   0.198810  0.769770  0.017060  -0.386550
    N   N2   0.197580  0.700590  0.017060  -0.372826
    C   C20  0.144560  0.673710  0.097390  0.979067
    N   N3   0.092810  0.718630  0.177740  -0.354842
    N   N4   0.094040  0.787810  0.177740  -0.333864
    C   C21  0.147050  0.814160  0.097400  0.992501
    C   C22  0.136340  0.563460  0.205340  0.660311
    C   C23  0.135040  0.490640  0.205330  -0.258760
    C   C24  0.147370  0.480380  0.989410  0.526860
    C   C25  0.148660  0.553210  0.989420  -0.191198
    C   C26  0.143150  0.594750  0.097390  -0.609848
    N   N5   0.160750  0.029590  0.878460  -0.959737
    H   H1   0.161650  0.083860  0.877290  0.386581
    H   H2   0.165110  0.999280  0.797160  0.359866
    N   N6   0.140960  0.904740  0.317190  -1.102995
    H   H3   0.165980  0.852770  0.324760  0.418949
    H   H4   0.126820  0.936860  0.396430  0.442015
    N   N7   0.135500  0.602990  0.317130  -1.095639
    H   H5   0.162020  0.650090  0.324700  0.422692
    H   H6   0.120450  0.580590  0.396380  0.439524
    N   N8   0.150280  0.438130  0.878350  -0.961917
    H   H7   0.149260  0.383790  0.877200  0.390749
    H   H8   0.155580  0.460680  0.797140  0.361760
    H   H9   0.139720  0.041320  0.293290  0.124329
    H   H10  0.159750  0.890590  0.901550  0.146444
    H   H11  0.129490  0.465170  0.293240  0.128276
    H   H12  0.154210  0.578680  0.901520  0.140651
    C   C27  0.152400  0.116290  0.097420  0.625017
    C   C28  0.151020  0.038780  0.097430  -0.238620
    O   O5   0.146940  0.147230  0.201090  -0.477284
    O   O6   0.158780  0.137370  0.993730  -0.411124
    C   C29  0.139190  0.371590  0.097390  0.634185
    C   C30  0.140560  0.449100  0.097380  -0.238164
    O   O7   0.144650  0.340650  0.993710  -0.434942
    O   O8   0.132800  0.350510  0.201070  -0.472776
    C   C31  0.061830  0.313800  0.566200  0.308792
    C   C32  0.068970  0.307870  0.441550  -0.193278
    C   C33  0.183290  0.212750  0.441590  -0.044657
    C   C34  0.176160  0.218680  0.566250  -0.034598
    C   C35  0.115430  0.269200  0.628550  -0.050797
    C   C36  0.108290  0.275130  0.753210  0.005120
    C   C37  0.222620  0.180010  0.753250  -0.115282
    C   C38  0.229750  0.174080  0.628600  0.286800
    F   F7   0.002450  0.363190  0.624670  -0.184303
    F   F8   0.289140  0.124690  0.570130  -0.184237
    H   H13  0.058840  0.316270  0.803940  0.148344
    H   H14  0.025330  0.344190  0.390790  0.189632
    H   H15  0.232740  0.171620  0.390850  0.163125
    H   H16  0.266260  0.143700  0.804030  0.156180
    N   N9   0.161890  0.230530  0.815570  -0.068122
    N   N10  0.129690  0.257350  0.379230  0.021053
