# Generated by REPEAT Assigner based on pymatgen
data_DB6-cuf_6650
_audit_creation_date              2022-05-24
_audit_creation_method            REPEAT_Assigner
_cell_length_a                    14.971500
_cell_length_b                    19.188900
_cell_length_c                    17.666300
_cell_angle_alpha                 89.998000
_cell_angle_beta                  90.001300
_cell_angle_gamma                 83.377800
_cell_volume                      5041.429998
_symmetry_space_group_name_H-M    P1
_symmetry_Int_Tables_number       1
loop_
    _symmetry_equiv_pos_site_id
    _symmetry_equiv_pos_as_xyz
    1  x,y,z
loop_
    _atom_site_type_symbol
    _atom_site_label
    _atom_site_fract_x
    _atom_site_fract_y
    _atom_site_fract_z
    _atom_type_partial_charge
    Cu  Cu1  0.189680  0.177840  0.039830  0.502932
    Cu  Cu2  0.189690  0.177840  0.188710  0.735720
    C   C1   0.880200  0.180640  0.182900  0.257701
    C   C2   0.786910  0.179270  0.182900  -0.209837
    C   C3   0.740260  0.178590  0.114270  -0.125776
    C   C4   0.786910  0.179280  0.045640  0.260700
    C   C5   0.880200  0.180650  0.045650  -0.152176
    C   C6   0.592460  0.176410  0.045640  -0.049181
    C   C7   0.499170  0.175030  0.045640  0.006231
    C   C8   0.499170  0.175030  0.182900  0.309263
    C   C9   0.592460  0.176410  0.182900  -0.314008
    C   C10  0.639100  0.177090  0.114270  0.191121
    O   O1   0.447750  0.174960  0.250130  -0.149379
    C   C11  0.490970  0.177750  0.321960  -0.152149
    H   H1   0.439470  0.177730  0.367080  0.113863
    H   H2   0.523160  0.226870  0.327390  0.066549
    H   H3   0.540780  0.130790  0.330280  0.071044
    O   O2   0.932070  0.180890  0.249890  -0.117802
    C   C12  0.889120  0.178210  0.321830  -0.161820
    H   H4   0.839180  0.225120  0.330100  0.068250
    H   H5   0.940740  0.178340  0.366830  0.105238
    H   H6   0.856930  0.129090  0.327440  0.070584
    O   O3   0.756030  0.142320  0.983400  -0.211896
    C   C13  0.785630  0.158580  0.908960  -0.053417
    H   H7   0.735800  0.143750  0.867190  0.072698
    H   H8   0.850980  0.127360  0.896000  0.047517
    H   H9   0.790660  0.215660  0.902680  0.060363
    O   O4   0.617770  0.214170  0.982490  -0.193402
    C   C14  0.611230  0.288850  0.991890  0.037424
    H   H10  0.585180  0.306770  0.048490  0.039957
    H   H11  0.678700  0.306360  0.983960  0.025140
    H   H12  0.565400  0.314150  0.948020  0.025867
    H   H13  0.748940  0.178720  0.238790  0.126626
    H   H14  0.630440  0.176960  0.238780  0.145004
    H   H15  0.461190  0.174470  0.989750  0.095781
    H   H16  0.918170  0.181200  0.989760  0.125523
    C   C15  0.026130  0.182800  0.114280  0.733231
    C   C16  0.926840  0.181330  0.114280  -0.241386
    O   O5   0.059450  0.183290  0.048360  -0.511915
    O   O6   0.059460  0.183290  0.180190  -0.566192
    C   C17  0.353230  0.172880  0.114260  0.620630
    C   C18  0.452520  0.174340  0.114260  -0.255630
    O   O7   0.319920  0.172380  0.180180  -0.527283
    O   O8   0.319910  0.172390  0.048360  -0.492847
    C   C19  0.194580  0.936270  0.182910  -0.235667
    C   C20  0.193200  0.863440  0.182910  0.656923
    C   C21  0.192510  0.827030  0.114280  -0.632045
    C   C22  0.193180  0.863450  0.045650  -0.188837
    C   C23  0.194550  0.936280  0.045650  0.521638
    N   N1   0.241250  0.707530  0.063190  -0.388191
    N   N2   0.239940  0.638350  0.063190  -0.389283
    C   C24  0.188370  0.607610  0.114260  0.993102
    N   N3   0.138150  0.648660  0.165350  -0.354730
    N   N4   0.139460  0.717850  0.165350  -0.349070
    C   C25  0.191020  0.748060  0.114270  1.004658
    C   C26  0.186190  0.492230  0.182890  0.656121
    C   C27  0.184800  0.419400  0.182880  -0.234871
    C   C28  0.184790  0.419410  0.045620  0.512932
    C   C29  0.186170  0.492240  0.045630  -0.189377
    C   C30  0.186870  0.528640  0.114260  -0.624198
    N   N5   0.192290  0.973900  0.975090  -0.954688
    H   H17  0.193180  0.028230  0.974350  0.372658
    H   H18  0.191990  0.947460  0.923410  0.355666
    N   N6   0.197910  0.828190  0.253990  -1.100346
    H   H19  0.225020  0.775880  0.258800  0.417084
    H   H20  0.187670  0.856540  0.304370  0.429957
    N   N7   0.192090  0.526440  0.253950  -1.097521
    H   H21  0.220790  0.573200  0.258760  0.417588
    H   H22  0.180890  0.500260  0.304340  0.427851
    N   N8   0.181140  0.382440  0.975020  -0.946279
    H   H23  0.179980  0.328150  0.974290  0.389945
    H   H24  0.181830  0.408840  0.923390  0.353189
    H   H25  0.195140  0.965910  0.238790  0.116970
    H   H26  0.192620  0.833800  0.989770  0.142902
    H   H27  0.184240  0.389750  0.238770  0.119294
    H   H28  0.186730  0.521890  0.989750  0.140804
    C   C31  0.196720  0.050190  0.114280  0.631784
    C   C32  0.195260  0.972680  0.114290  -0.266556
    O   O9   0.197210  0.076200  0.180190  -0.464478
    O   O10  0.197200  0.076200  0.048370  -0.391689
    C   C33  0.182650  0.305480  0.114260  0.708174
    C   C34  0.184110  0.382990  0.114260  -0.273590
    O   O11  0.182160  0.279470  0.048350  -0.436535
    O   O12  0.182160  0.279470  0.180170  -0.489534
    C   C35  0.250550  0.130330  0.895490  0.058778
    C   C36  0.250550  0.130330  0.816240  0.294224
    C   C37  0.189680  0.177840  0.776610  -0.451805
    C   C38  0.128800  0.225340  0.816240  -0.231119
    C   C39  0.128790  0.225340  0.895490  0.513764
    N   N9   0.178240  0.239610  0.652190  -0.362424
    N   N10  0.178250  0.239610  0.576910  -0.386780
    C   C40  0.189690  0.177850  0.537850  0.990890
    N   N11  0.201140  0.116080  0.576920  -0.368248
    N   N12  0.201130  0.116080  0.652200  -0.356946
    C   C41  0.189680  0.177840  0.690690  0.979787
    C   C42  0.250570  0.130340  0.412310  0.313612
    C   C43  0.250560  0.130340  0.333060  0.018632
    C   C44  0.128810  0.225350  0.333050  0.514716
    C   C45  0.128810  0.225350  0.412300  -0.215209
    C   C46  0.189700  0.177840  0.451920  -0.469343
    F   F1   0.310820  0.084500  0.778870  -0.181220
    F   F2   0.069650  0.271290  0.933870  -0.167362
    F   F3   0.310820  0.084520  0.449710  -0.194356
    F   F4   0.069700  0.271310  0.294690  -0.159812
    H   H29  0.300120  0.091650  0.927750  0.121289
    H   H30  0.079240  0.264020  0.783970  0.139295
    H   H31  0.300130  0.091650  0.300800  0.139082
    H   H32  0.079240  0.264030  0.444560  0.130799
    N   N13  0.189680  0.177830  0.935110  -0.228701
    N   N14  0.189690  0.177840  0.293430  -0.232160
