# Generated by REPEAT Assigner based on pymatgen
data_DB6-cuf_6684
_audit_creation_date              2022-05-24
_audit_creation_method            REPEAT_Assigner
_cell_length_a                    14.971500
_cell_length_b                    9.065200
_cell_length_c                    17.666300
_cell_angle_alpha                 90.001500
_cell_angle_beta                  90.001300
_cell_angle_gamma                 84.312000
_cell_volume                      2385.858648
_symmetry_space_group_name_H-M    P1
_symmetry_Int_Tables_number       1
loop_
    _symmetry_equiv_pos_site_id
    _symmetry_equiv_pos_as_xyz
    1  x,y,z
loop_
    _atom_site_type_symbol
    _atom_site_label
    _atom_site_fract_x
    _atom_site_fract_y
    _atom_site_fract_z
    _atom_type_partial_charge
    Cu  Cu1  0.220560  0.015640  0.144460  0.701986
    Cu  Cu2  0.220570  0.015650  0.293350  0.849635
    C   C1   0.911140  0.021570  0.287540  0.243011
    C   C2   0.817820  0.018680  0.287540  -0.232431
    C   C3   0.771160  0.017220  0.218910  -0.083072
    C   C4   0.817820  0.018680  0.150280  0.223805
    C   C5   0.911140  0.021590  0.150280  -0.153562
    C   C6   0.623320  0.012620  0.150280  -0.056507
    C   C7   0.529990  0.009710  0.150270  0.012482
    C   C8   0.529990  0.009710  0.287530  0.309476
    C   C9   0.623310  0.012620  0.287540  -0.297161
    C   C10  0.669970  0.014070  0.218910  0.158958
    O   O1   0.478580  0.009560  0.354770  -0.098070
    C   C11  0.521850  0.015470  0.426600  -0.312302
    H   H1   0.470350  0.015420  0.471720  0.200708
    H   H2   0.555070  0.119250  0.432030  0.096403
    H   H3   0.570680  0.916230  0.434920  0.098078
    O   O2   0.963020  0.022090  0.354520  -0.103050
    C   C12  0.920010  0.016430  0.426470  -0.126146
    H   H4   0.871060  0.115540  0.434740  0.045169
    H   H5   0.971630  0.016700  0.471470  0.088322
    H   H6   0.886790  0.912640  0.432080  0.065019
    O   O3   0.786170  0.940590  0.088040  -0.203240
    C   C13  0.816110  0.974960  0.013600  -0.036513
    H   H7   0.765970  0.943620  0.971830  0.054719
    H   H8   0.880810  0.908990  0.000630  0.046560
    H   H9   0.822340  0.095570  0.007320  0.064510
    O   O4   0.649420  0.092400  0.087130  -0.195418
    C   C14  0.644440  0.250210  0.096530  -0.004707
    H   H10  0.618770  0.288070  0.153140  0.057760
    H   H11  0.712290  0.287210  0.088600  0.024598
    H   H12  0.599140  0.303670  0.052660  0.049520
    H   H13  0.779840  0.017510  0.343420  0.129341
    H   H14  0.661310  0.013790  0.343420  0.133637
    H   H15  0.492010  0.008530  0.094390  0.101270
    H   H16  0.949130  0.022750  0.094400  0.135686
    C   C15  0.057120  0.026120  0.218910  0.774870
    C   C16  0.957800  0.023020  0.218920  -0.221338
    O   O5   0.090440  0.027150  0.153000  -0.581164
    O   O6   0.090450  0.027160  0.284820  -0.643571
    C   C17  0.384010  0.005160  0.218900  0.621477
    C   C18  0.483330  0.008260  0.218900  -0.259486
    O   O7   0.350690  0.004120  0.284810  -0.547194
    O   O8   0.350680  0.004130  0.152990  -0.491183
    C   C19  0.224920  0.745920  0.218910  0.819847
    C   C20  0.221830  0.582140  0.218910  -0.224647
    O   O9   0.225960  0.800890  0.284820  -0.556062
    O   O10  0.225950  0.800880  0.153000  -0.557377
    C   C21  0.216220  0.285360  0.218910  0.907460
    C   C22  0.219320  0.449140  0.218910  -0.193825
    O   O11  0.215180  0.230400  0.284820  -0.639941
    O   O12  0.215180  0.230400  0.153000  -0.615908
    C   C23  0.280440  0.915270  0.000130  -0.050112
    C   C24  0.280440  0.915260  0.920880  0.334533
    C   C25  0.220570  0.015640  0.881250  -0.434585
    C   C26  0.160680  0.116010  0.920880  -0.195075
    C   C27  0.160670  0.116010  0.000130  0.366078
    N   N1   0.210420  0.146170  0.756830  -0.358981
    N   N2   0.210430  0.146170  0.681550  -0.377452
    C   C28  0.220570  0.015660  0.642490  0.964106
    N   N3   0.230720  0.885140  0.681550  -0.361009
    N   N4   0.230720  0.885140  0.756840  -0.348294
    C   C29  0.220560  0.015660  0.795320  0.937398
    C   C30  0.280450  0.915280  0.516940  0.352327
    C   C31  0.280450  0.915270  0.437690  -0.056005
    C   C32  0.160690  0.116040  0.437690  0.381763
    C   C33  0.160690  0.116040  0.516940  -0.156001
    C   C34  0.220580  0.015660  0.556560  -0.470341
    O   O13  0.101990  0.214380  0.043540  -0.138342
    C   C35  0.039960  0.318840  0.005430  -0.008003
    H   H17  0.992880  0.260730  0.970280  0.029900
    H   H18  0.076320  0.395220  0.970340  0.049961
    H   H19  0.000040  0.386060  0.048280  0.080313
    O   O14  0.342470  0.815310  0.883090  -0.371181
    C   C36  0.418830  0.879510  0.853780  0.113794
    H   H20  0.480530  0.822550  0.879490  0.041108
    H   H21  0.417400  0.000500  0.865560  0.004657
    H   H22  0.422100  0.862480  0.791630  0.042472
    O   O15  0.102040  0.214410  0.394280  -0.098499
    C   C37  0.040000  0.318880  0.432420  -0.060986
    H   H23  0.992910  0.260770  0.467570  0.060392
    H   H24  0.000050  0.386010  0.389570  0.090732
    H   H25  0.076350  0.395260  0.467520  0.044964
    O   O16  0.342380  0.815210  0.554730  -0.378387
    C   C38  0.418780  0.879340  0.584170  0.134898
    H   H26  0.480480  0.822530  0.558540  0.022753
    H   H27  0.421950  0.862180  0.646330  0.054838
    H   H28  0.417360  0.000330  0.572460  -0.035415
    H   H29  0.329190  0.833520  0.032380  0.147795
    H   H30  0.111930  0.197760  0.888610  0.107321
    H   H31  0.329200  0.833530  0.405440  0.148234
    H   H32  0.111940  0.197770  0.549200  0.089574
    N   N5   0.220560  0.015630  0.039750  -0.114054
    N   N6   0.220570  0.015650  0.398070  -0.167621
