# Generated by REPEAT Assigner based on pymatgen
data_DB6-cuf_7243
_audit_creation_date              2022-05-24
_audit_creation_method            REPEAT_Assigner
_cell_length_a                    14.971500
_cell_length_b                    12.811400
_cell_length_c                    14.184900
_cell_angle_alpha                 71.504100
_cell_angle_beta                  103.144000
_cell_angle_gamma                 83.829900
_cell_volume                      2464.629313
_symmetry_space_group_name_H-M    P1
_symmetry_Int_Tables_number       1
loop_
    _symmetry_equiv_pos_site_id
    _symmetry_equiv_pos_as_xyz
    1  x,y,z
loop_
    _atom_site_type_symbol
    _atom_site_label
    _atom_site_fract_x
    _atom_site_fract_y
    _atom_site_fract_z
    _atom_type_partial_charge
    Cu  Cu1  0.141770  0.169510  0.078160  0.664778
    Cu  Cu2  0.190750  0.111630  0.280750  0.648762
    C   C1   0.879280  0.118220  0.272450  0.392126
    C   C2   0.786020  0.116110  0.272640  -0.332903
    C   C3   0.716820  0.141730  0.179350  0.058087
    C   C4   0.740880  0.169470  0.085870  0.202717
    C   C5   0.834140  0.171590  0.085680  -0.165196
    C   C6   0.546500  0.165050  0.086270  0.192663
    C   C7   0.453240  0.162920  0.086460  -0.149692
    C   C8   0.498390  0.109560  0.273220  0.346931
    C   C9   0.591640  0.111680  0.273040  -0.304144
    C   C10  0.615700  0.139430  0.179560  0.041003
    F   F1   0.946430  0.094010  0.362680  -0.224756
    F   F2   0.681600  0.238630  0.994460  -0.155656
    F   F3   0.563580  0.145810  0.002910  -0.156789
    F   F4   0.474940  0.082160  0.363700  -0.206180
    H   H1   0.766450  0.093530  0.348760  0.177433
    H   H2   0.647990  0.090810  0.349000  0.170723
    H   H3   0.396900  0.183790  0.010490  0.141591
    H   H4   0.853720  0.194170  0.009560  0.146709
    C   C11  0.002590  0.148220  0.178770  0.674411
    C   C12  0.903340  0.145960  0.178980  -0.235703
    O   O1   0.014210  0.174600  0.089010  -0.485281
    O   O2   0.057580  0.123360  0.268380  -0.454427
    C   C13  0.329930  0.132920  0.180140  0.629540
    C   C14  0.429180  0.135180  0.179930  -0.203635
    O   O3   0.318310  0.106540  0.269900  -0.416204
    O   O4   0.274940  0.157790  0.090530  -0.488249
    C   C15  0.132510  0.652500  0.041930  0.316937
    C   C16  0.132910  0.540090  0.052160  -0.296687
    C   C17  0.178050  0.486730  0.238920  -0.190998
    C   C18  0.177650  0.599130  0.228700  -0.003352
    C   C19  0.154880  0.682010  0.130200  0.025680
    C   C20  0.154470  0.794410  0.119980  -0.210768
    C   C21  0.199620  0.741050  0.306750  -0.275886
    C   C22  0.200020  0.628650  0.316970  0.322022
    F   F5   0.110180  0.731390  0.945610  -0.204275
    F   F6   0.222350  0.549760  0.413300  -0.204979
    H   H5   0.135920  0.861900  0.039780  0.144100
    H   H6   0.114700  0.516070  0.980280  0.158154
    H   H7   0.196610  0.419240  0.319120  0.142113
    H   H8   0.217820  0.765090  0.378630  0.148018
    C   C23  0.176410  0.943560  0.197380  0.633062
    C   C24  0.176840  0.823940  0.208260  -0.002893
    O   O5   0.197950  0.958090  0.283410  -0.501253
    O   O6   0.154580  0.009330  0.104040  -0.541750
    C   C25  0.156110  0.337580  0.161530  0.596315
    C   C26  0.155680  0.457210  0.150650  0.011775
    O   O7   0.134580  0.323060  0.075500  -0.488380
    O   O8   0.177930  0.271820  0.254870  -0.518327
    C   C27  0.326310  0.951400  0.591670  -0.285430
    C   C28  0.300240  0.982220  0.483830  0.091367
    C   C29  0.176180  0.128860  0.470470  0.474524
    C   C30  0.202240  0.098050  0.578310  -0.226533
    C   C31  0.277300  0.009330  0.638900  0.141638
    C   C32  0.153240  0.155980  0.625540  0.131906
    C   C33  0.179290  0.125170  0.733370  0.068246
    C   C34  0.254350  0.036450  0.793970  -0.279960
    C   C35  0.303360  0.978520  0.746730  0.263313
    C   C36  0.078170  0.244700  0.564950  -0.308494
    C   C37  0.029160  0.302620  0.612180  0.276112
    C   C38  0.055220  0.271830  0.720010  0.099622
    C   C39  0.130280  0.183100  0.780610  -0.149646
    C   C40  0.006210  0.329750  0.767250  -0.245696
    C   C41  0.032260  0.298950  0.875080  0.025097
    C   C42  0.156330  0.152290  0.888440  0.383652
    F   F7   0.373570  0.889610  0.807040  -0.177967
    F   F8   0.954090  0.385450  0.552420  -0.182467
    F   F9   0.127010  0.229170  0.400500  -0.097133
    F   F10  0.240520  0.094950  0.954500  -0.072798
    H   H9   0.275560  0.011360  0.881770  0.162090
    H   H10  0.387430  0.879150  0.641000  0.157886
    H   H11  0.340160  0.935040  0.445380  0.129987
    H   H12  0.056960  0.269770  0.477150  0.177586
    H   H13  0.945090  0.402000  0.717910  0.152441
    H   H14  0.992360  0.346110  0.913540  0.137399
    N   N1   0.107330  0.210220  0.935670  -0.181510
    N   N2   0.225190  0.070930  0.423240  -0.232518
