# generated using pymatgen
data_CuH18C22N3O9F
_symmetry_space_group_name_H-M   'P 1'
_cell_length_a   15.94450000
_cell_length_b   10.65460000
_cell_length_c   17.66630000
_cell_angle_alpha   90.00310000
_cell_angle_beta   90.00780000
_cell_angle_gamma   83.98810000
_symmetry_Int_Tables_number   1
_chemical_formula_structural   CuH18C22N3O9F
_chemical_formula_sum   'Cu2 H36 C44 N6 O18 F2'
_cell_volume   2984.68505196
_cell_formula_units_Z   2
loop_
 _symmetry_equiv_pos_site_id
 _symmetry_equiv_pos_as_xyz
  1  'x, y, z'
loop_
 _atom_site_type_symbol
 _atom_site_label
 _atom_site_symmetry_multiplicity
 _atom_site_fract_x
 _atom_site_fract_y
 _atom_site_fract_z
 _atom_site_occupancy
  Cu  Cu1  1  0.21783000  0.05365000  0.11535000  1
  Cu  Cu2  1  0.21784000  0.05366000  0.26424000  1
  H  H1  1  0.69998000  0.28285000  0.01992000  1
  H  H2  1  0.74873000  0.34193000  0.10483000  1
  H  H3  1  0.65571000  0.42465000  0.06498000  1
  H  H4  1  0.70838000  0.41292000  0.32457000  1
  H  H5  1  0.63431000  0.31913000  0.28188000  1
  H  H6  1  0.69165000  0.42335000  0.22472000  1
  H  H7  1  0.68894000  0.05750000  0.44434000  1
  H  H8  1  0.66772000  0.20427000  0.39583000  1
  H  H9  1  0.76509000  0.10350000  0.37851000  1
  H  H10  1  0.86286000  0.76528000  0.34529000  1
  H  H11  1  0.76574000  0.85604000  0.36821000  1
  H  H12  1  0.85713000  0.93279000  0.33618000  1
  H  H13  1  0.64599000  0.66626000  0.13482000  1
  H  H14  1  0.56496000  0.79432000  0.14438000  1
  H  H15  1  0.64613000  0.76519000  0.21661000  1
  H  H16  1  0.84170000  0.10675000  0.95925000  1
  H  H17  1  0.89344000  0.02169000  0.03583000  1
  H  H18  1  0.84628000  0.18517000  0.04800000  1
  H  H19  1  0.21573000  0.43483000  0.06528000  1
  H  H20  1  0.21995000  0.67249000  0.31431000  1
  H  H21  1  0.00338000  0.26263000  0.94114000  1
  H  H22  1  0.08139000  0.37699000  0.94122000  1
  H  H23  1  0.00978000  0.36930000  0.01915000  1
  H  H24  1  0.46246000  0.88889000  0.85039000  1
  H  H25  1  0.40272000  0.04046000  0.83646000  1
  H  H26  1  0.40750000  0.92297000  0.76253000  1
  H  H27  1  0.00341000  0.26267000  0.43843000  1
  H  H28  1  0.00979000  0.36926000  0.36044000  1
  H  H29  1  0.08142000  0.37702000  0.43840000  1
  H  H30  1  0.46242000  0.88887000  0.52944000  1
  H  H31  1  0.40735000  0.92271000  0.61723000  1
  H  H32  1  0.40268000  0.04031000  0.54336000  1
  H  H33  1  0.32032000  0.89846000  0.00327000  1
  H  H34  1  0.11535000  0.20884000  0.85949000  1
  H  H35  1  0.32033000  0.89847000  0.37633000  1
  H  H36  1  0.11535000  0.20885000  0.52008000  1
  C  C1  1  0.74572000  0.05439000  0.11810000  1
  C  C2  1  0.69837000  0.94943000  0.15393000  1
  C  C3  1  0.80031000  0.05583000  0.18979000  1
  C  C4  1  0.68148000  0.15635000  0.15395000  1
  C  C5  1  0.63537000  0.05148000  0.18979000  1
  C  C6  1  0.75420000  0.95082000  0.22562000  1
  C  C7  1  0.73731000  0.15783000  0.22562000  1
  C  C8  1  0.68999000  0.05285000  0.26151000  1
  C  C9  1  0.89533000  0.05834000  0.18978000  1
  C  C10  1  0.54036000  0.04896000  0.18980000  1
  C  C11  1  0.68830000  0.32916000  0.07573000  1
  C  C12  1  0.69603000  0.35746000  0.27340000  1
  C  C13  1  0.69630000  0.10555000  0.38938000  1
  C  C14  1  0.82052000  0.85040000  0.32921000  1
  C  C15  1  0.63277000  0.76511000  0.15474000  1
  C  C16  1  0.83975000  0.09232000  0.02134000  1
  C  C17  1  0.06432000  0.06282000  0.18978000  1
  C  C18  1  0.97106000  0.06034000  0.18978000  1
  C  C19  1  0.37135000  0.04448000  0.18980000  1
  C  C20  1  0.46462000  0.04696000  0.18981000  1
  C  C21  1  0.21899000  0.61914000  0.12116000  1
  C  C22  1  0.21667000  0.48815000  0.12117000  1
  C  C23  1  0.21669000  0.48817000  0.25843000  1
  C  C24  1  0.21901000  0.61916000  0.25842000  1
  C  C25  1  0.22263000  0.82405000  0.18979000  1
  C  C26  1  0.22016000  0.68464000  0.18979000  1
  C  C27  1  0.21305000  0.28325000  0.18979000  1
  C  C28  1  0.21552000  0.42266000  0.18980000  1
  C  C29  1  0.27432000  0.96812000  0.97101000  1
  C  C30  1  0.27432000  0.96811000  0.89177000  1
  C  C31  1  0.21784000  0.05365000  0.85214000  1
  C  C32  1  0.16133000  0.13919000  0.89176000  1
  C  C33  1  0.16133000  0.13918000  0.97101000  1
  C  C34  1  0.21784000  0.05367000  0.61337000  1
  C  C35  1  0.21783000  0.05367000  0.76621000  1
  C  C36  1  0.27434000  0.96813000  0.48783000  1
  C  C37  1  0.27433000  0.96812000  0.40858000  1
  C  C38  1  0.16135000  0.13921000  0.40857000  1
  C  C39  1  0.16135000  0.13920000  0.48782000  1
  C  C40  1  0.21785000  0.05367000  0.52744000  1
  C  C41  1  0.04744000  0.31202000  0.97630000  1
  C  C42  1  0.40438000  0.93747000  0.82468000  1
  C  C43  1  0.04748000  0.31205000  0.40329000  1
  C  C44  1  0.40433000  0.93732000  0.55507000  1
  N  N1  1  0.20797000  0.16478000  0.72772000  1
  N  N2  1  0.20798000  0.16478000  0.65244000  1
  N  N3  1  0.22772000  0.94255000  0.65243000  1
  N  N4  1  0.22771000  0.94255000  0.72772000  1
  N  N5  1  0.21783000  0.05364000  0.01063000  1
  N  N6  1  0.21784000  0.05366000  0.36895000  1
  O  O1  1  0.63488000  0.26135000  0.11971000  1
  O  O2  1  0.76436000  0.26357000  0.26315000  1
  O  O3  1  0.65255000  0.04376000  0.33362000  1
  O  O4  1  0.79423000  0.83589000  0.25415000  1
  O  O5  1  0.68236000  0.84142000  0.11218000  1
  O  O6  1  0.76293000  0.04593000  0.03951000  1
  O  O7  1  0.09561000  0.06365000  0.12387000  1
  O  O8  1  0.09562000  0.06366000  0.25569000  1
  O  O9  1  0.34006000  0.04366000  0.25571000  1
  O  O10  1  0.34005000  0.04364000  0.12389000  1
  O  O11  1  0.22347000  0.87084000  0.25570000  1
  O  O12  1  0.22346000  0.87083000  0.12388000  1
  O  O13  1  0.21221000  0.23647000  0.12388000  1
  O  O14  1  0.21222000  0.23647000  0.25570000  1
  O  O15  1  0.10597000  0.22301000  0.01441000  1
  O  O16  1  0.33284000  0.88293000  0.85399000  1
  O  O17  1  0.10602000  0.22304000  0.36515000  1
  O  O18  1  0.33275000  0.88286000  0.52562000  1
  F  F1  1  0.21998000  0.68281000  0.05485000  1
  F  F2  1  0.21579000  0.42442000  0.32474000  1
