# Generated by REPEAT Assigner based on pymatgen
data_DB7-ddmof_4868
_audit_creation_date              2022-05-24
_audit_creation_method            REPEAT_Assigner
_cell_length_a                    24.770990
_cell_length_b                    25.245340
_cell_length_c                    21.993360
_cell_angle_alpha                 61.319430
_cell_angle_beta                  118.284930
_cell_angle_gamma                 133.147410
_cell_volume                      8572.492497
_symmetry_space_group_name_H-M    P1
_symmetry_Int_Tables_number       1
loop_
    _symmetry_equiv_pos_site_id
    _symmetry_equiv_pos_as_xyz
    1  x,y,z
loop_
    _atom_site_type_symbol
    _atom_site_label
    _atom_site_fract_x
    _atom_site_fract_y
    _atom_site_fract_z
    _atom_type_partial_charge
    C   C1    0.719680  0.296710  0.035280  0.097715
    C   C2    0.645340  0.247310  0.046030  -0.263977
    C   C3    0.614920  0.274420  0.053070  0.153981
    C   C4    0.659710  0.349740  0.052760  -0.227893
    C   C5    0.734090  0.398800  0.043840  0.091431
    C   C6    0.761940  0.373400  0.030010  -0.232894
    H   H1    0.612170  0.188040  0.050760  0.132499
    H   H2    0.637330  0.369640  0.061680  0.124306
    H   H3    0.818160  0.412430  0.019390  0.113679
    C   C7    0.718700  0.303770  0.523060  0.115023
    C   C8    0.767530  0.374040  0.539000  -0.259333
    C   C9    0.737840  0.400790  0.547730  0.136310
    C   C10   0.660620  0.355110  0.546450  -0.223363
    C   C11   0.612420  0.283430  0.535280  0.121707
    C   C12   0.640270  0.259830  0.518720  -0.261558
    H   H4    0.828310  0.407310  0.545560  0.131305
    H   H5    0.638380  0.374650  0.556150  0.122891
    H   H6    0.601370  0.206900  0.504170  0.122997
    C   C13   0.282520  0.671360  0.314280  0.146552
    C   C14   0.231380  0.593860  0.317100  -0.319491
    C   C15   0.249200  0.561120  0.299630  0.182899
    C   C16   0.319750  0.604340  0.284200  -0.241732
    C   C17   0.371430  0.680580  0.282510  0.124292
    C   C18   0.351820  0.714710  0.294900  -0.258971
    H   H7    0.178550  0.559360  0.332900  0.137849
    H   H8    0.334280  0.578480  0.272970  0.123841
    H   H9    0.390470  0.774580  0.289880  0.137724
    C   C19   0.290270  0.657060  0.836000  0.127676
    C   C20   0.254780  0.580460  0.847920  -0.263113
    C   C21   0.291890  0.557850  0.845360  0.110997
    C   C22   0.366370  0.610870  0.836320  -0.228295
    C   C23   0.402170  0.687180  0.823470  0.157142
    C   C24   0.364330  0.710460  0.823760  -0.276896
    H   H10   0.197440  0.539000  0.856260  0.124621
    H   H11   0.394810  0.592960  0.834680  0.117357
    H   H12   0.391130  0.769640  0.812010  0.136305
    Co  Co1   0.100540  0.990550  0.204910  1.236033
    Co  Co2   0.884940  0.954960  0.157300  1.252908
    Co  Co3   0.029990  0.029940  0.259520  1.243679
    Co  Co4   0.957270  0.919060  0.101420  1.196524
    C   C25   0.147730  0.892110  0.260910  0.979751
    Co  Co5   0.094060  0.924120  0.104660  1.220501
    Co  Co6   0.894160  0.021770  0.261260  1.268878
    O   O1    0.970760  0.133290  0.219690  -0.695848
    C   C26   0.044910  0.168620  0.243940  0.898674
    O   O2    0.121510  0.034950  0.276540  -0.581547
    O   O3    0.862200  0.905140  0.090050  -0.566030
    C   C27   0.824120  0.042720  0.106030  0.883458
    C   C28   0.218620  0.079970  0.115620  0.744609
    C   C29   0.942630  0.781450  0.125140  0.813148
    O   O4    0.079760  0.140560  0.254320  -0.652365
    O   O5    0.165280  0.038340  0.069500  -0.607408
    O   O6    0.202040  0.076190  0.167920  -0.601115
    O   O7    0.809890  0.011670  0.169250  -0.747177
    O   O8    0.850930  0.023920  0.086610  -0.638936
    O   O9    0.004000  0.965210  0.358880  -0.663740
    O   O10   0.015850  0.812230  0.143790  -0.666888
    O   O11   0.916800  0.807200  0.136200  -0.667990
    O   O12   0.049210  0.952430  0.134670  -0.636522
    C   C30   0.777130  0.863530  0.254840  0.998731
    O   O13   0.823780  0.907400  0.299080  -0.705959
    O   O14   0.803560  0.860510  0.217180  -0.729049
    O   O15   0.171450  0.929940  0.201830  -0.724100
    O   O16   0.107000  0.901530  0.271840  -0.722541
    O   O17   0.019620  0.911670  0.005210  -0.638918
    Co  Co7   0.110570  0.985880  0.712930  1.259363
    Co  Co8   0.908310  0.975960  0.660910  1.285549
    Co  Co9   0.047210  0.028160  0.773400  1.192038
    Co  Co10  0.967380  0.924040  0.607630  1.195356
    C   C31   0.153550  0.886060  0.760920  1.000875
    Co  Co11  0.096950  0.922170  0.605270  1.238738
    Co  Co12  0.927660  0.051660  0.761480  1.259513
    O   O18   0.035220  0.126310  0.813360  -0.723077
    C   C32   0.096110  0.169380  0.788880  0.787500
    O   O19   0.131220  0.021110  0.792340  -0.582694
    O   O20   0.877300  0.918240  0.596760  -0.583439
    C   C33   0.890210  0.102080  0.605010  0.881117
    C   C34   0.224940  0.078870  0.618120  0.871217
    C   C35   0.943940  0.782350  0.626670  0.876440
    O   O21   0.113880  0.140940  0.770670  -0.602805
    O   O22   0.171330  0.036640  0.572290  -0.657498
    O   O23   0.212190  0.069080  0.676680  -0.656125
    O   O24   0.938710  0.126200  0.663120  -0.666161
    O   O25   0.878750  0.049400  0.589790  -0.661191
    O   O26   0.006020  0.957220  0.866310  -0.651368
    O   O27   0.016410  0.810950  0.643480  -0.673708
    O   O28   0.921380  0.810570  0.639000  -0.686636
    O   O29   0.057600  0.952110  0.640290  -0.627871
    C   C36   0.788100  0.905420  0.729300  1.002157
    O   O30   0.815120  0.974800  0.718110  -0.765943
    O   O31   0.825080  0.891110  0.719280  -0.727487
    O   O32   0.175240  0.923710  0.700750  -0.772875
    O   O33   0.113200  0.894210  0.774080  -0.712924
    O   O34   0.020840  0.913850  0.506440  -0.660812
    C   C37   0.151710  0.247200  0.795310  -0.015510
    C   C38   0.179060  0.305660  0.735850  -0.130329
    C   C39   0.211790  0.378570  0.733680  -0.249036
    C   C40   0.217090  0.393450  0.790940  0.235124
    C   C41   0.193950  0.335630  0.852650  0.163136
    C   C42   0.163460  0.263260  0.855280  -0.247036
    C   C43   0.198880  0.350320  0.909830  -0.228029
    C   C44   0.227130  0.422100  0.905960  -0.179232
    C   C45   0.250750  0.479890  0.845000  0.165090
    C   C46   0.244430  0.465080  0.787030  -0.337532
    H   H13   0.170880  0.293920  0.689640  0.136749
    H   H14   0.230740  0.422880  0.686590  0.142447
    H   H15   0.144240  0.218360  0.902100  0.178614
    H   H16   0.181060  0.306230  0.957360  0.147191
    H   H17   0.232480  0.433280  0.951060  0.129946
    H   H18   0.262480  0.509770  0.739780  0.145823
    C   C47   0.474900  0.742190  0.800640  0.072825
    C   C48   0.478240  0.790340  0.732250  -0.105322
    C   C49   0.537600  0.826630  0.701740  -0.314032
    C   C50   0.594310  0.815070  0.739190  0.239347
    C   C51   0.593120  0.769190  0.809050  0.232638
    C   C52   0.534530  0.734600  0.840220  -0.290876
    C   C53   0.650150  0.757950  0.846480  -0.298390
    C   C54   0.710430  0.795770  0.816300  -0.080644
    C   C55   0.714150  0.844950  0.748520  -0.110070
    C   C56   0.653410  0.850520  0.708430  -0.268287
    H   H19   0.432660  0.796540  0.701220  0.108358
    H   H20   0.538670  0.862660  0.648440  0.167141
    H   H21   0.532780  0.698400  0.893520  0.135833
    H   H22   0.649100  0.721760  0.899680  0.170495
    H   H23   0.756800  0.790770  0.847570  0.145952
    H   H24   0.655080  0.886770  0.655210  0.141901
    C   C57   0.246520  0.681550  0.828120  0.123233
    C   C58   0.173410  0.653430  0.783200  -0.123896
    C   C59   0.132850  0.678010  0.773160  -0.261426
    C   C60   0.165790  0.733180  0.805730  0.197067
    C   C61   0.238610  0.760980  0.851930  0.192672
    C   C62   0.278280  0.734070  0.863970  -0.322291
    C   C63   0.272530  0.818440  0.882040  -0.208003
    C   C64   0.238030  0.853270  0.860380  -0.143507
    C   C65   0.168920  0.830300  0.809300  -0.048397
    C   C66   0.129620  0.765420  0.787950  -0.274900
    H   H25   0.148540  0.613470  0.754910  0.115412
    H   H26   0.076900  0.656190  0.737760  0.140279
    H   H27   0.334160  0.755180  0.899500  0.142395
    H   H28   0.327520  0.839050  0.919020  0.141125
    H   H29   0.268170  0.902130  0.878720  0.108775
    H   H30   0.074430  0.745050  0.751370  0.175025
    C   C67   0.090810  0.246820  0.246010  -0.056603
    C   C68   0.110190  0.303650  0.183550  -0.075487
    C   C69   0.137800  0.375270  0.179500  -0.255106
    C   C70   0.147120  0.391140  0.238260  0.230189
    C   C71   0.129450  0.334760  0.301910  0.231208
    C   C72   0.101040  0.262600  0.305420  -0.327530
    C   C73   0.140870  0.351430  0.361280  -0.264612
    C   C74   0.173740  0.424630  0.358690  -0.166237
    C   C75   0.194180  0.481560  0.296350  0.099923
    C   C76   0.176470  0.463430  0.234980  -0.315848
    H   H31   0.101060  0.291530  0.137120  0.109227
    H   H32   0.151580  0.418260  0.130510  0.140533
    H   H33   0.084980  0.218390  0.353390  0.173495
    H   H34   0.126650  0.308390  0.410160  0.162123
    H   H35   0.186790  0.437810  0.406200  0.131078
    H   H36   0.190840  0.507010  0.186320  0.136626
    C   C77   0.446660  0.724280  0.268230  0.105489
    C   C78   0.468640  0.786030  0.209370  -0.156797
    C   C79   0.535080  0.821500  0.190420  -0.287054
    C   C80   0.580130  0.795350  0.229930  0.291485
    C   C81   0.558280  0.733210  0.289090  0.188075
    C   C82   0.492250  0.698630  0.308580  -0.293150
    C   C83   0.603330  0.707090  0.328540  -0.257117
    C   C84   0.672070  0.745350  0.312190  -0.090868
    C   C85   0.696200  0.809670  0.255980  -0.050469
    C   C86   0.648260  0.832250  0.212710  -0.375962
    H   H37   0.433370  0.805520  0.177360  0.124469
    H   H38   0.551340  0.869170  0.144920  0.161761
    H   H39   0.475550  0.651110  0.354230  0.144880
    H   H40   0.586420  0.658630  0.373280  0.148403
    H   H41   0.708600  0.727440  0.345730  0.125694
    H   H42   0.666330  0.881330  0.168580  0.178359
    C   C87   0.153660  0.829350  0.305880  -0.116379
    C   C88   0.091040  0.756940  0.296210  -0.064491
    C   C89   0.102290  0.707790  0.300140  -0.299810
    C   C90   0.176280  0.728830  0.319000  0.214274
    C   C91   0.237930  0.794910  0.342970  0.238591
    C   C92   0.226420  0.845230  0.336180  -0.267785
    C   C93   0.310840  0.812010  0.369230  -0.273263
    C   C94   0.323480  0.767160  0.366190  -0.144487
    C   C95   0.264530  0.707600  0.332290  0.100083
    C   C96   0.189930  0.686800  0.311060  -0.316884
    H   H43   0.033960  0.741300  0.279190  0.154101
    H   H44   0.053780  0.654560  0.286650  0.140291
    H   H45   0.274810  0.899550  0.347560  0.135013
    H   H46   0.358020  0.860530  0.391190  0.159645
    H   H47   0.379800  0.780250  0.388190  0.116869
    H   H48   0.143550  0.640510  0.285860  0.162373
    C   C97   0.837950  0.123420  0.564260  -0.125796
    C   C98   0.762610  0.071060  0.571940  -0.047764
    C   C99   0.721820  0.095190  0.562360  -0.277442
    C   C100  0.754360  0.171850  0.540270  0.200402
    C   C101  0.824790  0.223600  0.520650  0.218988
    C   C102  0.867280  0.199370  0.534180  -0.246621
    C   C103  0.853330  0.299250  0.491230  -0.266623
    C   C104  0.814850  0.324030  0.486120  -0.148188
    C   C105  0.750410  0.274510  0.515150  0.115811
    C   C106  0.719260  0.197710  0.540690  -0.304195
    H   H49   0.737900  0.011980  0.590900  0.126472
    H   H50   0.665960  0.054450  0.574020  0.147070
    H   H51   0.924550  0.239810  0.525690  0.142408
    H   H52   0.905480  0.338990  0.472720  0.151328
    H   H53   0.836250  0.382120  0.461200  0.117670
    H   H54   0.670040  0.158770  0.563590  0.156158
    C   C107  0.786990  0.477400  0.556760  0.093732
    C   C108  0.826330  0.538960  0.504260  -0.129162
    C   C109  0.860860  0.611390  0.504970  -0.301820
    C   C110  0.855870  0.623020  0.557890  0.276398
    C   C111  0.817650  0.561490  0.611650  0.246543
    C   C112  0.785100  0.489160  0.611880  -0.322397
    C   C113  0.812200  0.573190  0.664220  -0.310804
    C   C114  0.847550  0.645850  0.665270  -0.060512
    C   C115  0.888600  0.707330  0.613860  -0.054477
    C   C116  0.890080  0.695500  0.558680  -0.353761
    H   H55   0.827820  0.530410  0.461430  0.117985
    H   H56   0.890500  0.658330  0.463750  0.170007
    H   H57   0.755860  0.441740  0.653200  0.145167
    H   H58   0.782080  0.526270  0.705170  0.151705
    H   H59   0.846390  0.654580  0.708180  0.137240
    H   H60   0.921510  0.743150  0.518720  0.188335
    C   C117  0.535850  0.230440  0.549810  0.129663
    C   C118  0.516710  0.163810  0.603190  -0.149379
    C   C119  0.454200  0.123260  0.631110  -0.261271
    C   C120  0.410420  0.149160  0.606320  0.189835
    C   C121  0.427620  0.214540  0.550760  0.224578
    C   C122  0.488750  0.253470  0.521190  -0.317766
    C   C123  0.384040  0.240630  0.526250  -0.216618
    C   C124  0.321560  0.200020  0.554290  -0.139097
    C   C125  0.302220  0.133210  0.607160  -0.051420
    C   C126  0.348640  0.109660  0.635210  -0.263596
    H   H61   0.552540  0.145460  0.625550  0.123452
    H   H62   0.440890  0.072610  0.673100  0.145515
    H   H63   0.502390  0.303970  0.478780  0.140403
    H   H64   0.397410  0.291360  0.484370  0.142482
    H   H65   0.285760  0.218360  0.532230  0.123456
    H   H66   0.333610  0.057960  0.676160  0.162579
    C   C127  0.756760  0.267300  0.038230  0.148767
    C   C128  0.832230  0.295140  0.077040  -0.148805
    C   C129  0.866620  0.265990  0.082800  -0.262878
    C   C130  0.824700  0.205170  0.054070  0.212756
    C   C131  0.748870  0.176470  0.015160  0.200406
    C   C132  0.716130  0.209620  0.004990  -0.338621
    C   C133  0.705220  0.111640  0.991650  -0.241240
    C   C134  0.733980  0.071400  0.013400  -0.092420
    C   C135  0.807450  0.097150  0.056530  -0.054881
    C   C136  0.855020  0.167990  0.069870  -0.274504
    H   H67   0.863760  0.338220  0.104320  0.125025
    H   H68   0.924740  0.288160  0.113030  0.140471
    H   H69   0.658680  0.189080  0.973440  0.155091
    H   H70   0.647440  0.089720  0.960590  0.143494
    H   H71   0.697150  0.017500  0.001330  0.102436
    H   H72   0.913230  0.190110  0.099560  0.172453
    C   C137  0.786050  0.472640  0.060200  0.142191
    C   C138  0.852410  0.490290  0.114400  -0.129392
    C   C139  0.894210  0.552670  0.140240  -0.313258
    C   C140  0.870010  0.598060  0.112480  0.295334
    C   C141  0.804570  0.582020  0.056610  0.141318
    C   C142  0.763560  0.520040  0.029800  -0.290873
    C   C143  0.780650  0.627780  0.028890  -0.176142
    C   C144  0.822900  0.690350  0.055000  -0.153749
    C   C145  0.889230  0.707600  0.109130  0.061903
    C   C146  0.911060  0.659830  0.139260  -0.387298
    H   H73   0.869920  0.453880  0.138500  0.118706
    H   H74   0.944790  0.564990  0.182700  0.165394
    H   H75   0.712900  0.507090  0.987260  0.142197
    H   H76   0.730200  0.615730  0.986360  0.127249
    H   H77   0.805840  0.727120  0.031090  0.119893
    H   H78   0.961620  0.672440  0.181660  0.194549
    C   C147  0.298800  0.126720  0.112260  -0.071174
    C   C148  0.357950  0.151360  0.172100  -0.069446
    C   C149  0.431600  0.181740  0.174110  -0.275896
    C   C150  0.446770  0.187040  0.116670  0.239142
    C   C151  0.387960  0.163820  0.055880  0.201859
    C   C152  0.315030  0.136110  0.053050  -0.234383
    C   C153  0.402670  0.167920  0.998900  -0.278320
    C   C154  0.476050  0.197950  0.000880  -0.128380
    C   C155  0.535620  0.224690  0.059540  0.107515
    C   C156  0.520250  0.216540  0.118610  -0.321793
    H   H79   0.346530  0.144850  0.217980  0.124205
    H   H80   0.476480  0.199970  0.220810  0.148116
    H   H81   0.270220  0.119280  0.005840  0.138493
    H   H82   0.357580  0.149090  0.952470  0.179615
    H   H83   0.487390  0.203900  0.955240  0.114047
    H   H84   0.566180  0.236490  0.164330  0.136245
    C   C157  0.989690  0.948550  0.966530  0.535689
    O   O35   0.940830  0.004900  0.219450  -0.698771
    O   O36   0.002500  0.998280  0.162780  -0.840960
    C   C158  0.990240  0.984720  0.393050  0.864003
    O   O37   0.972570  0.031820  0.358340  -0.743343
    O   O38   0.964800  0.961690  0.995850  -0.550111
    C   C159  0.998890  0.957590  0.470880  0.563853
    O   O39   0.967140  0.022350  0.725500  -0.660035
    O   O40   0.020120  0.003560  0.672210  -0.856307
    C   C160  0.976270  0.965510  0.895430  0.828291
    O   O41   0.920380  0.972420  0.856910  -0.657960
    O   O42   0.976440  0.971130  0.502310  -0.544198
