# Generated by REPEAT Assigner based on pymatgen
data_DB7-ddmof_23720
_audit_creation_date              2022-05-24
_audit_creation_method            REPEAT_Assigner
_cell_length_a                    48.507280
_cell_length_b                    47.480880
_cell_length_c                    31.355200
_cell_angle_alpha                 89.960450
_cell_angle_beta                  89.955150
_cell_angle_gamma                 90.407660
_cell_volume                      72214.436443
_symmetry_space_group_name_H-M    P1
_symmetry_Int_Tables_number       1
loop_
    _symmetry_equiv_pos_site_id
    _symmetry_equiv_pos_as_xyz
    1  x,y,z
loop_
    _atom_site_type_symbol
    _atom_site_label
    _atom_site_fract_x
    _atom_site_fract_y
    _atom_site_fract_z
    _atom_type_partial_charge
    C   C1    0.514270  0.553350  0.010530  1.077935
    C   C2    0.451210  0.513770  0.059680  0.908376
    C   C3    0.548560  0.497290  0.074000  0.638167
    C   C4    0.486200  0.446200  0.988430  0.881793
    C   C5    0.369990  0.052590  0.010980  0.976846
    C   C6    0.426060  0.052830  0.917920  0.735301
    C   C7    0.440440  0.056020  0.065910  0.897940
    C   C8    0.436890  0.137860  0.997390  0.892793
    C   C9    0.516350  0.994080  0.268090  0.258879
    C   C10   0.499780  0.013340  0.246030  -0.303581
    C   C11   0.500330  0.014190  0.201360  0.177376
    C   C12   0.517560  0.995880  0.178850  -0.262302
    C   C13   0.534070  0.976590  0.200710  0.106161
    C   C14   0.533310  0.975520  0.245360  -0.292629
    C   C15   0.495130  0.979860  0.334900  0.419832
    C   C16   0.494430  0.979350  0.379800  -0.095351
    C   C17   0.515160  0.993430  0.402880  0.072404
    C   C18   0.537180  0.006220  0.380890  -0.101644
    C   C19   0.537090  0.006450  0.335990  0.394393
    C   C20   0.474040  0.964030  0.401730  -0.081671
    C   C21   0.473810  0.963360  0.446200  -0.177746
    C   C22   0.492590  0.980050  0.469930  0.018523
    C   C23   0.514300  0.994010  0.448040  0.069740
    C   C24   0.535820  0.007450  0.470970  0.015788
    C   C25   0.559440  0.017550  0.403900  -0.085938
    C   C26   0.559310  0.017120  0.448380  -0.155553
    C   C27   0.491010  0.981890  0.515190  0.049632
    C   C28   0.512530  0.995390  0.538060  0.045849
    C   C29   0.534050  0.009580  0.516130  0.027635
    C   C30   0.552490  0.026730  0.539720  -0.152342
    C   C31   0.552260  0.026200  0.584210  -0.104078
    C   C32   0.532300  0.010330  0.606220  -0.094705
    C   C33   0.511880  0.995730  0.583230  0.081425
    C   C34   0.467810  0.971710  0.538010  -0.181979
    C   C35   0.468120  0.970660  0.582470  -0.076944
    C   C36   0.490380  0.982130  0.605310  -0.115300
    C   C37   0.531760  0.009700  0.651120  0.394027
    C   C38   0.490950  0.981270  0.650180  0.453122
    C   C39   0.511620  0.994030  0.718040  0.284396
    C   C40   0.531500  0.978130  0.739690  -0.311203
    C   C41   0.532210  0.978150  0.784360  0.087371
    C   C42   0.512480  0.993280  0.807360  -0.236199
    C   C43   0.492470  0.008980  0.785880  0.116752
    C   C44   0.492140  0.009510  0.741220  -0.316161
    C   C45   0.659560  0.938650  0.004730  0.955575
    C   C46   0.602470  0.936700  0.913030  0.711634
    C   C47   0.590120  0.934070  0.061550  0.982290
    C   C48   0.594770  0.851710  0.993700  0.919769
    C   C49   0.058330  0.640890  0.984870  0.968694
    C   C50   0.068430  0.569720  0.929270  0.929949
    C   C51   0.065720  0.582590  0.076980  0.642633
    C   C52   0.148030  0.580940  0.995330  0.833477
    C   C53   0.999960  0.498470  0.274140  0.293233
    C   C54   0.981570  0.480880  0.251840  -0.329041
    C   C55   0.981440  0.480980  0.207140  0.133153
    C   C56   0.999450  0.498860  0.184830  -0.234101
    C   C57   0.017900  0.516370  0.206920  0.117587
    C   C58   0.018120  0.516210  0.251620  -0.293061
    C   C59   0.015660  0.478510  0.341060  0.436028
    C   C60   0.016510  0.478200  0.385960  -0.117846
    C   C61   0.001440  0.498290  0.408940  0.094318
    C   C62   0.985720  0.518320  0.386900  -0.131763
    C   C63   0.985340  0.517940  0.341980  0.462148
    C   C64   0.032530  0.458400  0.408050  -0.083083
    C   C65   0.032740  0.457970  0.452600  -0.172216
    C   C66   0.016100  0.476750  0.476040  0.023383
    C   C67   0.002070  0.498340  0.454020  0.050752
    C   C68   0.988670  0.519970  0.476860  0.022152
    C   C69   0.970370  0.538190  0.409950  -0.078101
    C   C70   0.971430  0.538730  0.454480  -0.169149
    C   C71   0.014080  0.475230  0.521180  0.047188
    C   C72   0.003230  0.498360  0.543940  0.032349
    C   C73   0.991860  0.521500  0.521840  0.048981
    C   C74   0.985030  0.546010  0.544960  -0.180024
    C   C75   0.985980  0.546040  0.589500  -0.069763
    C   C76   0.994760  0.522030  0.611810  -0.163438
    C   C77   0.003740  0.498330  0.589030  0.118896
    C   C78   0.021490  0.450720  0.543890  -0.179932
    C   C79   0.021550  0.450640  0.588450  -0.065719
    C   C80   0.013200  0.474590  0.611270  -0.145070
    C   C81   0.995010  0.521440  0.656720  0.492575
    C   C82   0.013760  0.475040  0.656170  0.472717
    C   C83   0.004720  0.498010  0.723900  0.226399
    C   C84   0.024510  0.513930  0.746210  -0.261927
    C   C85   0.024700  0.513750  0.790900  0.139875
    C   C86   0.005250  0.497530  0.813220  -0.183844
    C   C87   0.985710  0.481300  0.791170  0.065304
    C   C88   0.985230  0.481790  0.746460  -0.241105
    C   C89   0.854870  0.445380  0.005750  0.980802
    C   C90   0.923280  0.439980  0.068540  1.026001
    C   C91   0.915940  0.437710  0.920000  0.568096
    C   C92   0.917400  0.356120  0.006810  0.831003
    C   C93   0.020390  0.943350  0.009220  1.104659
    C   C94   0.062550  0.002930  0.065180  0.892760
    C   C95   0.967440  0.975720  0.078950  0.681589
    C   C96   0.002490  0.053340  0.002010  0.874822
    C   C97   0.977550  0.131890  0.967370  0.030937
    C   C98   0.949600  0.138270  0.961950  -0.105519
    C   C99   0.941120  0.166370  0.960750  -0.200955
    C   C100  0.960560  0.188230  0.965050  0.140683
    C   C101  0.988700  0.181780  0.967740  -0.188554
    C   C102  0.997150  0.153710  0.968810  -0.094954
    C   C103  0.951360  0.217570  0.970660  0.111337
    C   C104  0.934810  0.224760  0.005730  -0.140667
    C   C105  0.927650  0.252840  0.012810  -0.247442
    C   C106  0.937010  0.273930  0.984990  0.226704
    C   C107  0.953250  0.266790  0.949650  -0.172640
    C   C108  0.960390  0.238690  0.942470  -0.216312
    C   C109  0.930100  0.302920  0.992870  -0.037506
    C   C110  0.924300  0.327180  0.999510  -0.256241
    C   C111  0.985600  0.103650  0.978270  0.096448
    C   C112  0.993060  0.080270  0.987540  -0.380676
    C   C113  0.931700  0.441930  0.879970  0.204883
    C   C114  0.959280  0.432570  0.876110  -0.198978
    C   C115  0.976010  0.443090  0.843330  0.005326
    C   C116  0.966010  0.463630  0.815320  0.138170
    C   C117  0.938040  0.470720  0.816420  -0.231206
    C   C118  0.920890  0.459680  0.848280  -0.246438
    C   C119  0.962000  0.462980  0.183200  0.229078
    C   C120  0.971830  0.439500  0.160490  -0.060736
    C   C121  0.957090  0.429320  0.125260  -0.068440
    C   C122  0.932500  0.442310  0.112890  -0.079504
    C   C123  0.920840  0.462870  0.139260  -0.091676
    C   C124  0.935510  0.473120  0.174420  -0.286465
    C   C125  0.047270  0.723550  0.954130  0.221445
    C   C126  0.063640  0.744480  0.973040  -0.227473
    C   C127  0.058390  0.772880  0.964880  -0.167950
    C   C128  0.036720  0.780550  0.937640  0.136157
    C   C129  0.020890  0.759510  0.917660  -0.198243
    C   C130  0.026160  0.731080  0.925910  -0.162973
    C   C131  0.029040  0.810460  0.933480  0.102834
    C   C132  0.048730  0.830390  0.920020  -0.212228
    C   C133  0.044240  0.859090  0.926940  -0.047821
    C   C134  0.020070  0.867990  0.947260  -0.018208
    C   C135  0.999070  0.848380  0.955990  -0.108222
    C   C136  0.003570  0.819670  0.949280  -0.129356
    C   C137  0.019650  0.895070  0.967850  0.201943
    C   C138  0.019380  0.917760  0.985030  -0.517218
    C   C139  0.051340  0.694420  0.965120  0.053394
    C   C140  0.054680  0.670010  0.974230  -0.390061
    C   C141  0.066790  0.559890  0.885020  0.017636
    C   C142  0.050290  0.574430  0.855470  -0.002600
    C   C143  0.039120  0.560040  0.820460  -0.152637
    C   C144  0.044480  0.531300  0.814820  0.089956
    C   C145  0.064390  0.518260  0.840370  -0.151258
    C   C146  0.075470  0.532510  0.875450  -0.182507
    C   C147  0.060730  0.567540  0.117600  0.136583
    C   C148  0.067880  0.538840  0.122210  -0.147289
    C   C149  0.056200  0.522840  0.155160  -0.053612
    C   C150  0.036860  0.534840  0.182800  0.168329
    C   C151  0.032060  0.563890  0.181050  -0.240322
    C   C152  0.044110  0.580210  0.148800  -0.207116
    C   C153  0.885190  0.959290  0.066550  0.335051
    C   C154  0.875180  0.951380  0.026360  -0.192557
    C   C155  0.846910  0.947150  0.020200  -0.156979
    C   C156  0.828480  0.950780  0.054240  0.112296
    C   C157  0.838610  0.958160  0.094690  -0.201019
    C   C158  0.866890  0.962420  0.100790  -0.178340
    C   C159  0.798530  0.948040  0.047090  0.096422
    C   C160  0.787160  0.922260  0.033640  -0.168563
    C   C161  0.758900  0.920010  0.025300  -0.172958
    C   C162  0.741870  0.943500  0.030360  0.206965
    C   C163  0.753150  0.969180  0.044120  -0.189921
    C   C164  0.781380  0.971460  0.052440  -0.150805
    C   C165  0.712870  0.941370  0.021120  0.065969
    C   C166  0.688540  0.939960  0.013520  -0.422140
    C   C167  0.914130  0.965160  0.072160  -0.204109
    C   C168  0.938440  0.969940  0.075940  -0.034966
    C   C169  0.554240  0.963340  0.807380  0.325249
    C   C170  0.579300  0.977230  0.816400  -0.135455
    C   C171  0.596640  0.966830  0.848320  -0.133940
    C   C172  0.588900  0.942820  0.871830  0.023239
    C   C173  0.565540  0.927240  0.859190  -0.175532
    C   C174  0.548290  0.937520  0.827180  -0.238872
    C   C175  0.552640  0.958100  0.176430  0.237069
    C   C176  0.579940  0.966780  0.168120  -0.078255
    C   C177  0.594000  0.955860  0.132870  -0.103486
    C   C178  0.580920  0.936410  0.105880  -0.044307
    C   C179  0.555350  0.924920  0.117740  -0.114620
    C   C180  0.541300  0.935630  0.153060  -0.252661
    C   C181  0.144450  0.022180  0.059550  0.312126
    C   C182  0.158130  0.037580  0.091340  -0.197924
    C   C183  0.186270  0.043690  0.087200  -0.151660
    C   C184  0.200830  0.034430  0.051180  0.095431
    C   C185  0.187060  0.018990  0.019450  -0.143281
    C   C186  0.158970  0.012910  0.023630  -0.214141
    C   C187  0.230540  0.040500  0.046880  0.133233
    C   C188  0.249380  0.028480  0.075400  -0.209739
    C   C189  0.277710  0.032130  0.069020  -0.151624
    C   C190  0.287360  0.047810  0.034110  0.186391
    C   C191  0.268570  0.060470  0.006260  -0.168475
    C   C192  0.240240  0.056860  0.012620  -0.181319
    C   C193  0.316490  0.049740  0.025750  0.084067
    C   C194  0.340910  0.051250  0.019000  -0.433632
    C   C195  0.115470  0.015980  0.063430  -0.137794
    C   C196  0.091260  0.010260  0.065200  -0.195613
    C   C197  0.471890  0.024800  0.810500  0.277395
    C   C198  0.479300  0.050260  0.830550  -0.029173
    C   C199  0.462790  0.061010  0.863250  -0.157521
    C   C200  0.438960  0.046340  0.876350  0.006855
    C   C201  0.430010  0.022830  0.852800  -0.146220
    C   C202  0.446470  0.012070  0.820120  -0.291966
    C   C203  0.451470  0.054750  0.109370  0.087939
    C   C204  0.478100  0.065290  0.117820  -0.030161
    C   C205  0.493240  0.054430  0.152010  -0.125981
    C   C206  0.481890  0.033090  0.177690  0.098450
    C   C207  0.454000  0.025800  0.173030  -0.202037
    C   C208  0.438810  0.036670  0.138980  -0.204010
    C   C209  0.480550  0.365290  0.946030  -0.028579
    C   C210  0.454490  0.354480  0.935320  -0.069594
    C   C211  0.449990  0.325380  0.934430  -0.219661
    C   C212  0.471550  0.306920  0.944160  0.143095
    C   C213  0.498200  0.317710  0.950880  -0.221849
    C   C214  0.502680  0.346840  0.951750  -0.050662
    C   C215  0.465520  0.277030  0.953100  0.153732
    C   C216  0.449400  0.269620  0.988640  -0.180079
    C   C217  0.444150  0.241300  0.997900  -0.209974
    C   C218  0.454970  0.220180  0.971750  0.191678
    C   C219  0.471140  0.227500  0.936270  -0.144008
    C   C220  0.476440  0.255860  0.927000  -0.230567
    C   C221  0.448870  0.191060  0.980750  -0.001513
    C   C222  0.443620  0.166750  0.988590  -0.313801
    C   C223  0.483110  0.394110  0.959720  0.145395
    C   C224  0.484960  0.418290  0.971090  -0.395665
    C   C225  0.368460  0.528100  0.055240  0.302176
    C   C226  0.356620  0.550120  0.078520  -0.201558
    C   C227  0.328860  0.556860  0.072570  -0.135204
    C   C228  0.312800  0.541610  0.043250  0.084382
    C   C229  0.324510  0.519090  0.020830  -0.150379
    C   C230  0.352250  0.512380  0.026810  -0.188095
    C   C231  0.283990  0.549740  0.035060  0.136541
    C   C232  0.264150  0.547360  0.067490  -0.226760
    C   C233  0.236710  0.554410  0.059340  -0.178405
    C   C234  0.228950  0.563890  0.018770  0.227005
    C   C235  0.248780  0.566570  0.986480  -0.200119
    C   C236  0.276230  0.559530  0.994580  -0.184378
    C   C237  0.200490  0.570110  0.010000  -0.034297
    C   C238  0.176610  0.575260  0.003060  -0.251206
    C   C239  0.397660  0.523120  0.057840  -0.114330
    C   C240  0.422060  0.518650  0.059580  -0.220230
    C   C241  0.772220  0.455020  0.024850  0.170473
    C   C242  0.756650  0.434000  0.045300  -0.129727
    C   C243  0.728560  0.438080  0.053120  -0.209948
    C   C244  0.715890  0.463250  0.040540  0.123418
    C   C245  0.731470  0.484140  0.019680  -0.158789
    C   C246  0.759540  0.480030  0.011890  -0.182153
    C   C247  0.686380  0.467840  0.049460  0.095311
    C   C248  0.666290  0.450740  0.030040  -0.182107
    C   C249  0.638290  0.455980  0.036880  -0.185061
    C   C250  0.630210  0.478320  0.063190  0.353254
    C   C251  0.650250  0.495070  0.083270  -0.225982
    C   C252  0.678250  0.489850  0.076460  -0.150512
    C   C253  0.601420  0.485020  0.067610  -0.238403
    C   C254  0.577280  0.490480  0.071140  -0.004639
    C   C255  0.801350  0.451280  0.018130  0.096222
    C   C256  0.825750  0.448410  0.012330  -0.450003
    C   C257  0.542680  0.625630  0.955470  0.033466
    C   C258  0.570810  0.632530  0.956620  -0.145130
    C   C259  0.579300  0.660620  0.952520  -0.151324
    C   C260  0.559650  0.681920  0.947260  0.108176
    C   C261  0.531830  0.674560  0.941540  -0.161739
    C   C262  0.523390  0.646470  0.945500  -0.123757
    C   C263  0.567490  0.711650  0.954160  0.142709
    C   C264  0.577800  0.720230  0.993960  -0.172987
    C   C265  0.583310  0.748680  0.001800  -0.231663
    C   C266  0.578510  0.768770  0.970000  0.233645
    C   C267  0.568470  0.760260  0.930070  -0.178016
    C   C268  0.562970  0.731770  0.922150  -0.219025
    C   C269  0.584070  0.798080  0.978310  -0.019252
    C   C270  0.588770  0.822580  0.985530  -0.300074
    C   C271  0.533290  0.599420  0.973630  0.164006
    C   C272  0.524900  0.577650  0.988740  -0.495848
    Cl  Cl1   0.974030  0.409410  0.913580  -0.004031
    Cl  Cl2   0.003640  0.424200  0.173820  -0.033806
    Cl  Cl3   0.041540  0.609910  0.864000  -0.043092
    Cl  Cl4   0.089500  0.521880  0.085160  -0.016229
    Cl  Cl5   0.588350  0.008660  0.789810  -0.005787
    Cl  Cl6   0.595780  0.993150  0.199280  -0.034282
    Cl  Cl7   0.509950  0.068070  0.816460  -0.048629
    Cl  Cl8   0.493500  0.090360  0.083770  -0.037789
    H   H1    0.486520  0.027490  0.263610  0.153031
    H   H2    0.546080  0.960650  0.262420  0.149185
    H   H3    0.577380  0.025850  0.387420  0.153429
    H   H4    0.578050  0.022910  0.464870  0.138202
    H   H5    0.458860  0.951710  0.384400  0.155279
    H   H6    0.460010  0.948660  0.461760  0.150202
    H   H7    0.546640  0.966320  0.721780  0.157939
    H   H8    0.476900  0.021910  0.724500  0.160693
    H   H9    0.566030  0.041620  0.524000  0.152236
    H   H10   0.567170  0.038900  0.601460  0.157204
    H   H11   0.448940  0.966010  0.521820  0.151368
    H   H12   0.450450  0.961890  0.599110  0.152772
    H   H13   0.512930  0.993160  0.841950  0.085441
    H   H14   0.518000  0.996530  0.144260  0.140685
    H   H15   0.967540  0.467220  0.269260  0.158269
    H   H16   0.032350  0.529710  0.268880  0.152020
    H   H17   0.957250  0.553040  0.393520  0.152004
    H   H18   0.957810  0.552820  0.471330  0.147153
    H   H19   0.045200  0.443540  0.390820  0.158036
    H   H20   0.046850  0.443960  0.468590  0.155339
    H   H21   0.039530  0.526450  0.728800  0.157692
    H   H22   0.970040  0.469430  0.729220  0.158658
    H   H23   0.980250  0.565450  0.528690  0.148884
    H   H24   0.980280  0.564970  0.606530  0.151906
    H   H25   0.025930  0.431300  0.527360  0.145634
    H   H26   0.027660  0.431690  0.605120  0.156299
    H   H27   0.005240  0.497660  0.847830  0.093464
    H   H28   0.999070  0.499180  0.150240  0.102334
    H   H29   0.934340  0.121520  0.960530  0.130461
    H   H30   0.919380  0.171120  0.957960  0.124904
    H   H31   0.003900  0.198490  0.970790  0.129330
    H   H32   0.018810  0.148940  0.972790  0.126858
    H   H33   0.927900  0.208650  0.027860  0.121372
    H   H34   0.915050  0.258200  0.040130  0.160611
    H   H35   0.960490  0.283000  0.927920  0.161775
    H   H36   0.973140  0.233370  0.915300  0.121477
    H   H37   0.997430  0.436840  0.841580  0.098512
    H   H38   0.899600  0.466340  0.849950  0.225704
    H   H39   0.929960  0.486100  0.794250  0.148079
    H   H40   0.965770  0.412760  0.105750  0.111875
    H   H41   0.927380  0.490670  0.192440  0.173402
    H   H42   0.901500  0.472570  0.130500  0.120454
    H   H43   0.080070  0.738800  0.994740  0.171627
    H   H44   0.070630  0.788940  0.980680  0.131782
    H   H45   0.004180  0.765180  0.896480  0.123944
    H   H46   0.013520  0.714970  0.910980  0.158273
    H   H47   0.068170  0.823550  0.906680  0.132336
    H   H48   0.060380  0.874170  0.919300  0.123504
    H   H49   0.980090  0.855140  0.970970  0.140628
    H   H50   0.988000  0.804500  0.959030  0.097547
    H   H51   0.024540  0.570560  0.799780  0.126872
    H   H52   0.088870  0.521410  0.897280  0.163929
    H   H53   0.069350  0.496290  0.835410  0.132391
    H   H54   0.060590  0.500530  0.157300  0.109658
    H   H55   0.039050  0.602340  0.146390  0.203869
    H   H56   0.017590  0.573480  0.202920  0.152869
    H   H57   0.889230  0.948880  0.999770  0.158978
    H   H58   0.839290  0.941510  0.988850  0.124489
    H   H59   0.824550  0.960850  0.121220  0.129960
    H   H60   0.874510  0.968450  0.131980  0.159323
    H   H61   0.800210  0.904040  0.029530  0.113741
    H   H62   0.750300  0.900080  0.014760  0.164533
    H   H63   0.740080  0.987410  0.048130  0.164402
    H   H64   0.789980  0.991480  0.062580  0.121898
    H   H65   0.615380  0.978210  0.856260  0.161473
    H   H66   0.529350  0.926340  0.819720  0.147175
    H   H67   0.559820  0.908080  0.875840  0.183466
    H   H68   0.614180  0.964160  0.124570  0.119187
    H   H69   0.520590  0.928230  0.159930  0.152054
    H   H70   0.545360  0.909370  0.097610  0.138418
    H   H71   0.147000  0.044840  0.119190  0.173539
    H   H72   0.196720  0.055640  0.111850  0.114835
    H   H73   0.198160  0.011590  0.991670  0.115245
    H   H74   0.148510  0.000980  0.998940  0.177380
    H   H75   0.242090  0.015810  0.101910  0.125222
    H   H76   0.292130  0.022350  0.090750  0.157754
    H   H77   0.275900  0.072710  0.979300  0.157949
    H   H78   0.225840  0.066350  0.990570  0.124184
    H   H79   0.469310  0.079900  0.879900  0.159919
    H   H80   0.440260  0.992860  0.804050  0.174321
    H   H81   0.411040  0.012010  0.861240  0.181191
    H   H82   0.514490  0.060960  0.156540  0.112986
    H   H83   0.418010  0.029050  0.133450  0.153476
    H   H84   0.444800  0.009910  0.193490  0.164215
    H   H85   0.437340  0.368600  0.930310  0.117305
    H   H86   0.429440  0.317220  0.928390  0.129335
    H   H87   0.515090  0.303610  0.957790  0.129018
    H   H88   0.522980  0.355020  0.959530  0.117086
    H   H89   0.441090  0.285820  0.009200  0.134814
    H   H90   0.431630  0.235800  0.025350  0.151134
    H   H91   0.479510  0.211260  0.915850  0.139245
    H   H92   0.488960  0.261370  0.899570  0.128693
    H   H93   0.369030  0.562390  0.100540  0.150948
    H   H94   0.319980  0.574240  0.090110  0.115481
    H   H95   0.312210  0.507040  0.998400  0.128265
    H   H96   0.361270  0.495320  0.008710  0.154562
    H   H97   0.269940  0.539810  0.098820  0.125570
    H   H98   0.221470  0.552290  0.084450  0.171281
    H   H99   0.242930  0.573920  0.955060  0.146402
    H   H100  0.291430  0.561600  0.969420  0.125337
    H   H101  0.766320  0.414600  0.055410  0.153335
    H   H102  0.716710  0.421830  0.069240  0.130829
    H   H103  0.721830  0.503550  0.009590  0.118179
    H   H104  0.771440  0.496350  0.996010  0.161369
    H   H105  0.672350  0.433700  0.009140  0.135617
    H   H106  0.622910  0.442960  0.021230  0.174155
    H   H107  0.644160  0.512360  0.103660  0.188132
    H   H108  0.693610  0.503040  0.091820  0.111768
    H   H109  0.585920  0.616470  0.963580  0.150977
    H   H110  0.600930  0.666000  0.955900  0.110261
    H   H111  0.516540  0.690780  0.936700  0.123502
    H   H112  0.501640  0.641230  0.943850  0.152447
    H   H113  0.581090  0.704900  0.019030  0.128820
    H   H114  0.591120  0.755100  0.032690  0.155124
    H   H115  0.564820  0.775700  0.905260  0.151175
    H   H116  0.554970  0.725380  0.891360  0.127140
    N   N1    0.516130  0.993530  0.313920  -0.016437
    N   N2    0.511520  0.994890  0.672190  -0.051512
    N   N3    0.000260  0.498250  0.319990  -0.055698
    N   N4    0.004510  0.498170  0.678000  -0.094707
    O   O1    0.530130  0.480360  0.057170  -0.613183
    O   O2    0.499710  0.556900  0.045490  -0.796267
    O   O3    0.541080  0.521720  0.089250  -0.763989
    O   O4    0.464330  0.511490  0.023370  -0.662139
    O   O5    0.465020  0.514700  0.095580  -0.796917
    O   O6    0.477610  0.451160  0.026800  -0.651424
    O   O7    0.519730  0.527860  0.996410  -0.625424
    O   O8    0.501060  0.465970  0.971230  -0.650575
    O   O9    0.423870  0.076470  0.054670  -0.713586
    O   O10   0.386010  0.032660  0.025610  -0.778316
    O   O11   0.447400  0.036540  0.038370  -0.839556
    O   O12   0.433420  0.075760  0.938560  -0.614626
    O   O13   0.411810  0.033260  0.937750  -0.803865
    O   O14   0.455730  0.118630  0.998310  -0.663518
    O   O15   0.380210  0.072850  0.987070  -0.575352
    O   O16   0.411790  0.128690  0.994970  -0.681562
    O   O17   0.557120  0.019330  0.315050  -0.506562
    O   O18   0.475490  0.967160  0.312920  -0.547000
    O   O19   0.550750  0.023450  0.673020  -0.499636
    O   O20   0.471820  0.967040  0.671120  -0.550993
    O   O21   0.606740  0.913730  0.050030  -0.722694
    O   O22   0.643320  0.958430  0.019270  -0.755422
    O   O23   0.582210  0.953020  0.033770  -0.858095
    O   O24   0.595820  0.913710  0.934140  -0.608835
    O   O25   0.616610  0.956600  0.932190  -0.773301
    O   O26   0.575390  0.870370  0.995080  -0.732732
    O   O27   0.649540  0.918180  0.981090  -0.584700
    O   O28   0.619570  0.861600  0.990430  -0.691981
    O   O29   0.089180  0.579500  0.056660  -0.515677
    O   O30   0.039970  0.622220  0.972280  -0.781659
    O   O31   0.045160  0.595160  0.058030  -0.798617
    O   O32   0.086120  0.589510  0.940030  -0.684370
    O   O33   0.050960  0.559710  0.957440  -0.849889
    O   O34   0.130400  0.560710  0.989120  -0.680998
    O   O35   0.080140  0.633080  0.006650  -0.592805
    O   O36   0.137570  0.605400  0.003030  -0.684191
    O   O37   0.970660  0.536630  0.320950  -0.559177
    O   O38   0.029740  0.459760  0.319150  -0.537633
    O   O39   0.985830  0.543230  0.678430  -0.556627
    O   O40   0.023430  0.453240  0.677330  -0.553816
    O   O41   0.918800  0.414450  0.942170  -0.484304
    O   O42   0.871810  0.465200  0.019020  -0.779357
    O   O43   0.902090  0.458740  0.936160  -0.783569
    O   O44   0.905070  0.420720  0.057540  -0.717188
    O   O45   0.932900  0.457800  0.040180  -0.895351
    O   O46   0.936350  0.374990  0.013570  -0.666040
    O   O47   0.864350  0.422780  0.986740  -0.568339
    O   O48   0.893380  0.365790  0.996910  -0.669567
    O   O49   0.977240  0.999840  0.065200  -0.618903
    O   O50   0.035790  0.944390  0.043680  -0.812072
    O   O51   0.984300  0.955850  0.090940  -0.768461
    O   O52   0.049270  0.001570  0.028920  -0.660477
    O   O53   0.050670  0.994180  0.100400  -0.795134
    O   O54   0.012720  0.050320  0.039870  -0.652620
    O   O55   0.004940  0.964920  0.998380  -0.641158
    O   O56   0.996720  0.030200  0.981890  -0.650770
    Zn  Zn1   0.500620  0.494610  0.020130  1.174844
    Zn  Zn2   0.502330  0.530410  0.097400  1.319101
    Zn  Zn3   0.418350  0.086450  0.994170  1.176951
    Zn  Zn4   0.422200  0.022700  0.995020  1.275539
    Zn  Zn5   0.611820  0.903620  0.989440  1.190920
    Zn  Zn6   0.606580  0.967320  0.989540  1.260839
    Zn  Zn7   0.096630  0.595650  0.999640  1.163068
    Zn  Zn8   0.035160  0.583460  0.001220  1.273713
    Zn  Zn9   0.901370  0.407930  0.998270  1.138458
    Zn  Zn10  0.910580  0.471150  0.993240  1.282530
    Zn  Zn11  0.009290  0.001690  0.026880  1.187019
    Zn  Zn12  0.023290  0.963850  0.099100  1.323418
