# Generated by REPEAT Assigner based on pymatgen
data_DB7-ddmof_2986
_audit_creation_date              2022-05-24
_audit_creation_method            REPEAT_Assigner
_cell_length_a                    20.670390
_cell_length_b                    21.408030
_cell_length_c                    31.147690
_cell_angle_alpha                 60.794530
_cell_angle_beta                  118.911390
_cell_angle_gamma                 133.206510
_cell_volume                      8524.134235
_symmetry_space_group_name_H-M    P1
_symmetry_Int_Tables_number       1
loop_
    _symmetry_equiv_pos_site_id
    _symmetry_equiv_pos_as_xyz
    1  x,y,z
loop_
    _atom_site_type_symbol
    _atom_site_label
    _atom_site_fract_x
    _atom_site_fract_y
    _atom_site_fract_z
    _atom_type_partial_charge
    Co  Co1   0.018900  0.996780  0.043490  1.307585
    Co  Co2   0.066370  0.877590  0.047620  1.304947
    O   O1    0.003330  0.088190  0.032940  -0.550482
    C   C1    0.040160  0.199810  0.134360  1.067352
    C   C2    0.162470  0.856170  0.151950  0.872809
    O   O2    0.061310  0.166770  0.120870  -0.680898
    O   O3    0.110890  0.842450  0.174260  -0.626359
    O   O4    0.018550  0.906350  0.076310  -0.763505
    C   C3    0.004760  0.993680  0.267280  0.988433
    Co  Co3   0.104930  0.043840  0.559330  1.274602
    Co  Co4   0.044820  0.114820  0.598610  1.238648
    Co  Co5   0.113840  0.899090  0.558780  1.278822
    O   O5    0.108790  0.147510  0.549870  -0.520188
    C   C4    0.139110  0.231620  0.671320  1.031767
    C   C5    0.113550  0.793360  0.665220  1.079922
    O   O6    0.143580  0.002430  0.494680  -0.803919
    O   O7    0.078370  0.165650  0.698970  -0.651490
    O   O8    0.145680  0.219750  0.635390  -0.618519
    O   O9    0.085910  0.789050  0.618660  -0.834573
    O   O10   0.089620  0.824350  0.678440  -0.621301
    O   O11   0.075060  0.940180  0.585210  -0.772755
    C   C6    0.030960  0.013050  0.838380  -0.221523
    C   C7    0.017330  0.006880  0.881080  0.149920
    H   H1    0.066750  0.061880  0.898720  0.067625
    N   N1    0.107680  0.093310  0.818000  0.733424
    O   O12   0.130070  0.169210  0.813790  -0.390584
    C   C8    0.111200  0.066770  0.338910  -0.058448
    C   C9    0.121670  0.084100  0.381060  -0.061033
    H   H2    0.162580  0.116450  0.316910  0.127282
    O   O13   0.192130  0.212620  0.403840  -0.353720
    C   C10   0.176610  0.382710  0.637310  0.275097
    F   F1    0.134940  0.371150  0.589670  -0.113089
    F   F2    0.186260  0.514080  0.608240  -0.158955
    C   C11   0.121660  0.665590  0.711830  0.196699
    F   F3    0.031220  0.607380  0.710800  -0.126509
    F   F4    0.122690  0.548140  0.722580  -0.148845
    C   C12   0.095060  0.354330  0.114140  0.199449
    C   C13   0.108550  0.287740  0.145190  -0.323759
    F   F5    0.039440  0.348120  0.067010  -0.145709
    F   F6    0.155110  0.806840  0.078630  -0.223843
    F   F7    0.122160  0.489150  0.101620  -0.138838
    O   O14   0.009090  0.947500  0.252240  -0.716349
    O   O15   0.047280  0.997070  0.624030  -0.847557
    C   C14   0.083910  0.019320  0.464740  1.071953
    O   O16   0.047100  0.029120  0.484120  -0.726184
    C   C15   0.031390  0.990230  0.322140  0.003372
    C   C16   0.055130  0.020970  0.410120  -0.138810
    O   O17   0.137020  0.005260  0.004150  -0.790318
    C   C17   0.165570  0.756390  0.702780  -0.342006
    C   C18   0.134760  0.424870  0.132470  0.247029
    Co  Co6   0.004960  0.865620  0.625980  1.263822
    N   N2    0.200870  0.166000  0.394540  0.647790
    O   O18   0.159180  0.090680  0.807270  -0.351153
    C   C19   0.177080  0.769590  0.128220  0.245634
    O   O19   0.158100  0.078050  0.049050  -0.706406
    C   C20   0.193400  0.321830  0.676750  -0.464460
    C   C21   0.168370  0.635590  0.716680  0.270820
    O   O20   0.175880  0.912900  0.108290  -0.628327
    C   C22   0.179300  0.789220  0.166570  -0.320400
    C   C23   0.166320  0.295380  0.193760  0.190368
    F   F8    0.181330  0.232600  0.223970  -0.097233
    C   C24   0.202920  0.455840  0.646870  0.229839
    F   F9    0.197600  0.696570  0.103000  -0.129230
    C   C25   0.189660  0.072740  0.023770  1.071849
    C   C26   0.189220  0.430250  0.181960  -0.336036
    C   C27   0.200620  0.714120  0.140620  0.267586
    C   C28   0.204480  0.364750  0.212520  0.168489
    C   C29   0.207540  0.753020  0.217580  0.222412
    N   N3    0.212870  0.551530  0.194050  -0.772492
    F   F10   0.212270  0.771920  0.255170  -0.112172
    F   F11   0.013400  0.370760  0.500200  -0.142195
    O   O21   0.998910  0.747150  0.089700  -0.657039
    Co  Co7   0.995650  0.847760  0.135080  1.202345
    O   O22   0.994180  0.055600  0.234340  -0.755974
    O   O23   0.957520  0.971660  0.969500  -0.649093
    C   C30   0.968100  0.941450  0.815100  -0.024686
    Co  Co8   0.957660  0.056140  0.091050  1.278182
    O   O24   0.951330  0.848510  0.990120  -0.696372
    O   O25   0.955650  0.157110  0.134920  -0.709524
    C   C31   0.956420  0.960190  0.759770  0.862577
    O   O26   0.242700  0.981240  0.597440  -0.678669
    O   O27   0.245270  0.103950  0.574200  -0.624843
    O   O28   0.281070  0.196600  0.394460  -0.366477
    C   C32   0.679640  0.268890  0.022740  0.944004
    N   N4    0.587900  0.221500  0.016150  -0.827002
    C   C33   0.553360  0.256890  0.016790  1.094426
    N   N5    0.609930  0.339150  0.023640  -0.847164
    C   C34   0.701170  0.385810  0.031890  0.986235
    N   N6    0.736480  0.350840  0.031470  -0.772504
    C   C35   0.754330  0.314430  0.521200  0.830037
    N   N7    0.666660  0.255950  0.526650  -0.659006
    C   C36   0.631310  0.280520  0.537290  0.914086
    N   N8    0.683250  0.362900  0.542990  -0.801113
    C   C37   0.770060  0.421990  0.537660  0.974284
    N   N9    0.806200  0.398250  0.526620  -0.721265
    C   C38   0.269880  0.633610  0.202810  0.962253
    C   C39   0.248430  0.513930  0.197040  0.960404
    N   N10   0.339940  0.558280  0.208500  -0.812658
    C   C40   0.396740  0.641540  0.214040  1.044181
    N   N11   0.361920  0.679320  0.211490  -0.810525
    C   C41   0.307280  0.668900  0.709050  0.780543
    N   N12   0.394910  0.729840  0.703110  -0.650071
    C   C42   0.435800  0.705290  0.697530  0.895731
    N   N13   0.389290  0.620640  0.697440  -0.770352
    C   C43   0.301650  0.560330  0.701440  0.941584
    N   N14   0.260170  0.584130  0.707160  -0.652358
    Co  Co9   0.932460  0.905960  0.182520  1.298332
    Co  Co10  0.881480  0.026100  0.175300  1.340724
    C   C44   0.916250  0.701080  0.094620  0.955509
    O   O29   0.776510  0.994370  0.112450  -0.600850
    O   O30   0.924700  0.991730  0.147180  -0.825676
    C   C45   0.793250  0.054400  0.069950  0.848325
    O   O31   0.959250  0.821340  0.195700  -0.511628
    C   C46   0.758950  0.829950  0.202100  1.103287
    O   O32   0.951360  0.936830  0.106540  -0.856006
    C   C47   0.946910  0.913580  0.955920  0.902095
    O   O33   0.851560  0.074620  0.049700  -0.591085
    O   O34   0.808950  0.899520  0.219350  -0.812694
    O   O35   0.795880  0.816230  0.185900  -0.616011
    O   O36   0.897160  0.729060  0.113560  -0.550091
    Co  Co11  0.943310  0.936770  0.665380  1.271263
    C   C48   0.284340  0.067580  0.582030  1.010406
    Co  Co12  0.942340  0.090720  0.664040  1.263583
    C   C49   0.918000  0.758960  0.549800  1.101133
    O   O37   0.970640  0.197660  0.602090  -0.836786
    O   O38   0.984600  0.044710  0.644050  -0.727695
    C   C50   0.937840  0.187090  0.556630  1.134736
    O   O39   0.931500  0.830200  0.670430  -0.528188
    C   C51   0.771260  0.924050  0.638440  1.115630
    O   O40   0.948250  0.140980  0.546900  -0.707545
    O   O41   0.812080  0.009970  0.625250  -0.720428
    O   O42   0.805830  0.891090  0.636490  -0.730703
    O   O43   0.906600  0.988740  0.728320  -0.768605
    O   O44   0.981080  0.934020  0.742910  -0.620911
    O   O45   0.979070  0.824740  0.522690  -0.737880
    O   O46   0.903130  0.773460  0.580420  -0.710854
    C   C52   0.895900  0.862500  0.837620  -0.013648
    C   C53   0.943590  0.928850  0.902610  -0.173887
    C   C54   0.881760  0.856540  0.880010  -0.096377
    N   N15   0.803420  0.777150  0.899450  0.720275
    H   H3    0.846230  0.807550  0.819910  0.113439
    O   O47   0.749850  0.781260  0.906950  -0.366473
    O   O48   0.781980  0.700520  0.906110  -0.383129
    C   C55   0.964040  0.927520  0.350770  -0.210609
    C   C56   0.975720  0.943880  0.393840  0.019579
    H   H4    0.924940  0.893930  0.416210  0.128241
    N   N16   0.882920  0.847470  0.336040  0.685164
    O   O49   0.888790  0.798510  0.326910  -0.338352
    O   O50   0.804040  0.819190  0.336650  -0.357075
    C   C57   0.250520  0.471490  0.695460  -0.408948
    C   C58   0.271050  0.412730  0.734370  0.270247
    C   C59   0.244230  0.339380  0.724790  0.263925
    F   F12   0.269520  0.286470  0.761890  -0.125077
    F   F13   0.320820  0.429080  0.780930  -0.153910
    C   C60   0.539930  0.835820  0.640870  0.304131
    C   C61   0.527280  0.771170  0.686900  -0.355740
    C   C62   0.594190  0.755300  0.716080  0.177736
    C   C63   0.670490  0.800450  0.698300  0.243088
    C   C64   0.682420  0.864070  0.651860  -0.324733
    C   C65   0.616570  0.881500  0.623250  0.120566
    F   F14   0.626180  0.941860  0.577990  -0.094519
    F   F15   0.475470  0.851130  0.611870  -0.161165
    F   F16   0.733840  0.783600  0.726770  -0.129169
    F   F17   0.583480  0.693670  0.760980  -0.118779
    C   C66   0.261320  0.696180  0.714690  -0.361142
    C   C67   0.308880  0.784140  0.715730  0.260850
    C   C68   0.261110  0.813070  0.710960  0.190235
    F   F18   0.306930  0.898450  0.709900  -0.126111
    F   F19   0.400720  0.841740  0.721030  -0.139685
    F   F20   0.257640  0.369180  0.260280  -0.105635
    C   C69   0.550870  0.674120  0.252900  0.225407
    C   C70   0.492380  0.695320  0.212440  -0.404733
    C   C71   0.517150  0.749440  0.165900  0.262991
    C   C72   0.599730  0.782710  0.160140  0.192715
    C   C73   0.661180  0.767000  0.201650  -0.408231
    C   C74   0.634060  0.708530  0.247200  0.298426
    F   F21   0.688100  0.684630  0.285860  -0.155003
    F   F22   0.525560  0.617680  0.297220  -0.146187
    F   F23   0.619830  0.829890  0.114070  -0.132288
    F   F24   0.458830  0.765880  0.125450  -0.159644
    C   C75   0.234880  0.699900  0.229800  0.219382
    C   C76   0.231890  0.680820  0.191120  -0.360898
    F   F25   0.265280  0.668230  0.279020  -0.145996
    C   C77   0.744910  0.195170  0.513120  0.266725
    C   C78   0.794650  0.284820  0.512200  -0.400020
    C   C79   0.884210  0.344610  0.504840  0.306055
    C   C80   0.926840  0.312850  0.506420  0.159476
    C   C81   0.883300  0.221300  0.518800  -0.283146
    C   C82   0.788920  0.164770  0.514770  0.157429
    F   F26   0.741250  0.078540  0.516840  -0.104468
    F   F27   0.654750  0.137360  0.512850  -0.140126
    F   F28   0.930000  0.432940  0.496110  -0.135980
    C   C83   0.822040  0.577800  0.497170  0.295957
    C   C84   0.822300  0.512800  0.541500  -0.357893
    C   C85   0.845980  0.526210  0.588460  0.176701
    C   C86   0.866890  0.602450  0.590840  0.336750
    C   C87   0.867630  0.667920  0.546500  -0.355207
    C   C88   0.842660  0.653800  0.499500  0.070484
    F   F29   0.839770  0.714650  0.455990  -0.063065
    F   F30   0.796790  0.565050  0.451410  -0.142197
    F   F31   0.887940  0.613220  0.636400  -0.153313
    F   F32   0.844730  0.463300  0.631680  -0.143064
    C   C89   0.476150  0.240570  0.514220  0.206425
    C   C90   0.537560  0.217820  0.544040  -0.361470
    C   C91   0.516410  0.146880  0.587090  0.297462
    C   C92   0.436360  0.101150  0.601290  0.141895
    C   C93   0.375480  0.124850  0.571930  -0.384294
    C   C94   0.396200  0.195120  0.528380  0.277599
    F   F33   0.338280  0.218730  0.499390  -0.118501
    F   F34   0.495650  0.308860  0.472290  -0.126185
    F   F35   0.418740  0.034820  0.644080  -0.088132
    F   F36   0.575770  0.125060  0.616660  -0.167409
    C   C95   0.716130  0.206150  0.994210  0.220672
    C   C96   0.718290  0.223170  0.033480  -0.355594
    C   C97   0.750680  0.190170  0.083740  0.265709
    C   C98   0.776310  0.136950  0.095320  0.244637
    C   C99   0.774530  0.119090  0.056360  -0.324490
    C   C100  0.745240  0.155090  0.005620  0.235356
    F   F37   0.741320  0.137900  0.967520  -0.126892
    F   F38   0.684850  0.237840  0.945240  -0.143622
    F   F39   0.799660  0.099860  0.144680  -0.221833
    F   F40   0.753010  0.206030  0.121880  -0.128260
    C   C101  0.738760  0.530210  0.020350  0.221317
    C   C102  0.761030  0.469580  0.046740  -0.348905
    C   C103  0.826340  0.479940  0.093080  0.220147
    C   C104  0.869850  0.550830  0.112240  0.247650
    C   C105  0.849060  0.612550  0.085150  -0.395259
    C   C106  0.780980  0.599890  0.040090  0.223278
    F   F41   0.759450  0.658310  0.013810  -0.109702
    F   F42   0.674960  0.520640  0.975810  -0.117461
    F   F43   0.935500  0.562070  0.156060  -0.146444
    F   F44   0.846010  0.420130  0.120220  -0.140600
    C   C107  0.436150  0.164430  0.065210  0.236219
    C   C108  0.457780  0.202340  0.018250  -0.411640
    C   C109  0.394180  0.208310  0.973650  0.307288
    C   C110  0.309480  0.175800  0.975890  0.076962
    C   C111  0.286470  0.134950  0.022730  -0.288464
    C   C112  0.351660  0.132490  0.067460  0.220865
    F   F45   0.331620  0.095630  0.113120  -0.124583
    F   F46   0.498450  0.161300  0.108780  -0.156771
    F   F47   0.248030  0.180730  0.932320  -0.065314
    F   F48   0.415550  0.247990  0.928120  -0.162751
