# generated using pymatgen
data_Co6H16C38N6O21F4
_symmetry_space_group_name_H-M   'P 1'
_cell_length_a   16.45762000
_cell_length_b   17.55676000
_cell_length_c   38.84913000
_cell_angle_alpha   60.68907000
_cell_angle_beta   119.03090000
_cell_angle_gamma   133.23898000
_symmetry_Int_Tables_number   1
_chemical_formula_structural   Co6H16C38N6O21F4
_chemical_formula_sum   'Co12 H32 C76 N12 O42 F8'
_cell_volume   6929.20966731
_cell_formula_units_Z   2
loop_
 _symmetry_equiv_pos_site_id
 _symmetry_equiv_pos_as_xyz
  1  'x, y, z'
loop_
 _atom_site_type_symbol
 _atom_site_label
 _atom_site_symmetry_multiplicity
 _atom_site_fract_x
 _atom_site_fract_y
 _atom_site_fract_z
 _atom_site_occupancy
  Co  Co1  1  0.10068000  0.01557000  0.04061000  1
  Co  Co2  1  0.15501000  0.86194000  0.04736000  1
  Co  Co3  1  0.04605000  0.05013000  0.51251000  1
  Co  Co4  1  0.09380000  0.89564000  0.51573000  1
  Co  Co5  1  0.03720000  0.88528000  0.58840000  1
  Co  Co6  1  0.02867000  0.81702000  0.10599000  1
  Co  Co7  1  0.00068000  0.07955000  0.06990000  1
  Co  Co8  1  0.98577000  0.13156000  0.55171000  1
  Co  Co9  1  0.96013000  0.95460000  0.62559000  1
  Co  Co10  1  0.92922000  0.88042000  0.13519000  1
  Co  Co11  1  0.87088000  0.03359000  0.12649000  1
  Co  Co12  1  0.88929000  0.09903000  0.61755000  1
  H  H1  1  0.18334000  0.11695000  0.92262000  1
  H  H2  1  0.16955000  0.00007000  0.76166000  1
  H  H3  1  0.16781000  0.06246000  0.26604000  1
  H  H4  1  0.10401000  0.37152000  0.63872000  1
  H  H5  1  0.26921000  0.46345000  0.59059000  1
  H  H6  1  0.62177000  0.78927000  0.68867000  1
  H  H7  1  0.56169000  0.72285000  0.61518000  1
  H  H8  1  0.20672000  0.76510000  0.57501000  1
  H  H9  1  0.31313000  0.82733000  0.65558000  1
  H  H10  1  0.06731000  0.30652000  0.14872000  1
  H  H11  1  0.26752000  0.38988000  0.12082000  1
  H  H12  1  0.52651000  0.64658000  0.12631000  1
  H  H13  1  0.59991000  0.74267000  0.19296000  1
  H  H14  1  0.11726000  0.60670000  0.15422000  1
  H  H15  1  0.36680000  0.79090000  0.18137000  1
  H  H16  1  0.63393000  0.11469000  0.54925000  1
  H  H17  1  0.42283000  0.30257000  0.51936000  1
  H  H18  1  0.36205000  0.19555000  0.45934000  1
  H  H19  1  0.42072000  0.15986000  0.98384000  1
  H  H20  1  0.49078000  0.24007000  0.05502000  1
  H  H21  1  0.64447000  0.08081000  0.01203000  1
  H  H22  1  0.99301000  0.09799000  0.38236000  1
  H  H23  1  0.76914000  0.50301000  0.06097000  1
  H  H24  1  0.93578000  0.57080000  0.54183000  1
  H  H25  1  0.76088000  0.53906000  0.56806000  1
  H  H26  1  0.81100000  0.74797000  0.36169000  1
  H  H27  1  0.87893000  0.81118000  0.85654000  1
  H  H28  1  0.89626000  0.00021000  0.78368000  1
  H  H29  1  0.77493000  0.78463000  0.28984000  1
  H  H30  1  0.78672000  0.27068000  0.48811000  1
  H  H31  1  0.88369000  0.28813000  0.00181000  1
  H  H32  1  0.96471000  0.57205000  0.03326000  1
  C  C1  1  0.60293000  0.26528000  0.01245000  1
  C  C2  1  0.55235000  0.31692000  0.50774000  1
  C  C3  1  0.25949000  0.59892000  0.16890000  1
  C  C4  1  0.23208000  0.46623000  0.15429000  1
  C  C5  1  0.41831000  0.62193000  0.16892000  1
  C  C6  1  0.28627000  0.69256000  0.63000000  1
  C  C7  1  0.44335000  0.68484000  0.65640000  1
  C  C8  1  0.25894000  0.53953000  0.63276000  1
  C  C9  1  0.32730000  0.10203000  0.03815000  1
  C  C10  1  0.09313000  0.23974000  0.10907000  1
  C  C11  1  0.70207000  0.79042000  0.14237000  1
  C  C12  1  0.23847000  0.82060000  0.13653000  1
  C  C13  1  0.24254000  0.13425000  0.48818000  1
  C  C14  1  0.04189000  0.05564000  0.69096000  1
  C  C15  1  0.09753000  0.30537000  0.58837000  1
  C  C16  1  0.24588000  0.90895000  0.59773000  1
  C  C17  1  0.12245000  0.05843000  0.87164000  1
  C  C18  1  0.11554000  0.05094000  0.90787000  1
  C  C19  1  0.11094000  0.98221000  0.80597000  1
  C  C20  1  0.10863000  0.99844000  0.76637000  1
  C  C21  1  0.03112000  0.01744000  0.73297000  1
  C  C22  1  0.18052000  0.42989000  0.62684000  1
  C  C23  1  0.19188000  0.40658000  0.60188000  1
  C  C24  1  0.56810000  0.74618000  0.66490000  1
  C  C25  1  0.61498000  0.76774000  0.63836000  1
  C  C26  1  0.24966000  0.76377000  0.60688000  1
  C  C27  1  0.27511000  0.83174000  0.62329000  1
  C  C28  1  0.15321000  0.36173000  0.14366000  1
  C  C29  1  0.18104000  0.33732000  0.12495000  1
  C  C30  1  0.58287000  0.70088000  0.14622000  1
  C  C31  1  0.54224000  0.69010000  0.17232000  1
  C  C32  1  0.20966000  0.64828000  0.16541000  1
  C  C33  1  0.27614000  0.75180000  0.16647000  1
  C  C34  1  0.43598000  0.28006000  0.50192000  1
  C  C35  1  0.34621000  0.20724000  0.47992000  1
  C  C36  1  0.47875000  0.20392000  0.00746000  1
  C  C37  1  0.43644000  0.18624000  0.03504000  1
  C  C38  1  0.03829000  0.97114000  0.85333000  1
  C  C39  1  0.03515000  0.98438000  0.81221000  1
  C  C40  1  0.08320000  0.99919000  0.27220000  1
  C  C41  1  0.06029000  0.99233000  0.30438000  1
  C  C42  1  0.73485000  0.12937000  0.01287000  1
  C  C43  1  0.67296000  0.27628000  0.51728000  1
  C  C44  1  0.68265000  0.18966000  0.52813000  1
  C  C45  1  0.03485000  0.93664000  0.96897000  1
  C  C46  1  0.02474000  0.95622000  0.92614000  1
  C  C47  1  0.00010000  0.96700000  0.20381000  1
  C  C48  1  0.75234000  0.28700000  0.00513000  1
  C  C49  1  0.94969000  0.02141000  0.37706000  1
  C  C50  1  0.95338000  0.01618000  0.73979000  1
  C  C51  1  0.96054000  0.01994000  0.34374000  1
  C  C52  1  0.73689000  0.85455000  0.63863000  1
  C  C53  1  0.75178000  0.43494000  0.53099000  1
  C  C54  1  0.99492000  0.92955000  0.24629000  1
  C  C55  1  0.79373000  0.41742000  0.02634000  1
  C  C56  1  0.86181000  0.84355000  0.28575000  1
  C  C57  1  0.94693000  0.92006000  0.30921000  1
  C  C58  1  0.88813000  0.84440000  0.25626000  1
  C  C59  1  0.85547000  0.55186000  0.05733000  1
  C  C60  1  0.94065000  0.64726000  0.07058000  1
  C  C61  1  0.78925000  0.08290000  0.03742000  1
  C  C62  1  0.92822000  0.68838000  0.56455000  1
  C  C63  1  0.92205000  0.92460000  0.44775000  1
  C  C64  1  0.78313000  0.13570000  0.53109000  1
  C  C65  1  0.94598000  0.87772000  0.87103000  1
  C  C66  1  0.93852000  0.87059000  0.90697000  1
  C  C67  1  0.95532000  0.99916000  0.77906000  1
  C  C68  1  0.91777000  0.92172000  0.33963000  1
  C  C69  1  0.89057000  0.92445000  0.40509000  1
  C  C70  1  0.82912000  0.82615000  0.39607000  1
  C  C71  1  0.84781000  0.82461000  0.36504000  1
  C  C72  1  0.75106000  0.20213000  0.51323000  1
  C  C73  1  0.85226000  0.53449000  0.54455000  1
  C  C74  1  0.84085000  0.58278000  0.56042000  1
  C  C75  1  0.79432000  0.23756000  0.00279000  1
  C  C76  1  0.87937000  0.52089000  0.03823000  1
  N  N1  1  0.63910000  0.23084000  0.00213000  1
  N  N2  1  0.68027000  0.35910000  0.02447000  1
  N  N3  1  0.56691000  0.25156000  0.50604000  1
  N  N4  1  0.18875000  0.50257000  0.15952000  1
  N  N5  1  0.34710000  0.52620000  0.15891000  1
  N  N6  1  0.37453000  0.65713000  0.17449000  1
  N  N7  1  0.39874000  0.73574000  0.64831000  1
  N  N8  1  0.37322000  0.58624000  0.64865000  1
  N  N9  1  0.21590000  0.59294000  0.62341000  1
  N  N10  1  0.64475000  0.40803000  0.52057000  1
  N  N11  1  0.82900000  0.38124000  0.01647000  1
  N  N12  1  0.76592000  0.36939000  0.52908000  1
  O  O1  1  0.08742000  0.13175000  0.03095000  1
  O  O2  1  0.27347000  0.87826000  0.10262000  1
  O  O3  1  0.17891000  0.83146000  0.14518000  1
  O  O4  1  0.12340000  0.19678000  0.10209000  1
  O  O5  1  0.08102000  0.89586000  0.06412000  1
  O  O6  1  0.26886000  0.02384000  0.02068000  1
  O  O7  1  0.27702000  0.10010000  0.05691000  1
  O  O8  1  0.02933000  0.13215000  0.66584000  1
  O  O9  1  0.03833000  0.16835000  0.50467000  1
  O  O10  1  0.06108000  0.01217000  0.67846000  1
  O  O11  1  0.24734000  0.94790000  0.55909000  1
  O  O12  1  0.20393000  0.92721000  0.61217000  1
  O  O13  1  0.11920000  0.26373000  0.57619000  1
  O  O14  1  0.04582000  0.94041000  0.53969000  1
  O  O15  1  0.17021000  0.04611000  0.47534000  1
  O  O16  1  0.21544000  0.14532000  0.51146000  1
  O  O17  1  0.02406000  0.74289000  0.55452000  1
  O  O18  1  0.00663000  0.86073000  0.63862000  1
  O  O19  1  0.04720000  0.00480000  0.98063000  1
  O  O20  1  0.04883000  0.69773000  0.07252000  1
  O  O21  1  0.02984000  0.85039000  0.99479000  1
  O  O22  1  0.01942000  0.92474000  0.19064000  1
  O  O23  1  0.99095000  0.25922000  0.58698000  1
  O  O24  1  0.75436000  0.77850000  0.13034000  1
  O  O25  1  0.96745000  0.98162000  0.56372000  1
  O  O26  1  0.75579000  0.01126000  0.07093000  1
  O  O27  1  0.75831000  0.87515000  0.15557000  1
  O  O28  1  0.94819000  0.00502000  0.45657000  1
  O  O29  1  0.94052000  0.05336000  0.59541000  1
  O  O30  1  0.93677000  0.85093000  0.47636000  1
  O  O31  1  0.99400000  0.04856000  0.18018000  1
  O  O32  1  0.98372000  0.19606000  0.10145000  1
  O  O33  1  0.93111000  0.99096000  0.10745000  1
  O  O34  1  0.95600000  0.77164000  0.14823000  1
  O  O35  1  0.97569000  0.92848000  0.07823000  1
  O  O36  1  0.88266000  0.11771000  0.03005000  1
  O  O37  1  0.91344000  0.67694000  0.08628000  1
  O  O38  1  0.78986000  0.94018000  0.65079000  1
  O  O39  1  0.79450000  0.83793000  0.63218000  1
  O  O40  1  0.75899000  0.06657000  0.56600000  1
  O  O41  1  0.85318000  0.15169000  0.51654000  1
  O  O42  1  0.91722000  0.72887000  0.58170000  1
  F  F1  1  0.21030000  0.15072000  0.85416000  1
  F  F2  1  0.18750000  0.96598000  0.83804000  1
  F  F3  1  0.14771000  0.05597000  0.33056000  1
  F  F4  1  0.01356000  0.11359000  0.31592000  1
  F  F5  1  0.76060000  0.73141000  0.42015000  1
  F  F6  1  0.80727000  0.76634000  0.23555000  1
  F  F7  1  0.84907000  0.77910000  0.92386000  1
  F  F8  1  0.87989000  0.03738000  0.70809000  1
