# Generated by REPEAT Assigner based on pymatgen
data_DB7-ddmof_4805
_audit_creation_date              2022-05-24
_audit_creation_method            REPEAT_Assigner
_cell_length_a                    20.414140
_cell_length_b                    21.277130
_cell_length_c                    38.726580
_cell_angle_alpha                 60.732400
_cell_angle_beta                  118.988270
_cell_angle_gamma                 133.362400
_cell_volume                      10369.805448
_symmetry_space_group_name_H-M    P1
_symmetry_Int_Tables_number       1
loop_
    _symmetry_equiv_pos_site_id
    _symmetry_equiv_pos_as_xyz
    1  x,y,z
loop_
    _atom_site_type_symbol
    _atom_site_label
    _atom_site_fract_x
    _atom_site_fract_y
    _atom_site_fract_z
    _atom_type_partial_charge
    H   H1    0.162570  0.484380  0.199130  0.223651
    H   H2    0.184220  0.508320  0.686060  0.224301
    Co  Co1   0.072370  0.012030  0.051380  1.251171
    Co  Co2   0.115610  0.883790  0.057660  1.307500
    C   C1    0.253990  0.079580  0.046400  1.094029
    O   O1    0.062490  0.108070  0.042870  -0.524161
    C   C2    0.055520  0.164700  0.141540  0.988231
    C   C3    0.171180  0.832050  0.147180  0.975065
    O   O2    0.204800  0.892990  0.114760  -0.694254
    O   O3    0.105360  0.818260  0.155610  -0.607179
    O   O4    0.074060  0.164730  0.112590  -0.622661
    O   O5    0.064620  0.916450  0.076970  -0.727795
    O   O6    0.203860  0.014510  0.029380  -0.843625
    O   O7    0.214720  0.092510  0.058570  -0.623598
    Co  Co3   0.019680  0.106250  0.574470  1.283068
    Co  Co4   0.096930  0.054390  0.542640  1.223462
    Co  Co5   0.117520  0.919490  0.538880  1.316372
    C   C4    0.281000  0.092090  0.556030  0.991893
    O   O8    0.053190  0.088280  0.686390  -0.621473
    C   C5    0.042260  0.014540  0.711920  0.736672
    O   O9    0.087790  0.150390  0.534380  -0.551864
    C   C6    0.107890  0.246930  0.612430  1.074783
    C   C7    0.130150  0.814990  0.625450  1.039652
    O   O10   0.029040  0.957230  0.699200  -0.597988
    O   O11   0.102440  0.811950  0.587660  -0.823492
    O   O12   0.113780  0.853700  0.635420  -0.669995
    O   O13   0.022750  0.209030  0.610690  -0.807294
    O   O14   0.126650  0.207220  0.604950  -0.666234
    O   O15   0.069120  0.950150  0.560620  -0.767176
    O   O16   0.247970  0.007480  0.568430  -0.676175
    O   O17   0.240590  0.118880  0.558440  -0.671347
    C   C8    0.067120  0.029420  0.880970  -0.046047
    C   C9    0.058750  0.032900  0.914060  0.014900
    C   C10   0.115790  0.116960  0.924180  0.335100
    C   C11   0.051510  0.931270  0.826290  0.006118
    C   C12   0.060320  0.945970  0.788330  0.007664
    C   C13   0.022380  0.986500  0.751760  -0.068548
    C   C14   0.095010  0.894860  0.863920  0.336966
    C   C15   0.112240  0.923690  0.787290  0.340454
    C   C16   0.142390  0.107000  0.861060  0.329635
    N   N1    0.153740  0.905880  0.786500  -0.334701
    N   N2    0.129720  0.865780  0.894010  -0.369455
    N   N3    0.160780  0.184360  0.931980  -0.332566
    N   N4    0.202430  0.168870  0.845120  -0.371149
    C   C17   0.096080  0.072650  0.366020  -0.072494
    C   C18   0.111560  0.097400  0.398500  0.078974
    C   C19   0.198410  0.178740  0.409700  0.381118
    C   C20   0.031990  0.872700  0.357360  0.346948
    C   C21   0.169520  0.124960  0.345690  0.338339
    N   N5    0.059860  0.839590  0.388720  -0.370874
    N   N6    0.267700  0.243700  0.418630  -0.393630
    N   N7    0.228040  0.166660  0.329410  -0.354268
    C   C22   0.205880  0.465830  0.617450  0.274085
    C   C23   0.178140  0.404290  0.600180  0.133293
    C   C24   0.180810  0.330790  0.625050  -0.289461
    C   C25   0.224660  0.327220  0.666600  0.159341
    F   F1    0.139680  0.410940  0.559610  -0.130422
    F   F2    0.199850  0.534880  0.593040  -0.151200
    C   C26   0.250540  0.793940  0.679170  0.174439
    C   C27   0.158040  0.756090  0.656790  -0.252739
    C   C28   0.105130  0.670100  0.651960  0.138353
    C   C29   0.149300  0.636590  0.656540  0.248557
    F   F3    0.301610  0.873260  0.687750  -0.128351
    F   F4    0.101650  0.569880  0.638820  -0.153291
    C   C30   0.107470  0.248490  0.151790  -0.391393
    C   C31   0.149720  0.253290  0.192710  0.228361
    C   C32   0.185560  0.326910  0.203890  0.184233
    F   F5    0.230960  0.333320  0.243040  -0.139574
    F   F6    0.156040  0.186520  0.221610  -0.145957
    C   C33   0.126430  0.679430  0.165540  0.327628
    C   C34   0.194230  0.767540  0.169620  -0.403412
    C   C35   0.287250  0.798220  0.186080  0.253161
    C   C36   0.152310  0.631390  0.167460  0.132490
    F   F7    0.086900  0.556780  0.153150  -0.130702
    F   F8    0.035380  0.641890  0.157790  -0.160885
    F   F9    0.353410  0.880710  0.193330  -0.136088
    C   C37   0.277390  0.620180  0.178780  0.447161
    C   C38   0.249150  0.486600  0.181240  0.389096
    C   C39   0.224000  0.526220  0.187880  -0.451381
    C   C40   0.296240  0.650600  0.676030  0.437314
    C   C41   0.297200  0.537210  0.674870  0.418650
    C   C42   0.252490  0.560120  0.679870  -0.448876
    C   C43   0.253820  0.389560  0.683950  0.220594
    C   C44   0.243440  0.458680  0.659530  -0.284977
    F   F10   0.232920  0.259500  0.690740  -0.115911
    F   F11   0.294420  0.384270  0.724310  -0.153561
    C   C45   0.244700  0.678540  0.675380  -0.292381
    C   C46   0.292430  0.752770  0.690250  0.195118
    F   F12   0.379150  0.785630  0.714720  -0.126876
    C   C47   0.096700  0.315450  0.122710  0.212923
    C   C48   0.179910  0.396560  0.174260  -0.210668
    C   C49   0.130390  0.387750  0.134120  0.200088
    F   F13   0.121930  0.453420  0.105410  -0.147307
    F   F14   0.051740  0.309440  0.083470  -0.122551
    C   C50   0.312470  0.744530  0.194120  0.150599
    C   C51   0.246520  0.664270  0.181340  -0.243833
    C   C52   0.356380  0.155470  0.534690  -0.394213
    C   C53   0.354600  0.131710  0.505860  0.329978
    F   F15   0.288960  0.047760  0.500390  -0.228082
    C   C54   0.373420  0.219640  0.010440  0.274393
    C   C55   0.350950  0.146580  0.044380  -0.366626
    F   F16   0.324740  0.254070  0.992410  -0.142442
    C   C56   0.358080  0.672460  0.164950  -0.521362
    C   C57   0.334490  0.538770  0.172330  -0.462923
    C   C58   0.387100  0.715380  0.669660  -0.521256
    C   C59   0.390590  0.599570  0.674670  -0.478004
    O   O18   0.019400  0.961480  0.105530  -0.844803
    C   C60   0.011460  0.941940  0.980100  0.911862
    O   O19   0.015990  0.874400  0.004280  -0.697989
    O   O20   0.030020  0.749680  0.081900  -0.859896
    C   C61   0.074400  0.036290  0.465050  0.740914
    O   O21   0.137630  0.022490  0.487130  -0.633069
    O   O22   0.041590  0.047710  0.481880  -0.526494
    C   C62   0.009070  0.996820  0.353350  0.111243
    C   C63   0.043510  0.041910  0.420910  -0.203767
    H   H3    0.355210  0.507460  0.168700  0.199662
    Co  Co6   0.003800  0.839520  0.112980  1.237699
    O   O23   0.003650  0.982960  0.993750  -0.688816
    C   C64   0.387850  0.631380  0.163090  0.542974
    C   C65   0.001850  0.950430  0.867110  0.033396
    F   F17   0.012690  0.626650  0.635500  -0.107054
    Co  Co7   0.009870  0.872540  0.597120  1.278176
    F   F18   0.392720  0.053060  0.100480  -0.108363
    F   F19   0.395870  0.730230  0.081420  -0.155583
    H   H4    0.396460  0.744400  0.154990  0.228480
    C   C66   0.000440  0.952310  0.827510  0.014578
    O   O24   0.989530  0.091810  0.160630  -0.693240
    Co  Co8   0.991570  0.063680  0.081950  1.257684
    C   C67   0.988810  0.977180  0.315630  0.009831
    C   C68   0.997040  0.914210  0.318120  0.013706
    C   C69   0.960760  0.092350  0.274100  0.372586
    N   N8    0.963540  0.150730  0.271390  -0.390169
    C   C70   0.970690  0.891310  0.282390  -0.038270
    C   C71   0.979370  0.826660  0.285290  0.344958
    N   N9    0.986320  0.775010  0.287650  -0.341119
    H   H5    0.419660  0.785700  0.663270  0.220583
    C   C72   0.957440  0.019160  0.277530  -0.032543
    F   F20   0.400990  0.771270  0.213480  -0.124749
    F   F21   0.415530  0.173990  0.453180  -0.150438
    C   C73   0.409810  0.119810  0.065930  0.145287
    O   O25   0.826890  0.900420  0.178990  -0.732685
    C   C74   0.894310  0.897600  0.206880  0.736622
    O   O26   0.942350  0.890990  0.196810  -0.522668
    C   C75   0.931570  0.928110  0.244380  -0.026587
    C   C76   0.433320  0.236960  0.544870  0.230496
    F   F22   0.437390  0.259590  0.573480  -0.115418
    C   C77   0.710260  0.279570  0.006750  0.462605
    C   C78   0.615580  0.243550  0.996510  -0.459344
    C   C79   0.588910  0.279520  0.004900  0.380890
    C   C80   0.655560  0.361200  0.014960  -0.448631
    C   C81   0.748950  0.396930  0.026490  0.540789
    C   C82   0.777280  0.355980  0.022950  -0.545110
    H   H6    0.562830  0.185890  0.983730  0.220786
    H   H7    0.634220  0.392100  0.018480  0.180432
    H   H8    0.849770  0.382020  0.033300  0.231394
    C   C83   0.717470  0.314530  0.498970  0.569618
    C   C84   0.780830  0.401860  0.504640  -0.592567
    C   C85   0.747820  0.450210  0.495090  0.570759
    C   C86   0.653150  0.411510  0.479930  -0.516254
    C   C87   0.590910  0.319750  0.484570  0.456546
    C   C88   0.621720  0.274370  0.488060  -0.549521
    H   H9    0.853960  0.430560  0.517480  0.245258
    H   H10   0.627990  0.449420  0.471830  0.221537
    H   H11   0.571950  0.206450  0.484950  0.233539
    C   C89   0.434740  0.688800  0.670460  0.534903
    H   H12   0.426600  0.580330  0.673390  0.194241
    Co  Co9   0.906020  0.883420  0.137150  1.249975
    C   C90   0.941510  0.709080  0.074470  1.210747
    Co  Co10  0.859070  0.008260  0.129210  1.345771
    O   O27   0.926280  0.984540  0.115740  -0.775189
    O   O28   0.923570  0.790980  0.148620  -0.520110
    C   C91   0.709810  0.837020  0.106610  1.077008
    O   O29   0.739570  0.920780  0.094990  -0.713483
    O   O30   0.762440  0.815370  0.111730  -0.692966
    C   C92   0.863560  0.115700  0.044370  1.057700
    O   O31   0.883480  0.118710  0.081110  -0.770797
    O   O32   0.886720  0.077990  0.038030  -0.681797
    O   O33   0.911470  0.740950  0.080520  -0.701407
    Co  Co11  0.960400  0.936550  0.639050  1.212714
    C   C93   0.921310  0.766270  0.534920  1.113487
    Co  Co12  0.941900  0.076990  0.639540  1.320719
    O   O34   0.972550  0.034910  0.614830  -0.751157
    O   O35   0.955750  0.834670  0.642080  -0.536912
    O   O36   0.996710  0.981550  0.580730  -0.838059
    C   C94   0.794890  0.882120  0.652800  0.997665
    O   O37   0.855990  0.947680  0.670600  -0.742229
    O   O38   0.821030  0.865090  0.635260  -0.577069
    C   C95   0.856130  0.114380  0.552290  0.973373
    O   O39   0.837330  0.060600  0.588060  -0.680355
    O   O40   0.917330  0.130610  0.538930  -0.627238
    O   O41   0.980800  0.838140  0.512650  -0.754205
    O   O42   0.912210  0.769800  0.565960  -0.630663
    C   C96   0.927150  0.876300  0.885940  -0.037565
    C   C97   0.919000  0.881110  0.918640  -0.024887
    C   C98   0.990800  0.955540  0.935670  -0.065567
    C   C99   0.858820  0.795440  0.871620  0.359097
    C   C100  0.972410  0.008650  0.753900  0.038647
    C   C101  0.954080  0.982760  0.791000  -0.044084
    C   C102  0.947180  0.065000  0.719270  0.386117
    C   C103  0.890210  0.991390  0.791790  0.382040
    C   C104  0.836270  0.810480  0.934380  0.415832
    N   N10   0.926950  0.110190  0.691980  -0.431072
    N   N11   0.839290  0.998200  0.792470  -0.381084
    N   N12   0.804320  0.730920  0.860160  -0.366420
    N   N13   0.770200  0.754090  0.946970  -0.384412
    C   C105  0.936760  0.948510  0.372280  -0.134367
    C   C106  0.953470  0.973010  0.405250  0.105529
    C   C107  0.845690  0.873460  0.358040  0.334256
    C   C108  0.920700  0.989200  0.242880  0.011033
    C   C109  0.865810  0.016200  0.207050  0.418313
    C   C110  0.878420  0.927060  0.423220  0.409097
    N   N14   0.822020  0.038010  0.178690  -0.446678
    N   N15   0.773030  0.813530  0.346650  -0.365142
    N   N16   0.818500  0.890360  0.437610  -0.394743
    C   C111  0.544760  0.785880  0.626440  0.123719
    C   C112  0.530010  0.753830  0.665320  -0.227554
    C   C113  0.601950  0.759970  0.699810  0.203022
    C   C114  0.684900  0.791080  0.695800  0.234663
    C   C115  0.699620  0.822460  0.657000  -0.442628
    C   C116  0.628770  0.819010  0.622340  0.300663
    F   F23   0.642610  0.850750  0.584610  -0.143855
    F   F24   0.475580  0.780200  0.592780  -0.142712
    F   F25   0.753010  0.794330  0.729640  -0.136911
    F   F26   0.588740  0.729590  0.737540  -0.158978
    C   C117  0.617560  0.717070  0.158090  0.287466
    C   C118  0.620160  0.767520  0.117620  -0.394132
    C   C119  0.543600  0.769150  0.091570  0.205906
    C   C120  0.469620  0.728430  0.106890  0.228745
    C   C121  0.471010  0.684690  0.148280  -0.318570
    C   C122  0.544810  0.678190  0.173690  0.180722
    F   F27   0.545430  0.633460  0.213480  -0.152375
    F   F28   0.688450  0.710270  0.182990  -0.146291
    F   F29   0.542620  0.813030  0.051700  -0.134317
    C   C123  0.701840  0.170920  0.530070  0.271721
    C   C124  0.749940  0.261250  0.508730  -0.313786
    C   C125  0.825640  0.298650  0.495050  0.152796
    C   C126  0.857040  0.248280  0.505770  0.312339
    C   C127  0.808560  0.158150  0.527420  -0.362453
    C   C128  0.724970  0.118230  0.535110  0.133491
    F   F30   0.671290  0.029200  0.551770  -0.085234
    F   F31   0.636040  0.135360  0.547880  -0.178469
    F   F32   0.936020  0.287940  0.496400  -0.140830
    F   F33   0.869030  0.383460  0.471750  -0.138631
    C   C129  0.843610  0.602330  0.554970  0.316072
    C   C130  0.863280  0.680950  0.524200  -0.474162
    C   C131  0.849200  0.682950  0.484370  0.187533
    C   C132  0.826810  0.612050  0.476570  0.199445
    C   C133  0.807850  0.533840  0.507230  -0.243433
    C   C134  0.818470  0.530020  0.546800  0.166351
    F   F34   0.798240  0.453860  0.576630  -0.146244
    F   F35   0.846960  0.595200  0.592490  -0.143558
    F   F36   0.815670  0.616300  0.438130  -0.164107
    F   F37   0.859480  0.754970  0.453300  -0.071127
    C   C135  0.424690  0.192380  0.484900  0.200437
    C   C136  0.505890  0.269700  0.497850  -0.216874
    C   C137  0.509600  0.291960  0.528090  0.153177
    F   F38   0.588800  0.363710  0.542930  -0.128994
    C   C138  0.685700  0.139010  0.015060  0.249059
    C   C139  0.738180  0.233100  0.003600  -0.297560
    C   C140  0.818490  0.282350  0.990090  0.222314
    C   C141  0.853250  0.239300  0.994580  0.165164
    C   C142  0.807250  0.146940  0.011960  -0.233236
    C   C143  0.716070  0.096950  0.014680  0.073685
    F   F39   0.663960  0.006620  0.024990  -0.062517
    F   F40   0.610450  0.088740  0.030060  -0.150735
    F   F41   0.937080  0.288750  0.986840  -0.147585
    F   F42   0.863770  0.371520  0.973510  -0.132083
    C   C144  0.883690  0.634790  0.022920  0.211087
    C   C145  0.877740  0.627850  0.059580  -0.349596
    C   C146  0.839750  0.544360  0.087540  0.191732
    C   C147  0.811620  0.470150  0.079670  0.207157
    C   C148  0.815480  0.477100  0.042500  -0.251443
    C   C149  0.855050  0.560680  0.015030  0.165506
    F   F43   0.859980  0.568950  0.979150  -0.139855
    F   F44   0.923370  0.715000  0.996120  -0.129221
    F   F45   0.774210  0.389760  0.106890  -0.154873
    F   F46   0.834270  0.535990  0.123290  -0.138885
    C   C150  0.481100  0.155950  0.050150  0.219219
    C   C151  0.498040  0.223350  0.013800  -0.223662
    C   C152  0.442970  0.254450  0.993820  0.157864
    F   F47   0.536800  0.128540  0.071200  -0.133333
    F   F48   0.460470  0.321900  0.959500  -0.127766
