# Generated by REPEAT Assigner based on pymatgen
data_DB7-ddmof_5250
_audit_creation_date              2022-05-24
_audit_creation_method            REPEAT_Assigner
_cell_length_a                    19.894630
_cell_length_b                    21.376340
_cell_length_c                    36.232450
_cell_angle_alpha                 60.690750
_cell_angle_beta                  119.020820
_cell_angle_gamma                 133.257290
_cell_volume                      9509.769390
_symmetry_space_group_name_H-M    P1
_symmetry_Int_Tables_number       1
loop_
    _symmetry_equiv_pos_site_id
    _symmetry_equiv_pos_as_xyz
    1  x,y,z
loop_
    _atom_site_type_symbol
    _atom_site_label
    _atom_site_fract_x
    _atom_site_fract_y
    _atom_site_fract_z
    _atom_type_partial_charge
    C   C1    0.299380  0.624860  0.201720  0.912745
    C   C2    0.440500  0.654810  0.205570  0.827352
    C   C3    0.296740  0.514800  0.199220  1.211057
    C   C4    0.225520  0.618880  0.664160  0.876253
    C   C5    0.234860  0.529160  0.649300  0.948719
    C   C6    0.355950  0.681910  0.640050  0.837889
    C   C7    0.242480  0.091180  0.022040  0.775601
    C   C8    0.121600  0.210390  0.147880  0.692188
    C   C9    0.188320  0.854330  0.138060  0.679259
    C   C10   0.245740  0.013530  0.577590  0.874913
    C   C11   0.125090  0.200080  0.653200  0.928871
    C   C12   0.046700  0.748810  0.635770  1.213904
    C   C13   0.048730  0.025080  0.821020  -0.032694
    C   C14   0.046380  0.017140  0.783870  -0.315578
    C   C15   0.200760  0.441380  0.650420  -0.215585
    C   C16   0.190160  0.429310  0.612590  -0.118177
    C   C17   0.185080  0.358850  0.614690  0.265519
    C   C18   0.178480  0.292950  0.653920  -0.038016
    C   C19   0.195270  0.308040  0.692210  -0.374619
    C   C20   0.204790  0.380650  0.690600  0.341347
    C   C21   0.175520  0.631000  0.677870  -0.195050
    C   C22   0.228270  0.708670  0.691170  -0.091685
    C   C23   0.183190  0.742660  0.686290  0.110454
    C   C24   0.084520  0.697520  0.669280  -0.184197
    C   C25   0.031010  0.609040  0.668440  -0.038355
    C   C26   0.074990  0.577000  0.669960  0.187453
    C   C27   0.184340  0.297270  0.157480  -0.094379
    C   C28   0.167780  0.361390  0.128300  -0.146721
    C   C29   0.197320  0.429140  0.142370  0.256631
    C   C30   0.244630  0.433450  0.186310  -0.214115
    C   C31   0.263990  0.371030  0.215000  -0.197754
    C   C32   0.237010  0.305190  0.200510  0.211868
    C   C33   0.207480  0.787260  0.154440  -0.064822
    C   C34   0.224050  0.748390  0.199370  -0.157008
    C   C35   0.247510  0.689070  0.215620  0.162161
    C   C36   0.248990  0.664090  0.186600  -0.085993
    C   C37   0.222850  0.695460  0.141850  -0.237552
    C   C38   0.209270  0.761200  0.125490  0.274528
    C   C39   0.341130  0.068440  0.570890  -0.072137
    C   C40   0.350920  0.063860  0.536620  -0.198421
    C   C41   0.440170  0.116880  0.528410  0.208425
    C   C42   0.521020  0.175100  0.554860  -0.066626
    C   C43   0.512260  0.172790  0.591810  -0.230499
    C   C44   0.422740  0.120360  0.599770  0.188836
    C   C45   0.510980  0.254720  0.995980  -0.323302
    C   C46   0.432820  0.245030  0.961360  -0.108577
    C   C47   0.345630  0.199820  0.969550  0.218293
    C   C48   0.336120  0.162650  0.012850  -0.061027
    C   C49   0.415660  0.176930  0.047330  -0.186747
    C   C50   0.502400  0.221140  0.039260  0.323390
    C   C51   0.456170  0.752070  0.639320  0.050308
    C   C52   0.063840  0.000880  0.467510  0.815443
    C   C53   0.106410  0.054370  0.362250  -0.112778
    C   C54   0.115140  0.069210  0.398760  -0.153827
    C   C55   0.482670  0.821430  0.601690  0.119310
    C   C56   0.022600  0.979860  0.346390  0.172646
    C   C57   0.011610  0.966130  0.307220  -0.015922
    C   C58   0.040320  0.009460  0.420150  -0.003488
    C   C59   0.525990  0.721910  0.188520  -0.143966
    C   C60   0.516950  0.767600  0.144530  -0.061338
    C   C61   0.523460  0.738040  0.672390  -0.272131
    C   C62   0.604760  0.314580  0.987230  1.010258
    C   C63   0.607270  0.251700  0.538770  0.903821
    C   C64   0.573920  0.871540  0.596150  -0.140936
    C   C65   0.608370  0.724430  0.211820  0.225478
    C   C66   0.587160  0.812590  0.123260  0.083855
    C   C67   0.613510  0.786040  0.666490  0.325392
    C   C68   0.638810  0.852550  0.627810  -0.265904
    C   C69   0.670610  0.817020  0.146750  -0.081522
    C   C70   0.679730  0.771150  0.190750  -0.127935
    C   C71   0.717540  0.406080  0.519140  0.941219
    C   C72   0.724080  0.180760  0.022760  0.064782
    C   C73   0.737360  0.320740  0.000940  0.767614
    C   C74   0.740350  0.312480  0.517720  0.954395
    C   C75   0.735050  0.907190  0.621980  0.995847
    C   C76   0.745010  0.222530  0.495080  -0.177769
    C   C77   0.757360  0.436340  0.009160  0.892550
    C   C78   0.754820  0.882620  0.128680  1.009803
    C   C79   0.763350  0.560850  0.484420  0.092266
    C   C80   0.757620  0.492660  0.522230  -0.022877
    C   C81   0.756340  0.138060  0.024270  -0.129812
    C   C82   0.995510  0.955800  0.272720  -0.282469
    C   C83   0.975550  0.936870  0.770690  0.039877
    C   C84   0.981460  0.952420  0.846030  0.137981
    C   C85   0.984670  0.959410  0.885380  0.000209
    C   C86   0.942430  0.940660  0.723290  0.994907
    C   C87   0.937230  0.721760  0.075520  0.944392
    C   C88   0.905600  0.154450  0.052120  0.885571
    C   C89   0.994130  0.942360  0.965610  1.057950
    C   C90   0.962380  0.947640  0.228340  0.964345
    C   C91   0.854900  0.733240  0.532490  0.905652
    C   C92   0.927370  0.181700  0.553530  1.066159
    C   C93   0.987680  0.958080  0.920300  -0.278333
    C   C94   0.914200  0.862300  0.798220  -0.164905
    C   C95   0.916450  0.870200  0.835310  -0.120286
    C   C96   0.954060  0.938630  0.402100  -0.200588
    C   C97   0.945480  0.923610  0.365710  -0.128162
    C   C98   0.794760  0.298920  0.508670  -0.168098
    C   C99   0.792030  0.188930  0.501960  0.220799
    C   C100  0.890050  0.233700  0.520990  -0.182436
    C   C101  0.942040  0.320660  0.523520  -0.137121
    C   C102  0.895440  0.351210  0.520690  0.206999
    C   C103  0.796340  0.643070  0.526820  -0.212342
    C   C104  0.781750  0.635060  0.486800  -0.113770
    C   C105  0.768050  0.498980  0.561740  -0.223138
    C   C106  0.780370  0.570330  0.563460  0.381002
    C   C107  0.847940  0.187160  0.019580  -0.073087
    C   C108  0.775500  0.274430  0.007390  -0.048998
    C   C109  0.859000  0.322420  0.994490  -0.190225
    C   C110  0.894740  0.278950  0.000140  0.186689
    C   C111  0.814470  0.514900  0.026030  -0.056151
    C   C112  0.795470  0.578630  0.001090  -0.354584
    C   C113  0.814650  0.633600  0.020620  0.233278
    C   C114  0.866930  0.635840  0.063970  0.004454
    C   C115  0.882720  0.570070  0.089580  -0.302303
    C   C116  0.859520  0.511630  0.070740  0.300155
    Co  Co1   0.070780  0.022930  0.041730  1.281283
    Co  Co2   0.026520  0.094930  0.084800  1.304996
    Co  Co3   0.108360  0.893340  0.045940  1.277764
    Co  Co4   0.076720  0.018510  0.549740  1.236661
    Co  Co5   0.026380  0.097130  0.585630  1.285639
    Co  Co6   0.061950  0.859510  0.546200  1.248811
    Co  Co7   0.021110  0.861430  0.114970  1.303194
    Co  Co8   0.953230  0.837950  0.600170  1.274148
    Co  Co9   0.947360  0.921110  0.148980  1.282892
    Co  Co10  0.919460  0.058020  0.145020  1.267687
    Co  Co11  0.910170  0.916900  0.639150  1.281999
    Co  Co12  0.920030  0.069920  0.644650  1.199295
    H   H1    0.101860  0.088120  0.829750  0.094410
    H   H2    0.095570  0.075170  0.763730  0.204826
    H   H3    0.319240  0.449030  0.756310  0.130292
    H   H4    0.117520  0.320540  0.541310  0.184462
    H   H5    0.192840  0.478540  0.582020  0.039081
    H   H6    0.194880  0.259950  0.723000  0.135134
    H   H7    0.349890  0.795370  0.531830  0.131138
    H   H8    0.258920  0.831590  0.740290  0.165754
    H   H9    0.304950  0.746210  0.702040  0.088660
    H   H10   0.355090  0.266910  0.233220  0.139244
    H   H11   0.090630  0.481660  0.104910  0.215541
    H   H12   0.126640  0.355370  0.095290  0.134540
    H   H13   0.303970  0.376170  0.248250  0.094326
    H   H14   0.452170  0.763270  0.126120  0.077618
    H   H15   0.117590  0.761180  0.045150  0.158768
    H   H16   0.192870  0.568830  0.284710  0.157096
    H   H17   0.222090  0.766550  0.221820  0.121065
    H   H18   0.223240  0.675650  0.119560  0.201770
    H   H19   0.422080  0.055390  0.680860  0.120186
    H   H20   0.441560  0.174320  0.447700  0.121345
    H   H21   0.288710  0.019990  0.515850  0.099488
    H   H22   0.200640  0.115790  0.912480  0.165202
    H   H23   0.440320  0.274100  0.928090  0.064875
    H   H24   0.408500  0.148620  0.080640  0.111312
    H   H25   0.165490  0.100160  0.346890  0.128379
    H   H26   0.182440  0.123840  0.412170  0.122083
    H   H27   0.076900  0.375010  0.017190  0.138610
    H   H28   0.574790  0.215610  0.613010  0.104211
    H   H29   0.503420  0.685410  0.701660  0.117133
    H   H30   0.594020  0.924450  0.566980  0.134192
    H   H31   0.585480  0.585120  0.271950  0.172524
    H   H32   0.648790  0.312760  0.093270  0.096477
    H   H33   0.574440  0.931650  0.058040  0.068959
    H   H34   0.668660  0.185450  0.482460  0.102624
    H   H35   0.662960  0.115760  0.089970  0.115195
    H   H36   0.682530  0.698220  0.699410  0.177340
    H   H37   0.018690  0.359010  0.534460  0.025562
    H   H38   0.723920  0.101210  0.448900  0.160388
    H   H39   0.717450  0.066850  0.036740  0.196868
    H   H40   0.743940  0.774490  0.209000  0.083162
    H   H41   0.759240  0.444730  0.590500  0.075349
    H   H42   0.758160  0.580150  0.967080  0.163802
    H   H43   0.993600  0.409710  0.701950  0.146880
    H   H44   0.954200  0.569710  0.660070  -0.045267
    H   H45   0.846500  0.605860  0.637400  0.196603
    H   H46   0.879190  0.867420  0.353040  0.124787
    H   H47   0.833980  0.590100  0.429760  0.154601
    H   H48   0.860270  0.799480  0.789310  0.153078
    H   H49   0.866530  0.812520  0.855240  0.106352
    H   H50   0.895710  0.891470  0.418030  0.187289
    H   H51   0.984800  0.519960  0.499540  0.134634
    H   H52   0.790110  0.689050  0.457960  0.103115
    H   H53   0.896480  0.393270  0.980420  0.109710
    H   H54   0.820730  0.361080  0.123640  0.195063
    H   H55   0.813500  0.761180  0.957350  0.178359
    H   H56   0.921730  0.570110  0.123320  0.109635
    N   N1    0.395060  0.680350  0.206520  -0.783490
    N   N2    0.392300  0.569870  0.205790  -0.894122
    N   N3    0.249800  0.541970  0.197400  -1.021249
    N   N4    0.189250  0.537190  0.663430  -0.768529
    N   N5    0.316420  0.601910  0.636710  -0.855576
    N   N6    0.310100  0.690680  0.653240  -0.791869
    N   N7    0.642110  0.280470  0.987080  -0.739066
    N   N8    0.635530  0.334120  0.531540  -0.833868
    N   N9    0.660320  0.240660  0.532590  -0.818163
    N   N10   0.662890  0.396290  0.993670  -0.836326
    N   N11   0.795770  0.399010  0.012670  -0.812134
    N   N12   0.768820  0.395610  0.510840  -0.915072
    O   O1    0.074120  0.125260  0.035480  -0.595434
    O   O2    0.060030  0.142430  0.172300  -0.583504
    O   O3    0.126660  0.202660  0.114640  -0.597561
    O   O4    0.213090  0.915770  0.102270  -0.523412
    O   O5    0.127820  0.839130  0.153390  -0.596742
    O   O6    0.064730  0.929490  0.069430  -0.738020
    O   O7    0.191190  0.019240  0.009290  -0.759285
    O   O8    0.212760  0.097680  0.044560  -0.562304
    O   O9    0.100630  0.129480  0.547670  -0.543207
    O   O10   0.111740  0.968240  0.494520  -0.717344
    O   O11   0.060950  0.136900  0.676320  -0.662554
    O   O12   0.137780  0.181120  0.628060  -0.720164
    O   O13   0.017950  0.745330  0.595570  -0.893274
    O   O14   0.039590  0.795920  0.645470  -0.819341
    O   O15   0.024510  0.908940  0.564930  -0.658445
    O   O16   0.195240  0.927010  0.584760  -0.637937
    O   O17   0.214270  0.050930  0.578840  -0.692791
    O   O18   0.042970  0.986700  0.105640  -0.930568
    O   O19   0.000110  0.933950  0.213760  -0.636105
    O   O20   0.025970  0.762110  0.078490  -0.744710
    O   O21   0.039030  0.026820  0.482450  -0.622457
    O   O22   0.971830  0.924350  0.705140  -0.753204
    O   O23   0.998810  0.994980  0.978510  -0.705541
    O   O24   0.995140  0.874340  0.993510  -0.799594
    O   O25   0.937450  0.163420  0.091380  -0.782330
    O   O26   0.972200  0.023110  0.126410  -0.665956
    O   O27   0.957330  0.824430  0.159370  -0.579596
    O   O28   0.916400  0.108330  0.044000  -0.679177
    O   O29   0.786680  0.966670  0.114810  -0.781543
    O   O30   0.800200  0.857130  0.128710  -0.737383
    O   O31   0.896260  0.958610  0.201900  -0.750830
    O   O32   0.913810  0.755410  0.085650  -0.697553
    O   O33   0.954790  0.182750  0.594220  -0.808702
    O   O34   0.951030  0.023880  0.619690  -0.724302
    O   O35   0.888390  0.806700  0.642180  -0.555718
    O   O36   0.968400  0.963570  0.583190  -0.891806
    O   O37   0.949220  0.149370  0.541390  -0.722175
    O   O38   0.783090  0.994250  0.610850  -0.657305
    O   O39   0.767970  0.867660  0.624330  -0.673945
    O   O40   0.885400  0.964210  0.698880  -0.749850
    O   O41   0.923100  0.798250  0.511350  -0.695034
    O   O42   0.844260  0.746230  0.561370  -0.659801
    S   S1    0.202020  0.361820  0.570310  -0.213403
    S   S2    0.223600  0.395410  0.739360  -0.239531
    S   S3    0.402020  0.845470  0.561190  -0.216583
    S   S4    0.251870  0.845290  0.697850  -0.206334
    S   S5    0.003010  0.470040  0.662310  -0.160603
    S   S6    0.175740  0.508680  0.104480  -0.351037
    S   S7    0.269020  0.232320  0.236700  -0.203076
    S   S8    0.274400  0.646380  0.272190  -0.241973
    S   S9    0.204260  0.815050  0.069570  -0.281612
    S   S10   0.449080  0.112300  0.483860  -0.211466
    S   S11   0.414280  0.119100  0.646340  -0.165556
    S   S12   0.248750  0.190250  0.925420  -0.259794
    S   S13   0.600200  0.234610  0.083640  -0.258587
    S   S14   0.566540  0.857270  0.066570  -0.172178
    S   S15   0.623640  0.670730  0.267540  -0.275033
    S   S16   0.628600  0.117630  0.046540  -0.128910
    S   S17   0.693050  0.761040  0.707560  -0.314114
    S   S18   0.726060  0.086690  0.490600  -0.246881
    S   S19   0.748130  0.554510  0.433980  -0.227135
    S   S20   0.761880  0.561520  0.609160  -0.254681
    S   S21   0.964030  0.450450  0.535780  -0.152198
    S   S22   0.999560  0.340320  0.984070  -0.224940
    S   S23   0.769650  0.696960  0.990860  -0.224051
    S   S24   0.891290  0.437810  0.103180  -0.318777
