# generated using pymatgen
data_Zn2H8C16BrO7
_symmetry_space_group_name_H-M   'P 1'
_cell_length_a   16.83001000
_cell_length_b   18.06662000
_cell_length_c   53.98507000
_cell_angle_alpha   88.48616000
_cell_angle_beta   88.50788000
_cell_angle_gamma   108.19807000
_symmetry_Int_Tables_number   1
_chemical_formula_structural   Zn2H8C16BrO7
_chemical_formula_sum   'Zn24 H96 C192 Br12 O84'
_cell_volume   15578.14295488
_cell_formula_units_Z   12
loop_
 _symmetry_equiv_pos_site_id
 _symmetry_equiv_pos_as_xyz
  1  'x, y, z'
loop_
 _atom_site_type_symbol
 _atom_site_label
 _atom_site_symmetry_multiplicity
 _atom_site_fract_x
 _atom_site_fract_y
 _atom_site_fract_z
 _atom_site_occupancy
  Zn  Zn1  1  0.34490000  0.86956000  0.17269000  1
  Zn  Zn2  1  0.16979000  0.72656000  0.15647000  1
  Zn  Zn3  1  0.34311000  0.70814000  0.15246000  1
  Zn  Zn4  1  0.51465000  0.84019000  0.16986000  1
  Zn  Zn5  1  0.88190000  0.06109000  0.27584000  1
  Zn  Zn6  1  0.04217000  0.16165000  0.23957000  1
  Zn  Zn7  1  0.00780000  0.21957000  0.29090000  1
  Zn  Zn8  1  0.81249000  0.14172000  0.31455000  1
  Zn  Zn9  1  0.27186000  0.77961000  0.36898000  1
  Zn  Zn10  1  0.06735000  0.76756000  0.38270000  1
  Zn  Zn11  1  0.32248000  0.63470000  0.38431000  1
  Zn  Zn12  1  0.14934000  0.66032000  0.40616000  1
  Zn  Zn13  1  0.49710000  0.22418000  0.64919000  1
  Zn  Zn14  1  0.47942000  0.38324000  0.67331000  1
  Zn  Zn15  1  0.63016000  0.15376000  0.66243000  1
  Zn  Zn16  1  0.64216000  0.34012000  0.67695000  1
  Zn  Zn17  1  0.89555000  0.94364000  0.73226000  1
  Zn  Zn18  1  0.04290000  0.02996000  0.77104000  1
  Zn  Zn19  1  0.91257000  0.86608000  0.78240000  1
  Zn  Zn20  1  0.09794000  0.93398000  0.80864000  1
  Zn  Zn21  1  0.63024000  0.27498000  0.86713000  1
  Zn  Zn22  1  0.83757000  0.29462000  0.87443000  1
  Zn  Zn23  1  0.56717000  0.40455000  0.88789000  1
  Zn  Zn24  1  0.74942000  0.38805000  0.90270000  1
  H  H1  1  0.29232000  0.80290000  0.13032000  1
  H  H2  1  0.38767000  0.76890000  0.19758000  1
  H  H3  1  0.92004000  0.20651000  0.25300000  1
  H  H4  1  0.93555000  0.08878000  0.31833000  1
  H  H5  1  0.28119000  0.38858000  0.22851000  1
  H  H6  1  0.08221000  0.53488000  0.21078000  1
  H  H7  1  0.32597000  0.50623000  0.20095000  1
  H  H8  1  0.63066000  0.10342000  0.18534000  1
  H  H9  1  0.58338000  0.04894000  0.27599000  1
  H  H10  1  0.74078000  0.16770000  0.21391000  1
  H  H11  1  0.95963000  0.94237000  0.19292000  1
  H  H12  1  0.14114000  0.83703000  0.24499000  1
  H  H13  1  0.05669000  0.88206000  0.17331000  1
  H  H14  1  0.47846000  0.78553000  0.30033000  1
  H  H15  1  0.98476000  0.45212000  0.29984000  1
  H  H16  1  0.24607000  0.51256000  0.09854000  1
  H  H17  1  0.21452000  0.45136000  0.05815000  1
  H  H18  1  0.06696000  0.60098000  0.04059000  1
  H  H19  1  0.09924000  0.66333000  0.08074000  1
  H  H20  1  0.43390000  0.11181000  0.06860000  1
  H  H21  1  0.42656000  0.06121000  0.11181000  1
  H  H22  1  0.46919000  0.85259000  0.08565000  1
  H  H23  1  0.47743000  0.90392000  0.04258000  1
  H  H24  1  0.68942000  0.76154000  0.06605000  1
  H  H25  1  0.64002000  0.80376000  0.10507000  1
  H  H26  1  0.49811000  0.56541000  0.12456000  1
  H  H27  1  0.54800000  0.52319000  0.08567000  1
  H  H28  1  0.07200000  0.07952000  0.33785000  1
  H  H29  1  0.03177000  0.57482000  0.32200000  1
  H  H30  1  0.26008000  0.94270000  0.30209000  1
  H  H31  1  0.09604000  0.97029000  0.36123000  1
  H  H32  1  0.70693000  0.90762000  0.35698000  1
  H  H33  1  0.19881000  0.63962000  0.35837000  1
  H  H34  1  0.57332000  0.81791000  0.37395000  1
  H  H35  1  0.91451000  0.45338000  0.38969000  1
  H  H36  1  0.19197000  0.80356000  0.41013000  1
  H  H37  1  0.51498000  0.89671000  0.42586000  1
  H  H38  1  0.19879000  0.40917000  0.44078000  1
  H  H39  1  0.01775000  0.77017000  0.47311000  1
  H  H40  1  0.84269000  0.58479000  0.43534000  1
  H  H41  1  0.26186000  0.77916000  0.45236000  1
  H  H42  1  0.55025000  0.94870000  0.46752000  1
  H  H43  1  0.20433000  0.34417000  0.48133000  1
  H  H44  1  0.29931000  0.63337000  0.47329000  1
  H  H45  1  0.93272000  0.72967000  0.51194000  1
  H  H46  1  0.75781000  0.54393000  0.47428000  1
  H  H47  1  0.29707000  0.83084000  0.49385000  1
  H  H48  1  0.30397000  0.56849000  0.51368000  1
  H  H49  1  0.26271000  0.24314000  0.55667000  1
  H  H50  1  0.60830000  0.98128000  0.55211000  1
  H  H51  1  0.61196000  0.48064000  0.54920000  1
  H  H52  1  0.84686000  0.59333000  0.58258000  1
  H  H53  1  0.34575000  0.95437000  0.56183000  1
  H  H54  1  0.27174000  0.46411000  0.58660000  1
  H  H55  1  0.31209000  0.20431000  0.59607000  1
  H  H56  1  0.63449000  0.04271000  0.59274000  1
  H  H57  1  0.55222000  0.42016000  0.58978000  1
  H  H58  1  0.78721000  0.53397000  0.62335000  1
  H  H59  1  0.37187000  0.01615000  0.60229000  1
  H  H60  1  0.32220000  0.42602000  0.62588000  1
  H  H61  1  0.64513000  0.27057000  0.63396000  1
  H  H62  1  0.89414000  0.24262000  0.67109000  1
  H  H63  1  0.29871000  0.99395000  0.67722000  1
  H  H64  1  0.99198000  0.18201000  0.68956000  1
  H  H65  1  0.50136000  0.26769000  0.69778000  1
  H  H66  1  0.55284000  0.59369000  0.71745000  1
  H  H67  1  0.78716000  0.54780000  0.70587000  1
  H  H68  1  0.86233000  0.67556000  0.72228000  1
  H  H69  1  0.46076000  0.09226000  0.73647000  1
  H  H70  1  0.77130000  0.55681000  0.00796000  1
  H  H71  1  0.79296000  0.26251000  0.74365000  1
  H  H72  1  0.01271000  0.89331000  0.74581000  1
  H  H73  1  0.34484000  0.03487000  0.76696000  1
  H  H74  1  0.31967000  0.18699000  0.78349000  1
  H  H75  1  0.93009000  0.62744000  0.79295000  1
  H  H76  1  0.65900000  0.14030000  0.79545000  1
  H  H77  1  0.44708000  0.26849000  0.80270000  1
  H  H78  1  0.97308000  0.98503000  0.81256000  1
  H  H79  1  0.87594000  0.50017000  0.81532000  1
  H  H80  1  0.82979000  0.98631000  0.83095000  1
  H  H81  1  0.69182000  0.42014000  0.85762000  1
  H  H82  1  0.80129000  0.08951000  0.85503000  1
  H  H83  1  0.30714000  0.25723000  0.87149000  1
  H  H84  1  0.96739000  0.60845000  0.88359000  1
  H  H85  1  0.62231000  0.17908000  0.99057000  1
  H  H86  1  0.71557000  0.24391000  0.90522000  1
  H  H87  1  0.99268000  0.31100000  0.99807000  1
  H  H88  1  0.13758000  0.52209000  0.95848000  1
  H  H89  1  0.05399000  0.48033000  0.92152000  1
  H  H90  1  0.90863000  0.26963000  0.96124000  1
  H  H91  1  0.40213000  0.11593000  0.92792000  1
  H  H92  1  0.37623000  0.04478000  0.96864000  1
  H  H93  1  0.64801000  0.25022000  0.95005000  1
  H  H94  1  0.54013000  0.53047000  0.95005000  1
  H  H95  1  0.53322000  0.58482000  0.99121000  1
  H  H96  1  0.77915000  0.50335000  0.96671000  1
  C  C1  1  0.51368000  0.71437000  0.13527000  1
  C  C2  1  0.23096000  0.59612000  0.18592000  1
  C  C3  1  0.50068000  0.97362000  0.19701000  1
  C  C4  1  0.17499000  0.83567000  0.19576000  1
  C  C5  1  0.44655000  0.92413000  0.12763000  1
  C  C6  1  0.19689000  0.63180000  0.11608000  1
  C  C7  1  0.91949000  0.30800000  0.32077000  1
  C  C8  1  0.11794000  0.12342000  0.29014000  1
  C  C9  1  0.73513000  0.96987000  0.31053000  1
  C  C10  1  0.97010000  0.99268000  0.23977000  1
  C  C11  1  0.74540000  0.11325000  0.26095000  1
  C  C12  1  0.12842000  0.32151000  0.25054000  1
  C  C13  1  0.20690000  0.52856000  0.20374000  1
  C  C14  1  0.26304000  0.48722000  0.20908000  1
  C  C15  1  0.23748000  0.42011000  0.22460000  1
  C  C16  1  0.15564000  0.39351000  0.23488000  1
  C  C17  1  0.09926000  0.43502000  0.22955000  1
  C  C18  1  0.12570000  0.50298000  0.21453000  1
  C  C19  1  0.67131000  0.10870000  0.24672000  1
  C  C20  1  0.68154000  0.12890000  0.22135000  1
  C  C21  1  0.61942000  0.09162000  0.20512000  1
  C  C22  1  0.54725000  0.03293000  0.21415000  1
  C  C23  1  0.53120000  0.02237000  0.24007000  1
  C  C24  1  0.59295000  0.06179000  0.25621000  1
  C  C25  1  0.10879000  0.86001000  0.20779000  1
  C  C26  1  0.05390000  0.88533000  0.19332000  1
  C  C27  1  0.99831000  0.91879000  0.20447000  1
  C  C28  1  0.99856000  0.92901000  0.23018000  1
  C  C29  1  0.04507000  0.89292000  0.24503000  1
  C  C30  1  0.10206000  0.86089000  0.23368000  1
  C  C31  1  0.60560000  0.86079000  0.30288000  1
  C  C32  1  0.14953000  0.07193000  0.30607000  1
  C  C33  1  0.20616000  0.03534000  0.29651000  1
  C  C34  1  0.17461000  0.59219000  0.09256000  1
  C  C35  1  0.20724000  0.53235000  0.08595000  1
  C  C36  1  0.18947000  0.49768000  0.06305000  1
  C  C37  1  0.13903000  0.52240000  0.04666000  1
  C  C38  1  0.10628000  0.58184000  0.05319000  1
  C  C39  1  0.12397000  0.61666000  0.07604000  1
  C  C40  1  0.11758000  0.48467000  0.02359000  1
  C  C41  1  0.09772000  0.45489000  0.00407000  1
  C  C42  1  0.47984000  0.07221000  0.00698000  1
  C  C43  1  0.46793000  0.04378000  0.02774000  1
  C  C44  1  0.45622000  0.01125000  0.05271000  1
  C  C45  1  0.44110000  0.05504000  0.07230000  1
  C  C46  1  0.43697000  0.02636000  0.09679000  1
  C  C47  1  0.44822000  0.95368000  0.10183000  1
  C  C48  1  0.46172000  0.90930000  0.08208000  1
  C  C49  1  0.46576000  0.93809000  0.05764000  1
  C  C50  1  0.64276000  0.59731000  0.02741000  1
  C  C51  1  0.63417000  0.61725000  0.04820000  1
  C  C52  1  0.62050000  0.63971000  0.07298000  1
  C  C53  1  0.64926000  0.71838000  0.07905000  1
  C  C54  1  0.62184000  0.74223000  0.10127000  1
  C  C55  1  0.56479000  0.68759000  0.11737000  1
  C  C56  1  0.54183000  0.60813000  0.11221000  1
  C  C57  1  0.56961000  0.58428000  0.09008000  1
  C  C58  1  0.66904000  0.89860000  0.31898000  1
  C  C59  1  0.52847000  0.81192000  0.31266000  1
  C  C60  1  0.96791000  0.45229000  0.31934000  1
  C  C61  1  0.11399000  0.05073000  0.33003000  1
  C  C62  1  0.21970000  0.97309000  0.30996000  1
  C  C63  1  0.99462000  0.52190000  0.33192000  1
  C  C64  1  0.92507000  0.38211000  0.33226000  1
  C  C65  1  0.17739000  0.94743000  0.33289000  1
  C  C66  1  0.12739000  0.98858000  0.34327000  1
  C  C67  1  0.51584000  0.79782000  0.33836000  1
  C  C68  1  0.65816000  0.87964000  0.34445000  1
  C  C69  1  0.17670000  0.87280000  0.34464000  1
  C  C70  1  0.90242000  0.38333000  0.35751000  1
  C  C71  1  0.43274000  0.75349000  0.34903000  1
  C  C72  1  0.58211000  0.82931000  0.35409000  1
  C  C73  1  0.97884000  0.52190000  0.35756000  1
  C  C74  1  0.02293000  0.59001000  0.37182000  1
  C  C75  1  0.92923000  0.45321000  0.37004000  1
  C  C76  1  0.36850000  0.79221000  0.41327000  1
  C  C77  1  0.99784000  0.69031000  0.43097000  1
  C  C78  1  0.23552000  0.56482000  0.43128000  1
  C  C79  1  0.38597000  0.83451000  0.43627000  1
  C  C80  1  0.93656000  0.67974000  0.45163000  1
  C  C81  1  0.46701000  0.88332000  0.44055000  1
  C  C82  1  0.22254000  0.44404000  0.45659000  1
  C  C83  1  0.24807000  0.52572000  0.45430000  1
  C  C84  1  0.96005000  0.72191000  0.47314000  1
  C  C85  1  0.86143000  0.61769000  0.45186000  1
  C  C86  1  0.32455000  0.81703000  0.45549000  1
  C  C87  1  0.48715000  0.91217000  0.46419000  1
  C  C88  1  0.91207000  0.69877000  0.49516000  1
  C  C89  1  0.22502000  0.40726000  0.47958000  1
  C  C90  1  0.81360000  0.59428000  0.47396000  1
  C  C91  1  0.27858000  0.57024000  0.47493000  1
  C  C92  1  0.84041000  0.63323000  0.49584000  1
  C  C93  1  0.34463000  0.84583000  0.47902000  1
  C  C94  1  0.42623000  0.89232000  0.48355000  1
  C  C95  1  0.25327000  0.45212000  0.50029000  1
  C  C96  1  0.28101000  0.53355000  0.49781000  1
  C  C97  1  0.80054000  0.60081000  0.51935000  1
  C  C98  1  0.44714000  0.91895000  0.50814000  1
  C  C99  1  0.25565000  0.41511000  0.52402000  1
  C  C100  1  0.46168000  0.93988000  0.52902000  1
  C  C101  1  0.76935000  0.57328000  0.53923000  1
  C  C102  1  0.26055000  0.38757000  0.54425000  1
  C  C103  1  0.73336000  0.54098000  0.56317000  1
  C  C104  1  0.47551000  0.96524000  0.55404000  1
  C  C105  1  0.26660000  0.35718000  0.56874000  1
  C  C106  1  0.55644000  0.98779000  0.56320000  1
  C  C107  1  0.65020000  0.49250000  0.56536000  1
  C  C108  1  0.27388000  0.28246000  0.57194000  1
  C  C109  1  0.78247000  0.55582000  0.58416000  1
  C  C110  1  0.40868000  0.97272000  0.56866000  1
  C  C111  1  0.27892000  0.40676000  0.58879000  1
  C  C112  1  0.57117000  0.02204000  0.58629000  1
  C  C113  1  0.61635000  0.45834000  0.58840000  1
  C  C114  1  0.30192000  0.26053000  0.59425000  1
  C  C115  1  0.74877000  0.52178000  0.60724000  1
  C  C116  1  0.42340000  0.00732000  0.59162000  1
  C  C117  1  0.50512000  0.03461000  0.60015000  1
  C  C118  1  0.66557000  0.47252000  0.60948000  1
  C  C119  1  0.30719000  0.38502000  0.61110000  1
  C  C120  1  0.32361000  0.31363000  0.61338000  1
  C  C121  1  0.62988000  0.43572000  0.63375000  1
  C  C122  1  0.52318000  0.08847000  0.62061000  1
  C  C123  1  0.37864000  0.30179000  0.63275000  1
  C  C124  1  0.62035000  0.48602000  0.70023000  1
  C  C125  1  0.89443000  0.23523000  0.69107000  1
  C  C126  1  0.44785000  0.10004000  0.68641000  1
  C  C127  1  0.30892000  0.00258000  0.69681000  1
  C  C128  1  0.75507000  0.25289000  0.69502000  1
  C  C129  1  0.94976000  0.20060000  0.70156000  1
  C  C130  1  0.66476000  0.56151000  0.71083000  1
  C  C131  1  0.38627000  0.05042000  0.70466000  1
  C  C132  1  0.62039000  0.61169000  0.71846000  1
  C  C133  1  0.83325000  0.25165000  0.70603000  1
  C  C134  1  0.24328000  0.96917000  0.71412000  1
  C  C135  1  0.75213000  0.58537000  0.71213000  1
  C  C136  1  0.66294000  0.68455000  0.72785000  1
  C  C137  1  0.79482000  0.65818000  0.72119000  1
  C  C138  1  0.94316000  0.18090000  0.72705000  1
  C  C139  1  0.75078000  0.70798000  0.72929000  1
  C  C140  1  0.96807000  0.11302000  0.73554000  1
  C  C141  1  0.40056000  0.05716000  0.73013000  1
  C  C142  1  0.83698000  0.24553000  0.73188000  1
  C  C143  1  0.65137000  0.57366000  0.00245000  1
  C  C144  1  0.25461000  0.98444000  0.73945000  1
  C  C145  1  0.79630000  0.77930000  0.74186000  1
  C  C146  1  0.89312000  0.21182000  0.74254000  1
  C  C147  1  0.33498000  0.02396000  0.74745000  1
  C  C148  1  0.18221000  0.98102000  0.75565000  1
  C  C149  1  0.80168000  0.96161000  0.78243000  1
  C  C150  1  0.71186000  0.04758000  0.78939000  1
  C  C151  1  0.76398000  0.00637000  0.79888000  1
  C  C152  1  0.31621000  0.20366000  0.80253000  1
  C  C153  1  0.69554000  0.10611000  0.80327000  1
  C  C154  1  0.17589000  0.10638000  0.80790000  1
  C  C155  1  0.93947000  0.62346000  0.81267000  1
  C  C156  1  0.38871000  0.24905000  0.81353000  1
  C  C157  1  0.98746000  0.76761000  0.81356000  1
  C  C158  1  0.24118000  0.17418000  0.81663000  1
  C  C159  1  0.90858000  0.55126000  0.82537000  1
  C  C160  1  0.79142000  0.01876000  0.82320000  1
  C  C161  1  0.97722000  0.69119000  0.82560000  1
  C  C162  1  0.73056000  0.12350000  0.82654000  1
  C  C163  1  0.38678000  0.26558000  0.83876000  1
  C  C164  1  0.77549000  0.07748000  0.83684000  1
  C  C165  1  0.23710000  0.19737000  0.84119000  1
  C  C166  1  0.73006000  0.19521000  0.83867000  1
  C  C167  1  0.91528000  0.54603000  0.85116000  1
  C  C168  1  0.30984000  0.24288000  0.85220000  1
  C  C169  1  0.99015000  0.68506000  0.85115000  1
  C  C170  1  0.46576000  0.29879000  0.85162000  1
  C  C171  1  0.95934000  0.61256000  0.86380000  1
  C  C172  1  0.87034000  0.47318000  0.86521000  1
  C  C173  1  0.53727000  0.23947000  0.91412000  1
  C  C174  1  0.90865000  0.36164000  0.92105000  1
  C  C175  1  0.65917000  0.47037000  0.93239000  1
  C  C176  1  0.06905000  0.42036000  0.98098000  1
  C  C177  1  0.08922000  0.46593000  0.95891000  1
  C  C178  1  0.04196000  0.44223000  0.93796000  1
  C  C179  1  0.97415000  0.37319000  0.93913000  1
  C  C180  1  0.96007000  0.32374000  0.96034000  1
  C  C181  1  0.00764000  0.34719000  0.98120000  1
  C  C182  1  0.52665000  0.18823000  0.93628000  1
  C  C183  1  0.45068000  0.12902000  0.94142000  1
  C  C184  1  0.43589000  0.08902000  0.96452000  1
  C  C185  1  0.49720000  0.10793000  0.98245000  1
  C  C186  1  0.57438000  0.16465000  0.97687000  1
  C  C187  1  0.58903000  0.20475000  0.95391000  1
  C  C188  1  0.65967000  0.51214000  0.95556000  1
  C  C189  1  0.59134000  0.53711000  0.96243000  1
  C  C190  1  0.58724000  0.56766000  0.98582000  1
  C  C191  1  0.72118000  0.55179000  0.99527000  1
  C  C192  1  0.72547000  0.52128000  0.97191000  1
  Br  Br1  1  0.98382000  0.39665000  0.24082000  1
  Br  Br2  1  0.42965000  0.94933000  0.25395000  1
  Br  Br3  1  0.02596000  0.87935000  0.28030000  1
  Br  Br4  1  0.62349000  0.87487000  0.26760000  1
  Br  Br5  1  0.26571000  0.06952000  0.26534000  1
  Br  Br6  1  0.84034000  0.28929000  0.37565000  1
  Br  Br7  1  0.13717000  0.90663000  0.70272000  1
  Br  Br8  1  0.59966000  0.74922000  0.73968000  1
  Br  Br9  1  0.66244000  0.02482000  0.75768000  1
  Br  Br10  1  0.90350000  0.21316000  0.77787000  1
  Br  Br11  1  0.13366000  0.16370000  0.86036000  1
  Br  Br12  1  0.04478000  0.77569000  0.86937000  1
  O  O1  1  0.54207000  0.95039000  0.17938000  1
  O  O2  1  0.41838000  0.94794000  0.19840000  1
  O  O3  1  0.28641000  0.78419000  0.14788000  1
  O  O4  1  0.16049000  0.76183000  0.19079000  1
  O  O5  1  0.39945000  0.94282000  0.14472000  1
  O  O6  1  0.24632000  0.88898000  0.18874000  1
  O  O7  1  0.48592000  0.87331000  0.13285000  1
  O  O8  1  0.14455000  0.66381000  0.12679000  1
  O  O9  1  0.26559000  0.62906000  0.12702000  1
  O  O10  1  0.39680000  0.78808000  0.18006000  1
  O  O11  1  0.54913000  0.75413000  0.15438000  1
  O  O12  1  0.30934000  0.62665000  0.17834000  1
  O  O13  1  0.43660000  0.70897000  0.12960000  1
  O  O14  1  0.17167000  0.61767000  0.17531000  1
  O  O15  1  0.72462000  0.03801000  0.31490000  1
  O  O16  1  0.80063000  0.96495000  0.29737000  1
  O  O17  1  0.95094000  0.17411000  0.26080000  1
  O  O18  1  0.98538000  0.05753000  0.22621000  1
  O  O19  1  0.78458000  0.06229000  0.25728000  1
  O  O20  1  0.93698000  0.98745000  0.26243000  1
  O  O21  1  0.76990000  0.16543000  0.27794000  1
  O  O22  1  0.13861000  0.25705000  0.24237000  1
  O  O23  1  0.08912000  0.32110000  0.27192000  1
  O  O24  1  0.91734000  0.11946000  0.30547000  1
  O  O25  1  0.84535000  0.25872000  0.31627000  1
  O  O26  1  0.10301000  0.18410000  0.29979000  1
  O  O27  1  0.98940000  0.29331000  0.31489000  1
  O  O28  1  0.09297000  0.10122000  0.26781000  1
  O  O29  1  0.36694000  0.77340000  0.34275000  1
  O  O30  1  0.24661000  0.85387000  0.34467000  1
  O  O31  1  0.10379000  0.81937000  0.34947000  1
  O  O32  1  0.04067000  0.66065000  0.36181000  1
  O  O33  1  0.22510000  0.66554000  0.37337000  1
  O  O34  1  0.42721000  0.70202000  0.36724000  1
  O  O35  1  0.05481000  0.57918000  0.39294000  1
  O  O36  1  0.17614000  0.76923000  0.39588000  1
  O  O37  1  0.35832000  0.82887000  0.39275000  1
  O  O38  1  0.98046000  0.71109000  0.40860000  1
  O  O39  1  0.26811000  0.55055000  0.41018000  1
  O  O40  1  0.35109000  0.71586000  0.41442000  1
  O  O41  1  0.06798000  0.67487000  0.43487000  1
  O  O42  1  0.20593000  0.62387000  0.43276000  1
  O  O43  1  0.44042000  0.27535000  0.62640000  1
  O  O44  1  0.54799000  0.41181000  0.63762000  1
  O  O45  1  0.56243000  0.07340000  0.64007000  1
  O  O46  1  0.49771000  0.15034000  0.61943000  1
  O  O47  1  0.67971000  0.42344000  0.65075000  1
  O  O48  1  0.37623000  0.33180000  0.65463000  1
  O  O49  1  0.61812000  0.25349000  0.65054000  1
  O  O50  1  0.55782000  0.48119000  0.68556000  1
  O  O51  1  0.51983000  0.29342000  0.68127000  1
  O  O52  1  0.42181000  0.13373000  0.66795000  1
  O  O53  1  0.52809000  0.11897000  0.69057000  1
  O  O54  1  0.73567000  0.31847000  0.69483000  1
  O  O55  1  0.64779000  0.42601000  0.70391000  1
  O  O56  1  0.69712000  0.18548000  0.69233000  1
  O  O57  1  0.95660000  0.05353000  0.72091000  1
  O  O58  1  0.79578000  0.84795000  0.73310000  1
  O  O59  1  0.97996000  0.92369000  0.75373000  1
  O  O60  1  0.14755000  0.03607000  0.75348000  1
  O  O61  1  0.99287000  0.10867000  0.75837000  1
  O  O62  1  0.84208000  0.77360000  0.76070000  1
  O  O63  1  0.83539000  0.99325000  0.76087000  1
  O  O64  1  0.15172000  0.92284000  0.77187000  1
  O  O65  1  0.81308000  0.89700000  0.79107000  1
  O  O66  1  0.11516000  0.11687000  0.79460000  1
  O  O67  1  0.99629000  0.95976000  0.79940000  1
  O  O68  1  0.92067000  0.78132000  0.80494000  1
  O  O69  1  0.06338000  0.81674000  0.80919000  1
  O  O70  1  0.18586000  0.03688000  0.81063000  1
  O  O71  1  0.65957000  0.21272000  0.84042000  1
  O  O72  1  0.53378000  0.28447000  0.84361000  1
  O  O73  1  0.80229000  0.24889000  0.84188000  1
  O  O74  1  0.85402000  0.40578000  0.85450000  1
  O  O75  1  0.46555000  0.33554000  0.87237000  1
  O  O76  1  0.66902000  0.38772000  0.87280000  1
  O  O77  1  0.83874000  0.47668000  0.88742000  1
  O  O78  1  0.72831000  0.28278000  0.89122000  1
  O  O79  1  0.54648000  0.21258000  0.89214000  1
  O  O80  1  0.92476000  0.34939000  0.89774000  1
  O  O81  1  0.61664000  0.48353000  0.91349000  1
  O  O82  1  0.55015000  0.31444000  0.91696000  1
  O  O83  1  0.83680000  0.37079000  0.92794000  1
  O  O84  1  0.69260000  0.41358000  0.93197000  1
