# generated using pymatgen
data_Co6H34C80Br4O21
_symmetry_space_group_name_H-M   'P 1'
_cell_length_a   25.63729000
_cell_length_b   26.17137000
_cell_length_c   39.34225000
_cell_angle_alpha   60.96112000
_cell_angle_beta   118.74520000
_cell_angle_gamma   133.22694000
_symmetry_Int_Tables_number   1
_chemical_formula_structural   Co6H34C80Br4O21
_chemical_formula_sum   'Co12 H68 C160 Br8 O42'
_cell_volume   16353.23985012
_cell_formula_units_Z   2
loop_
 _symmetry_equiv_pos_site_id
 _symmetry_equiv_pos_as_xyz
  1  'x, y, z'
loop_
 _atom_site_type_symbol
 _atom_site_label
 _atom_site_symmetry_multiplicity
 _atom_site_fract_x
 _atom_site_fract_y
 _atom_site_fract_z
 _atom_site_occupancy
  Co  Co1  1  0.05134000  0.01551000  0.06215000  1
  Co  Co2  1  0.94765000  0.92867000  0.15930000  1
  Co  Co3  1  0.00356000  0.06662000  0.09753000  1
  Co  Co4  1  0.00945000  0.88418000  0.12900000  1
  Co  Co5  1  0.08857000  0.91452000  0.06977000  1
  Co  Co6  1  0.93552000  0.04243000  0.16053000  1
  Co  Co7  1  0.04770000  0.01991000  0.56082000  1
  Co  Co8  1  0.93773000  0.93086000  0.65516000  1
  Co  Co9  1  0.00180000  0.07233000  0.59651000  1
  Co  Co10  1  0.99281000  0.88196000  0.62320000  1
  Co  Co11  1  0.07950000  0.91465000  0.56736000  1
  Co  Co12  1  0.93810000  0.04981000  0.66110000  1
  H  H1  1  0.81823000  0.37489000  0.05531000  1
  H  H2  1  0.64751000  0.33996000  0.07913000  1
  H  H3  1  0.60051000  0.17340000  0.04813000  1
  H  H4  1  0.80391000  0.38572000  0.53531000  1
  H  H5  1  0.62718000  0.37256000  0.53513000  1
  H  H6  1  0.58307000  0.18721000  0.52772000  1
  H  H7  1  0.38933000  0.75960000  0.18238000  1
  H  H8  1  0.35722000  0.58719000  0.16692000  1
  H  H9  1  0.17614000  0.55217000  0.17896000  1
  H  H10  1  0.37763000  0.76388000  0.67578000  1
  H  H11  1  0.35100000  0.59746000  0.65731000  1
  H  H12  1  0.16693000  0.55450000  0.67176000  1
  H  H13  1  0.92736000  0.97604000  0.85523000  1
  H  H14  1  0.11332000  0.97346000  0.98092000  1
  H  H15  1  0.11775000  0.06547000  0.83664000  1
  H  H16  1  0.90563000  0.84112000  0.78928000  1
  H  H17  1  0.12128000  0.08348000  0.33167000  1
  H  H18  1  0.92434000  0.84771000  0.29467000  1
  H  H19  1  0.92801000  0.97802000  0.35365000  1
  H  H20  1  0.12746000  0.00584000  0.47668000  1
  H  H21  1  0.21027000  0.34178000  0.72015000  1
  H  H22  1  0.17969000  0.23175000  0.71708000  1
  H  H23  1  0.08638000  0.27460000  0.59050000  1
  H  H24  1  0.11814000  0.38559000  0.59356000  1
  H  H25  1  0.56499000  0.85839000  0.59688000  1
  H  H26  1  0.68497000  0.91324000  0.58864000  1
  H  H27  1  0.73349000  0.79974000  0.70923000  1
  H  H28  1  0.61288000  0.74427000  0.71727000  1
  H  H29  1  0.07554000  0.66022000  0.67437000  1
  H  H30  1  0.03544000  0.72856000  0.66760000  1
  H  H31  1  0.26200000  0.90955000  0.69409000  1
  H  H32  1  0.30206000  0.84042000  0.70232000  1
  H  H33  1  0.18938000  0.32808000  0.22067000  1
  H  H34  1  0.22986000  0.43881000  0.22935000  1
  H  H35  1  0.19215000  0.52325000  0.10155000  1
  H  H36  1  0.15127000  0.41216000  0.09288000  1
  H  H37  1  0.62939000  0.74921000  0.22758000  1
  H  H38  1  0.74858000  0.80244000  0.21879000  1
  H  H39  1  0.68006000  0.87763000  0.09219000  1
  H  H40  1  0.56147000  0.82510000  0.10108000  1
  H  H41  1  0.28936000  0.78911000  0.23712000  1
  H  H42  1  0.33511000  0.73249000  0.23550000  1
  H  H43  1  0.15298000  0.64886000  0.13617000  1
  H  H44  1  0.10524000  0.70171000  0.13952000  1
  H  H45  1  0.71739000  0.09664000  0.57322000  1
  H  H46  1  0.66827000  0.15133000  0.57282000  1
  H  H47  1  0.78219000  0.33679000  0.48210000  1
  H  H48  1  0.83574000  0.28398000  0.48485000  1
  H  H49  1  0.82541000  0.63810000  0.49781000  1
  H  H50  1  0.87325000  0.74635000  0.51328000  1
  H  H51  1  0.89322000  0.64008000  0.63875000  1
  H  H52  1  0.84579000  0.53202000  0.62327000  1
  H  H53  1  0.38200000  0.24929000  0.50048000  1
  H  H54  1  0.26615000  0.19861000  0.51186000  1
  H  H55  1  0.29879000  0.05605000  0.62231000  1
  H  H56  1  0.41455000  0.10653000  0.61082000  1
  H  H57  1  0.69449000  0.07884000  0.04731000  1
  H  H58  1  0.75751000  0.02928000  0.05886000  1
  H  H59  1  0.94795000  0.24513000  0.02745000  1
  H  H60  1  0.88498000  0.29479000  0.01583000  1
  H  H61  1  0.78321000  0.58855000  0.03105000  1
  H  H62  1  0.83781000  0.70258000  0.04311000  1
  H  H63  1  0.97829000  0.66352000  0.15352000  1
  H  H64  1  0.92418000  0.54999000  0.14125000  1
  H  H65  1  0.38925000  0.20968000  0.00243000  1
  H  H66  1  0.50505000  0.24501000  0.00026000  1
  H  H67  1  0.55589000  0.16971000  0.12842000  1
  H  H68  1  0.43936000  0.13339000  0.13052000  1
  C  C1  1  0.71247000  0.27066000  0.05111000  1
  C  C2  1  0.76184000  0.34043000  0.05777000  1
  C  C3  1  0.73792000  0.36515000  0.06780000  1
  C  C4  1  0.66578000  0.32049000  0.07152000  1
  C  C5  1  0.61601000  0.25200000  0.06406000  1
  C  C6  1  0.63913000  0.22673000  0.05383000  1
  C  C7  1  0.69600000  0.28333000  0.52938000  1
  C  C8  1  0.74592000  0.35544000  0.53316000  1
  C  C9  1  0.72051000  0.38722000  0.53517000  1
  C  C10  1  0.64635000  0.34781000  0.53333000  1
  C  C11  1  0.59785000  0.27526000  0.53267000  1
  C  C12  1  0.62163000  0.24313000  0.52951000  1
  C  C13  1  0.27916000  0.65907000  0.18159000  1
  C  C14  1  0.35382000  0.70420000  0.18023000  1
  C  C15  1  0.38175000  0.67761000  0.17529000  1
  C  C16  1  0.33557000  0.60722000  0.17109000  1
  C  C17  1  0.26152000  0.56248000  0.17166000  1
  C  C18  1  0.23330000  0.58763000  0.17764000  1
  C  C19  1  0.26859000  0.66235000  0.67430000  1
  C  C20  1  0.34306000  0.70927000  0.67258000  1
  C  C21  1  0.37244000  0.68540000  0.66654000  1
  C  C22  1  0.32792000  0.61550000  0.66202000  1
  C  C23  1  0.25436000  0.56811000  0.66402000  1
  C  C24  1  0.22410000  0.59120000  0.67019000  1
  C  C25  1  0.19517000  0.07225000  0.05849000  1
  C  C26  1  0.95975000  0.76711000  0.09982000  1
  C  C27  1  0.90630000  0.11032000  0.07375000  1
  C  C28  1  0.79975000  0.89494000  0.15155000  1
  C  C29  1  0.08634000  0.16695000  0.15193000  1
  C  C30  1  0.00643000  0.95574000  0.99284000  1
  C  C31  1  0.14774000  0.89012000  0.15595000  1
  C  C32  1  0.98653000  0.96181000  0.23411000  1
  C  C33  1  0.19366000  0.07086000  0.56366000  1
  C  C34  1  0.93961000  0.77135000  0.58687000  1
  C  C35  1  0.91429000  0.12513000  0.57574000  1
  C  C36  1  0.79553000  0.90774000  0.64715000  1
  C  C37  1  0.09085000  0.16888000  0.65460000  1
  C  C38  1  0.01050000  0.97008000  0.48932000  1
  C  C39  1  0.12479000  0.87580000  0.65452000  1
  C  C40  1  0.97795000  0.95788000  0.73252000  1
  C  C41  1  0.01828000  0.97500000  0.95356000  1
  C  C42  1  0.96625000  0.97671000  0.91756000  1
  C  C43  1  0.96787000  0.97532000  0.88269000  1
  C  C44  1  0.01950000  0.96968000  0.88372000  1
  C  C45  1  0.07302000  0.97067000  0.91931000  1
  C  C46  1  0.07331000  0.97522000  0.95346000  1
  C  C47  1  0.01580000  0.96046000  0.84776000  1
  C  C48  1  0.07128000  0.01645000  0.82639000  1
  C  C49  1  0.06740000  0.00891000  0.79205000  1
  C  C50  1  0.00427000  0.94837000  0.77642000  1
  C  C51  1  0.95306000  0.88936000  0.80010000  1
  C  C52  1  0.95856000  0.89505000  0.83561000  1
  C  C53  1  0.01570000  0.95834000  0.27750000  1
  C  C54  1  0.07518000  0.02282000  0.29026000  1
  C  C55  1  0.07823000  0.03191000  0.32373000  1
  C  C56  1  0.02639000  0.97433000  0.34720000  1
  C  C57  1  0.97392000  0.90621000  0.33801000  1
  C  C58  1  0.96867000  0.89863000  0.30324000  1
  C  C59  1  0.02837000  0.98534000  0.38186000  1
  C  C60  1  0.97140000  0.98374000  0.38057000  1
  C  C61  1  0.96833000  0.98591000  0.41464000  1
  C  C62  1  0.02391000  0.99219000  0.45003000  1
  C  C63  1  0.08427000  0.00074000  0.44980000  1
  C  C64  1  0.08572000  0.99526000  0.41657000  1
  C  C65  1  0.16353000  0.36959000  0.65741000  1
  C  C66  1  0.18283000  0.32711000  0.69184000  1
  C  C67  1  0.16671000  0.26537000  0.68995000  1
  C  C68  1  0.21222000  0.49509000  0.66123000  1
  C  C69  1  0.11463000  0.28970000  0.61872000  1
  C  C70  1  0.13108000  0.35178000  0.62062000  1
  C  C71  1  0.18645000  0.43675000  0.65907000  1
  C  C72  1  0.13007000  0.24470000  0.65368000  1
  C  C73  1  0.58186000  0.79956000  0.65806000  1
  C  C74  1  0.60165000  0.84558000  0.62149000  1
  C  C75  1  0.66912000  0.87567000  0.61660000  1
  C  C76  1  0.44834000  0.73194000  0.66458000  1
  C  C77  1  0.69632000  0.81158000  0.68438000  1
  C  C78  1  0.62862000  0.78135000  0.68922000  1
  C  C79  1  0.51009000  0.76480000  0.66207000  1
  C  C80  1  0.71773000  0.86036000  0.64837000  1
  C  C81  1  0.19167000  0.74659000  0.68737000  1
  C  C82  1  0.11644000  0.71407000  0.67947000  1
  C  C83  1  0.09366000  0.75282000  0.67585000  1
  C  C84  1  0.23804000  0.68817000  0.67950000  1
  C  C85  1  0.22097000  0.85431000  0.69108000  1
  C  C86  1  0.24379000  0.81538000  0.69518000  1
  C  C87  1  0.21551000  0.71305000  0.68344000  1
  C  C88  1  0.14580000  0.82538000  0.67838000  1
  C  C89  1  0.17048000  0.36394000  0.15626000  1
  C  C90  1  0.18989000  0.37056000  0.19459000  1
  C  C91  1  0.21131000  0.43264000  0.19949000  1
  C  C92  1  0.12219000  0.24062000  0.14999000  1
  C  C93  1  0.19009000  0.48011000  0.12757000  1
  C  C94  1  0.16845000  0.41784000  0.12269000  1
  C  C95  1  0.14619000  0.29859000  0.15152000  1
  C  C96  1  0.21433000  0.48903000  0.16611000  1
  C  C97  1  0.58854000  0.78609000  0.16513000  1
  C  C98  1  0.64038000  0.77734000  0.19801000  1
  C  C99  1  0.70727000  0.80605000  0.19290000  1
  C  C100  1  0.45720000  0.72247000  0.17296000  1
  C  C101  1  0.66879000  0.84854000  0.12170000  1
  C  C102  1  0.60215000  0.82005000  0.12684000  1
  C  C103  1  0.51814000  0.75358000  0.16995000  1
  C  C104  1  0.72285000  0.84399000  0.15488000  1
  C  C105  1  0.19393000  0.74918000  0.18852000  1
  C  C106  1  0.25848000  0.75700000  0.21575000  1
  C  C107  1  0.28511000  0.72580000  0.21439000  1
  C  C108  1  0.16177000  0.83630000  0.17423000  1
  C  C109  1  0.18213000  0.67786000  0.15890000  1
  C  C110  1  0.15491000  0.70780000  0.16086000  1
  C  C111  1  0.17592000  0.79491000  0.18328000  1
  C  C112  1  0.24810000  0.68759000  0.18523000  1
  C  C113  1  0.78016000  0.18649000  0.52917000  1
  C  C114  1  0.73081000  0.14856000  0.55285000  1
  C  C115  1  0.70300000  0.17973000  0.55268000  1
  C  C116  1  0.86454000  0.14533000  0.55194000  1
  C  C117  1  0.76809000  0.28453000  0.50215000  1
  C  C118  1  0.79746000  0.25395000  0.50316000  1
  C  C119  1  0.82494000  0.16405000  0.53864000  1
  C  C120  1  0.72237000  0.24850000  0.52782000  1
  C  C121  1  0.83557000  0.57901000  0.55964000  1
  C  C122  1  0.84053000  0.63849000  0.52862000  1
  C  C123  1  0.86579000  0.69910000  0.53731000  1
  C  C124  1  0.77026000  0.45759000  0.54312000  1
  C  C125  1  0.87710000  0.63938000  0.60789000  1
  C  C126  1  0.85199000  0.57883000  0.59920000  1
  C  C127  1  0.80327000  0.51417000  0.55046000  1
  C  C128  1  0.88692000  0.70097000  0.57712000  1
  C  C129  1  0.40370000  0.17829000  0.55374000  1
  C  C130  1  0.36400000  0.20713000  0.52714000  1
  C  C131  1  0.29932000  0.17969000  0.53409000  1
  C  C132  1  0.52626000  0.23324000  0.53943000  1
  C  C133  1  0.31763000  0.09946000  0.59615000  1
  C  C134  1  0.38234000  0.12683000  0.58920000  1
  C  C135  1  0.46928000  0.20551000  0.54592000  1
  C  C136  1  0.27312000  0.12213000  0.56721000  1
  C  C137  1  0.78673000  0.19035000  0.03257000  1
  C  C138  1  0.74916000  0.11532000  0.04201000  1
  C  C139  1  0.78464000  0.08714000  0.04808000  1
  C  C140  1  0.73782000  0.24297000  0.04322000  1
  C  C141  1  0.89164000  0.20843000  0.03042000  1
  C  C142  1  0.85625000  0.23672000  0.02432000  1
  C  C143  1  0.75949000  0.21924000  0.03760000  1
  C  C144  1  0.85863000  0.13387000  0.04601000  1
  C  C145  1  0.85204000  0.56302000  0.08462000  1
  C  C146  1  0.82591000  0.60491000  0.05776000  1
  C  C147  1  0.85563000  0.66866000  0.06504000  1
  C  C148  1  0.78560000  0.43712000  0.07312000  1
  C  C149  1  0.93470000  0.64665000  0.12713000  1
  C  C150  1  0.90516000  0.58311000  0.11979000  1
  C  C151  1  0.81847000  0.49548000  0.07817000  1
  C  C152  1  0.91189000  0.69106000  0.09910000  1
  C  C153  1  0.40797000  0.17195000  0.06678000  1
  C  C154  1  0.42575000  0.20133000  0.03003000  1
  C  C155  1  0.49037000  0.21955000  0.02868000  1
  C  C156  1  0.27336000  0.11502000  0.06499000  1
  C  C157  1  0.51894000  0.17717000  0.10079000  1
  C  C158  1  0.45393000  0.15842000  0.10209000  1
  C  C159  1  0.33646000  0.14377000  0.06723000  1
  C  C160  1  0.53857000  0.20983000  0.06415000  1
  Br  Br1  1  0.14262000  0.95979000  0.92304000  1
  Br  Br2  1  0.89076000  0.97763000  0.91571000  1
  Br  Br3  1  0.14914000  0.08098000  0.76726000  1
  Br  Br4  1  0.88730000  0.81307000  0.86689000  1
  Br  Br5  1  0.90892000  0.82301000  0.37239000  1
  Br  Br6  1  0.15357000  0.09812000  0.26300000  1
  Br  Br7  1  0.88625000  0.97693000  0.41275000  1
  Br  Br8  1  0.16341000  0.99518000  0.42066000  1
  O  O1  1  0.93781000  0.12215000  0.10940000  1
  O  O2  1  0.96117000  0.00873000  0.13611000  1
  O  O3  1  0.04533000  0.09447000  0.05362000  1
  O  O4  1  0.95766000  0.85156000  0.16928000  1
  O  O5  1  0.97919000  0.96184000  0.10338000  1
  O  O6  1  0.92272000  0.08431000  0.06193000  1
  O  O7  1  0.00388000  0.89911000  0.01963000  1
  O  O8  1  0.01366000  0.00276000  0.00313000  1
  O  O9  1  0.82838000  0.96459000  0.13861000  1
  O  O10  1  0.83707000  0.86965000  0.16010000  1
  O  O11  1  0.04699000  0.11576000  0.17874000  1
  O  O12  1  0.09158000  0.15132000  0.12657000  1
  O  O13  1  0.16731000  0.93496000  0.12224000  1
  O  O14  1  0.10201000  0.88364000  0.16761000  1
  O  O15  1  0.04238000  0.93737000  0.08700000  1
  O  O16  1  0.93256000  0.96825000  0.21511000  1
  O  O17  1  0.01122000  0.95520000  0.21478000  1
  O  O18  1  0.15440000  0.02098000  0.04028000  1
  O  O19  1  0.16505000  0.07559000  0.07588000  1
  O  O20  1  0.02862000  0.80578000  0.09896000  1
  O  O21  1  0.93723000  0.79189000  0.10796000  1
  O  O22  1  0.94756000  0.13449000  0.61191000  1
  O  O23  1  0.95848000  0.01408000  0.63469000  1
  O  O24  1  0.04442000  0.10040000  0.55297000  1
  O  O25  1  0.93791000  0.84889000  0.66188000  1
  O  O26  1  0.97121000  0.96592000  0.59951000  1
  O  O27  1  0.92548000  0.09674000  0.56213000  1
  O  O28  1  0.00249000  0.91012000  0.51426000  1
  O  O29  1  0.01669000  0.01494000  0.50086000  1
  O  O30  1  0.82937000  0.97838000  0.63687000  1
  O  O31  1  0.82811000  0.87841000  0.65433000  1
  O  O32  1  0.05034000  0.11715000  0.68093000  1
  O  O33  1  0.09307000  0.15350000  0.62770000  1
  O  O34  1  0.15068000  0.92294000  0.62260000  1
  O  O35  1  0.07868000  0.87177000  0.66431000  1
  O  O36  1  0.03334000  0.93890000  0.58380000  1
  O  O37  1  0.92837000  0.97044000  0.71389000  1
  O  O38  1  0.00001000  0.94982000  0.71235000  1
  O  O39  1  0.15496000  0.02226000  0.54372000  1
  O  O40  1  0.16076000  0.07485000  0.57870000  1
  O  O41  1  0.00950000  0.80480000  0.59096000  1
  O  O42  1  0.91849000  0.79412000  0.59784000  1
