# generated using pymatgen
data_Co6C62Br8N6(O7F8)3
_symmetry_space_group_name_H-M   'P 1'
_cell_length_a   20.59173000
_cell_length_b   21.04026000
_cell_length_c   39.11433000
_cell_angle_alpha   60.73102000
_cell_angle_beta   119.02464000
_cell_angle_gamma   133.28519000
_symmetry_Int_Tables_number   1
_chemical_formula_structural   Co6C62Br8N6(O7F8)3
_chemical_formula_sum   'Co12 C124 Br16 N12 O42 F48'
_cell_volume   10456.85952293
_cell_formula_units_Z   2
loop_
 _symmetry_equiv_pos_site_id
 _symmetry_equiv_pos_as_xyz
  1  'x, y, z'
loop_
 _atom_site_type_symbol
 _atom_site_label
 _atom_site_symmetry_multiplicity
 _atom_site_fract_x
 _atom_site_fract_y
 _atom_site_fract_z
 _atom_site_occupancy
  Co  Co1  1  0.01576000  0.08904000  0.07281000  1
  Co  Co2  1  0.09325000  0.01986000  0.05147000  1
  Co  Co3  1  0.09751000  0.86567000  0.05388000  1
  Co  Co4  1  0.08005000  0.02868000  0.54891000  1
  Co  Co5  1  0.07662000  0.87256000  0.54701000  1
  Co  Co6  1  0.01113000  0.09787000  0.57622000  1
  Co  Co7  1  0.99719000  0.84155000  0.10667000  1
  Co  Co8  1  0.94164000  0.92001000  0.13688000  1
  Co  Co9  1  0.91568000  0.06794000  0.12396000  1
  Co  Co10  1  0.97098000  0.84556000  0.59821000  1
  Co  Co11  1  0.90925000  0.91634000  0.62864000  1
  Co  Co12  1  0.89425000  0.06125000  0.62603000  1
  C  C1  1  0.26876000  0.03724000  0.07314000  1
  C  C2  1  0.09265000  0.23417000  0.10561000  1
  C  C3  1  0.10934000  0.77371000  0.14040000  1
  C  C4  1  0.25051000  0.03752000  0.57101000  1
  C  C5  1  0.09267000  0.20329000  0.63607000  1
  C  C6  1  0.07840000  0.77256000  0.63266000  1
  C  C7  1  0.12772000  0.05785000  0.91520000  1
  C  C8  1  0.11522000  0.03934000  0.88155000  1
  C  C9  1  0.01047000  0.97303000  0.82138000  1
  C  C10  1  0.00817000  0.90924000  0.81652000  1
  C  C11  1  0.04343000  0.95529000  0.28047000  1
  C  C12  1  0.11424000  0.08606000  0.40875000  1
  C  C13  1  0.10656000  0.07283000  0.37452000  1
  C  C14  1  0.21061000  0.38078000  0.68713000  1
  C  C15  1  0.18300000  0.30414000  0.68121000  1
  C  C16  1  0.15085000  0.29407000  0.64195000  1
  C  C17  1  0.13797000  0.61455000  0.67912000  1
  C  C18  1  0.27720000  0.76747000  0.67443000  1
  C  C19  1  0.22863000  0.79727000  0.66931000  1
  C  C20  1  0.13281000  0.73833000  0.66353000  1
  C  C21  1  0.09018000  0.64550000  0.67352000  1
  C  C22  1  0.19903000  0.46018000  0.11093000  1
  C  C23  1  0.16247000  0.31608000  0.12067000  1
  C  C24  1  0.17070000  0.39565000  0.09501000  1
  C  C25  1  0.17056000  0.61660000  0.18801000  1
  C  C26  1  0.30686000  0.77000000  0.17588000  1
  C  C27  1  0.26146000  0.80146000  0.17271000  1
  C  C28  1  0.16698000  0.74252000  0.17076000  1
  C  C29  1  0.12525000  0.64943000  0.18338000  1
  C  C30  1  0.30029000  0.64359000  0.17704000  1
  C  C31  1  0.28334000  0.52873000  0.16845000  1
  C  C32  1  0.27393000  0.64852000  0.67015000  1
  C  C33  1  0.26289000  0.53917000  0.66000000  1
  C  C34  1  0.17925000  0.44070000  0.61472000  1
  C  C35  1  0.20927000  0.44967000  0.65396000  1
  C  C36  1  0.15138000  0.36389000  0.60877000  1
  C  C37  1  0.23004000  0.67667000  0.67573000  1
  C  C38  1  0.22599000  0.44920000  0.15284000  1
  C  C39  1  0.22407000  0.37261000  0.17855000  1
  C  C40  1  0.19441000  0.30746000  0.16251000  1
  C  C41  1  0.25933000  0.67710000  0.18089000  1
  C  C42  1  0.36492000  0.17642000  0.53099000  1
  C  C43  1  0.34104000  0.09696000  0.56176000  1
  C  C44  1  0.38198000  0.17894000  0.03327000  1
  C  C45  1  0.35889000  0.09847000  0.06334000  1
  C  C46  1  0.07520000  0.99257000  0.97731000  1
  C  C47  1  0.06445000  0.00943000  0.47286000  1
  C  C48  1  0.02657000  0.97608000  0.86234000  1
  C  C49  1  0.05438000  0.00472000  0.93337000  1
  C  C50  1  0.04625000  0.95182000  0.31829000  1
  C  C51  1  0.04231000  0.02231000  0.42884000  1
  C  C52  1  0.02543000  0.99700000  0.35946000  1
  C  C53  1  0.01244000  0.98983000  0.32008000  1
  C  C54  1  0.00469000  0.00515000  0.20358000  1
  C  C55  1  0.39419000  0.06477000  0.57738000  1
  C  C56  1  0.39977000  0.68506000  0.65851000  1
  C  C57  1  0.98742000  0.90378000  0.77733000  1
  C  C58  1  0.96631000  0.96070000  0.74278000  1
  C  C59  1  0.99820000  0.98880000  0.24425000  1
  C  C60  1  0.41303000  0.06788000  0.07784000  1
  C  C61  1  0.95773000  0.02008000  0.24691000  1
  C  C62  1  0.96768000  0.02403000  0.74846000  1
  C  C63  1  0.99658000  0.03397000  0.78735000  1
  C  C64  1  0.92846000  0.94483000  0.70151000  1
  C  C65  1  0.96980000  0.02513000  0.28432000  1
  C  C66  1  0.43665000  0.21968000  0.51417000  1
  C  C67  1  0.45330000  0.22425000  0.01576000  1
  C  C68  1  0.71466000  0.28325000  0.00627000  1
  C  C69  1  0.73848000  0.39692000  0.01941000  1
  C  C70  1  0.59677000  0.25511000  0.02060000  1
  C  C71  1  0.70312000  0.28638000  0.50706000  1
  C  C72  1  0.72485000  0.39343000  0.52457000  1
  C  C73  1  0.58346000  0.25140000  0.52332000  1
  C  C74  1  0.42878000  0.66503000  0.17680000  1
  C  C75  1  0.90126000  0.72147000  0.04929000  1
  C  C76  1  0.76746000  0.87001000  0.13826000  1
  C  C77  1  0.85459000  0.10734000  0.03552000  1
  C  C78  1  0.87952000  0.73216000  0.53901000  1
  C  C79  1  0.72594000  0.88877000  0.60828000  1
  C  C80  1  0.89783000  0.16772000  0.54094000  1
  C  C81  1  0.95113000  0.92903000  0.87813000  1
  C  C82  1  0.96497000  0.94457000  0.91321000  1
  C  C83  1  0.95077000  0.93724000  0.37780000  1
  C  C84  1  0.95753000  0.95400000  0.41062000  1
  C  C85  1  0.49835000  0.80832000  0.61038000  1
  C  C86  1  0.49032000  0.75156000  0.64932000  1
  C  C87  1  0.55990000  0.73950000  0.67452000  1
  C  C88  1  0.63347000  0.77875000  0.66006000  1
  C  C89  1  0.63989000  0.83303000  0.62055000  1
  C  C90  1  0.57191000  0.84776000  0.59584000  1
  C  C91  1  0.58361000  0.70489000  0.19433000  1
  C  C92  1  0.52068000  0.72618000  0.16928000  1
  C  C93  1  0.53481000  0.78694000  0.13137000  1
  C  C94  1  0.60998000  0.82470000  0.11848000  1
  C  C95  1  0.67368000  0.80452000  0.14383000  1
  C  C96  1  0.65843000  0.74230000  0.18133000  1
  C  C97  1  0.74542000  0.13753000  0.50612000  1
  C  C98  1  0.84065000  0.19825000  0.50966000  1
  C  C99  1  0.88074000  0.29078000  0.49746000  1
  C  C100  1  0.83204000  0.32076000  0.49185000  1
  C  C101  1  0.74269000  0.25780000  0.49865000  1
  C  C102  1  0.69688000  0.16618000  0.50222000  1
  C  C103  1  0.82956000  0.57391000  0.56998000  1
  C  C104  1  0.83009000  0.64151000  0.53522000  1
  C  C105  1  0.80364000  0.62913000  0.49715000  1
  C  C106  1  0.78051000  0.55207000  0.49401000  1
  C  C107  1  0.77955000  0.48451000  0.52868000  1
  C  C108  1  0.80612000  0.49671000  0.56674000  1
  C  C109  1  0.46757000  0.10957000  0.56129000  1
  C  C110  1  0.49058000  0.18838000  0.53018000  1
  C  C111  1  0.69080000  0.16414000  0.99082000  1
  C  C112  1  0.75074000  0.24945000  0.99916000  1
  C  C113  1  0.84597000  0.29763000  0.00458000  1
  C  C114  1  0.88031000  0.25529000  0.00791000  1
  C  C115  1  0.82117000  0.16357000  0.00843000  1
  C  C116  1  0.72607000  0.12134000  0.99573000  1
  C  C117  1  0.83965000  0.49782000  0.06496000  1
  C  C118  1  0.79685000  0.48708000  0.02533000  1
  C  C119  1  0.78177000  0.55070000  0.99467000  1
  C  C120  1  0.80288000  0.62019000  0.00391000  1
  C  C121  1  0.84629000  0.63153000  0.04344000  1
  C  C122  1  0.86190000  0.56816000  0.07414000  1
  C  C123  1  0.48541000  0.11422000  0.06085000  1
  C  C124  1  0.50669000  0.19318000  0.03001000  1
  Br  Br1  1  0.24345000  0.15957000  0.93485000  1
  Br  Br2  1  0.03299000  0.82923000  0.86349000  1
  Br  Br3  1  0.21940000  0.10133000  0.86144000  1
  Br  Br4  1  0.10874000  0.92204000  0.27881000  1
  Br  Br5  1  0.20661000  0.15895000  0.34799000  1
  Br  Br6  1  0.22093000  0.19352000  0.42700000  1
  Br  Br7  1  0.09720000  0.89592000  0.36759000  1
  Br  Br8  1  0.01420000  0.13043000  0.79412000  1
  Br  Br9  1  0.98000000  0.81294000  0.77148000  1
  Br  Br10  1  0.88523000  0.05659000  0.19976000  1
  Br  Br11  1  0.91960000  0.09001000  0.70467000  1
  Br  Br12  1  0.93033000  0.08390000  0.28647000  1
  Br  Br13  1  0.82924000  0.84324000  0.85179000  1
  Br  Br14  1  0.86150000  0.88714000  0.93249000  1
  Br  Br15  1  0.84960000  0.88958000  0.42828000  1
  Br  Br16  1  0.84021000  0.83208000  0.35840000  1
  N  N1  1  0.24532000  0.56073000  0.16969000  1
  N  N2  1  0.22415000  0.56308000  0.66690000  1
  N  N3  1  0.37508000  0.57941000  0.17413000  1
  N  N4  1  0.36162000  0.70993000  0.66515000  1
  N  N5  1  0.35058000  0.59979000  0.65646000  1
  N  N6  1  0.39196000  0.69709000  0.17900000  1
  N  N7  1  0.77016000  0.36923000  0.01015000  1
  N  N8  1  0.65220000  0.34015000  0.02418000  1
  N  N9  1  0.62796000  0.22596000  0.01203000  1
  N  N10  1  0.75732000  0.37021000  0.51304000  1
  N  N11  1  0.63873000  0.33393000  0.52985000  1
  N  N12  1  0.61548000  0.22679000  0.51217000  1
  O  O1  1  0.01543000  0.07840000  0.17637000  1
  O  O2  1  0.09518000  0.12617000  0.04077000  1
  O  O3  1  0.07413000  0.75943000  0.10467000  1
  O  O4  1  0.09884000  0.82152000  0.14728000  1
  O  O5  1  0.11451000  0.18998000  0.10380000  1
  O  O6  1  0.05498000  0.91097000  0.07014000  1
  O  O7  1  0.22852000  0.94991000  0.08397000  1
  O  O8  1  0.23244000  0.07047000  0.07360000  1
  O  O9  1  0.09256000  0.13726000  0.54448000  1
  O  O10  1  0.04710000  0.76229000  0.59630000  1
  O  O11  1  0.06700000  0.81901000  0.63999000  1
  O  O12  1  0.02829000  0.13781000  0.65605000  1
  O  O13  1  0.11087000  0.18680000  0.61417000  1
  O  O14  1  0.03489000  0.91798000  0.56392000  1
  O  O15  1  0.20662000  0.95000000  0.57994000  1
  O  O16  1  0.21716000  0.07213000  0.57276000  1
  O  O17  1  0.12900000  0.96748000  0.00181000  1
  O  O18  1  0.11434000  0.97945000  0.49679000  1
  O  O19  1  0.04113000  0.03476000  0.48748000  1
  O  O20  1  0.04775000  0.01503000  0.99119000  1
  O  O21  1  0.00644000  0.20044000  0.09745000  1
  O  O22  1  0.99808000  0.94618000  0.19483000  1
  O  O23  1  0.96869000  0.93663000  0.68729000  1
  O  O24  1  0.86388000  0.95460000  0.67656000  1
  O  O25  1  0.95617000  0.01969000  0.10869000  1
  O  O26  1  0.94253000  0.81483000  0.14783000  1
  O  O27  1  0.98814000  0.95740000  0.08382000  1
  O  O28  1  0.82229000  0.93981000  0.15317000  1
  O  O29  1  0.80102000  0.84901000  0.12739000  1
  O  O30  1  0.82450000  0.05239000  0.06868000  1
  O  O31  1  0.92325000  0.12231000  0.02929000  1
  O  O32  1  0.96133000  0.78924000  0.02704000  1
  O  O33  1  0.89752000  0.73122000  0.07969000  1
  O  O34  1  0.93644000  0.02121000  0.60627000  1
  O  O35  1  0.90653000  0.81112000  0.63695000  1
  O  O36  1  0.96871000  0.96493000  0.57788000  1
  O  O37  1  0.76665000  0.97630000  0.59445000  1
  O  O38  1  0.76720000  0.85203000  0.61688000  1
  O  O39  1  0.92184000  0.17270000  0.57764000  1
  O  O40  1  0.92876000  0.14075000  0.53203000  1
  O  O41  1  0.94146000  0.80080000  0.51778000  1
  O  O42  1  0.87056000  0.74186000  0.56754000  1
  F  F1  1  0.18418000  0.23780000  0.71368000  1
  F  F2  1  0.24190000  0.38964000  0.72521000  1
  F  F3  1  0.27366000  0.88510000  0.66666667  1
  F  F4  1  0.14758000  0.40874000  0.05443000  1
  F  F5  1  0.20516000  0.53603000  0.08556000  1
  F  F6  1  0.03734000  0.59056000  0.18723000  1
  F  F7  1  0.30768000  0.89034000  0.16842000  1
  F  F8  1  0.31839000  0.21169000  0.51721000  1
  F  F9  1  0.33374000  0.21211000  0.02019000  1
  F  F10  1  0.12070000  0.35543000  0.57067000  1
  F  F11  1  0.17980000  0.50788000  0.58234000  1
  F  F12  1  0.09431000  0.52470000  0.68723000  1
  F  F13  1  0.36925000  0.82677000  0.67781000  1
  F  F14  1  0.19386000  0.23439000  0.18776000  1
  F  F15  1  0.25420000  0.36299000  0.21909000  1
  F  F16  1  0.12776000  0.52634000  0.19900000  1
  F  F17  1  0.37514000  0.99036000  0.60843000  1
  F  F18  1  0.39566000  0.82992000  0.17313000  1
  F  F19  1  0.39561000  0.99324000  0.10854000  1
  F  F20  1  0.99969000  0.58587000  0.67355000  1
  F  F21  1  0.45754000  0.29550000  0.48376000  1
  F  F22  1  0.47288000  0.30051000  0.98576000  1
  F  F23  1  0.57652000  0.89936000  0.55751000  1
  F  F24  1  0.43147000  0.82041000  0.58565000  1
  F  F25  1  0.69939000  0.76525000  0.68472000  1
  F  F26  1  0.55341000  0.68543000  0.71241000  1
  F  F27  1  0.71985000  0.72279000  0.20639000  1
  F  F28  1  0.57030000  0.64529000  0.23084000  1
  F  F29  1  0.62388000  0.88503000  0.08217000  1
  F  F30  1  0.47330000  0.80631000  0.10626000  1
  F  F31  1  0.60666000  0.10482000  0.50281000  1
  F  F32  1  0.70193000  0.04911000  0.51077000  1
  F  F33  1  0.87252000  0.41055000  0.48089000  1
  F  F34  1  0.97023000  0.35151000  0.49568000  1
  F  F35  1  0.80484000  0.43140000  0.60054000  1
  F  F36  1  0.85385000  0.58397000  0.60699000  1
  F  F37  1  0.75342000  0.54039000  0.45699000  1
  F  F38  1  0.80133000  0.69248000  0.46315000  1
  F  F39  1  0.51974000  0.07925000  0.57761000  1
  F  F40  1  0.66753000  0.03546000  0.99190000  1
  F  F41  1  0.59862000  0.12187000  0.97885000  1
  F  F42  1  0.97195000  0.30126000  0.01412000  1
  F  F43  1  0.90541000  0.38415000  0.00765000  1
  F  F44  1  0.90152000  0.57647000  0.11272000  1
  F  F45  1  0.85386000  0.43627000  0.09507000  1
  F  F46  1  0.78414000  0.67883000  0.97409000  1
  F  F47  1  0.73973000  0.54084000  0.95628000  1
  F  F48  1  0.53809000  0.08493000  0.07592000  1
