# generated using pymatgen
data_Ni2H36C43(NO2)4
_symmetry_space_group_name_H-M   'P 1'
_cell_length_a   21.95478000
_cell_length_b   23.72842000
_cell_length_c   26.56538000
_cell_angle_alpha   90.00144000
_cell_angle_beta   90.00640000
_cell_angle_gamma   92.71827000
_symmetry_Int_Tables_number   1
_chemical_formula_structural   Ni2H36C43(NO2)4
_chemical_formula_sum   'Ni8 H144 C172 N16 O32'
_cell_volume   13823.72221865
_cell_formula_units_Z   4
loop_
 _symmetry_equiv_pos_site_id
 _symmetry_equiv_pos_as_xyz
  1  'x, y, z'
loop_
 _atom_site_type_symbol
 _atom_site_label
 _atom_site_symmetry_multiplicity
 _atom_site_fract_x
 _atom_site_fract_y
 _atom_site_fract_z
 _atom_site_occupancy
  Ni  Ni1  1  0.44183000  0.53407000  0.04590000  1
  Ni  Ni2  1  0.49945000  0.46084000  0.96062000  1
  Ni  Ni3  1  0.52070000  0.41404000  0.07242000  1
  Ni  Ni4  1  0.42545000  0.58198000  0.93260000  1
  Ni  Ni5  1  0.49771000  0.53740000  0.53934000  1
  Ni  Ni6  1  0.55890000  0.46673000  0.45548000  1
  Ni  Ni7  1  0.54983000  0.41343000  0.56578000  1
  Ni  Ni8  1  0.50043000  0.58946000  0.42812000  1
  H  H1  1  0.09700000  0.86963000  0.97525000  1
  H  H2  1  0.18454000  0.80834000  0.97789000  1
  H  H3  1  0.13359000  0.75497000  0.12772000  1
  H  H4  1  0.04596000  0.81666000  0.12522000  1
  H  H5  1  0.24329000  0.15098000  0.96645000  1
  H  H6  1  0.14669000  0.09344000  0.96281000  1
  H  H7  1  0.15953000  0.26788000  0.06618000  1
  H  H8  1  0.06541000  0.20694000  0.06719000  1
  H  H9  1  0.91113000  0.18102000  0.90074000  1
  H  H10  1  0.82833000  0.24736000  0.89179000  1
  H  H11  1  0.83704000  0.12621000  0.04383000  1
  H  H12  1  0.75296000  0.19056000  0.03370000  1
  H  H13  1  0.79599000  0.89782000  0.06788000  1
  H  H14  1  0.69993000  0.83989000  0.06050000  1
  H  H15  1  0.87980000  0.79168000  0.95867000  1
  H  H16  1  0.78585000  0.73040000  0.95534000  1
  H  H17  1  0.11779000  0.05041000  0.06074000  1
  H  H18  1  0.10538000  0.94927000  0.07626000  1
  H  H19  1  0.94888000  0.80712000  0.04596000  1
  H  H20  1  0.82445000  0.94555000  0.97109000  1
  H  H21  1  0.83770000  0.04620000  0.95377000  1
  H  H22  1  0.99603000  0.18801000  0.98173000  1
  H  H23  1  0.13425000  0.83542000  0.42183000  1
  H  H24  1  0.22163000  0.77426000  0.42983000  1
  H  H25  1  0.21301000  0.78875000  0.59134000  1
  H  H26  1  0.12612000  0.85062000  0.58331000  1
  H  H27  1  0.24430000  0.22931000  0.37946000  1
  H  H28  1  0.15510000  0.16179000  0.37829000  1
  H  H29  1  0.25791000  0.20976000  0.54029000  1
  H  H30  1  0.16794000  0.14326000  0.53925000  1
  H  H31  1  0.92833000  0.17112000  0.38277000  1
  H  H32  1  0.84205000  0.23409000  0.38762000  1
  H  H33  1  0.92443000  0.15210000  0.54409000  1
  H  H34  1  0.83746000  0.21412000  0.54881000  1
  H  H35  1  0.90285000  0.85191000  0.58226000  1
  H  H36  1  0.81343000  0.78509000  0.58872000  1
  H  H37  1  0.88630000  0.85048000  0.42063000  1
  H  H38  1  0.79597000  0.78470000  0.42718000  1
  H  H39  1  0.18700000  0.04477000  0.46696000  1
  H  H40  1  0.17678000  0.94461000  0.48563000  1
  H  H41  1  0.00870000  0.81083000  0.50989000  1
  H  H42  1  0.86889000  0.95753000  0.48423000  1
  H  H43  1  0.87933000  0.05779000  0.46585000  1
  H  H44  1  0.04732000  0.19297000  0.44914000  1
  H  H45  1  0.55091000  0.50380000  0.03466000  1
  H  H46  1  0.39162000  0.49374000  0.97048000  1
  H  H47  1  0.60754000  0.50155000  0.53792000  1
  H  H48  1  0.44709000  0.49975000  0.45814000  1
  H  H49  1  0.41766000  0.45507000  0.79738000  1
  H  H50  1  0.58163000  0.56531000  0.70668000  1
  H  H51  1  0.34083000  0.49083000  0.72055000  1
  H  H52  1  0.33089000  0.44875000  0.66490000  1
  H  H53  1  0.37867000  0.51188000  0.66160000  1
  H  H54  1  0.62474000  0.51420000  0.84091000  1
  H  H55  1  0.66646000  0.58081000  0.83861000  1
  H  H56  1  0.65985000  0.53967000  0.78217000  1
  H  H57  1  0.59982000  0.50404000  0.27038000  1
  H  H58  1  0.38273000  0.45866000  0.22716000  1
  H  H59  1  0.55094000  0.57998000  0.15661000  1
  H  H60  1  0.62224000  0.56012000  0.13116000  1
  H  H61  1  0.61757000  0.57479000  0.19714000  1
  H  H62  1  0.38457000  0.37965000  0.30546000  1
  H  H63  1  0.36590000  0.40044000  0.36814000  1
  H  H64  1  0.44426000  0.39163000  0.35289000  1
  H  H65  1  0.30383000  0.60048000  0.52348000  1
  H  H66  1  0.34208000  0.80817000  0.51139000  1
  H  H67  1  0.18449000  0.66474000  0.44569000  1
  H  H68  1  0.13234000  0.61828000  0.47983000  1
  H  H69  1  0.20803000  0.59608000  0.46648000  1
  H  H70  1  0.43425000  0.80068000  0.57990000  1
  H  H71  1  0.51142000  0.78609000  0.56313000  1
  H  H72  1  0.46284000  0.73078000  0.58985000  1
  H  H73  1  0.19850000  0.62750000  0.55290000  1
  H  H74  1  0.44844000  0.78596000  0.48926000  1
  H  H75  1  0.59257000  0.72662000  0.51791000  1
  H  H76  1  0.80600000  0.66701000  0.50527000  1
  H  H77  1  0.62178000  0.80325000  0.58861000  1
  H  H78  1  0.65593000  0.87279000  0.57792000  1
  H  H79  1  0.70286000  0.81739000  0.59894000  1
  H  H80  1  0.70439000  0.57601000  0.42441000  1
  H  H81  1  0.74503000  0.51854000  0.44990000  1
  H  H82  1  0.78444000  0.58622000  0.44115000  1
  H  H83  1  0.63885000  0.82338000  0.49942000  1
  H  H84  1  0.75699000  0.57024000  0.52852000  1
  H  H85  1  0.75465000  0.40526000  0.48704000  1
  H  H86  1  0.71486000  0.19904000  0.46303000  1
  H  H87  1  0.84812000  0.39579000  0.54653000  1
  H  H88  1  0.92420000  0.37638000  0.53088000  1
  H  H89  1  0.87060000  0.32367000  0.55526000  1
  H  H90  1  0.62002000  0.18559000  0.51808000  1
  H  H91  1  0.54488000  0.21226000  0.51194000  1
  H  H92  1  0.60123000  0.25093000  0.54888000  1
  H  H93  1  0.86098000  0.38401000  0.45646000  1
  H  H94  1  0.60841000  0.23041000  0.43750000  1
  H  H95  1  0.45806000  0.28931000  0.43483000  1
  H  H96  1  0.25173000  0.32946000  0.49859000  1
  H  H97  1  0.44858000  0.18211000  0.46345000  1
  H  H98  1  0.40693000  0.12491000  0.43225000  1
  H  H99  1  0.37319000  0.15838000  0.48542000  1
  H  H100  1  0.33869000  0.45989000  0.44631000  1
  H  H101  1  0.30387000  0.49457000  0.49829000  1
  H  H102  1  0.26250000  0.43718000  0.46705000  1
  H  H103  1  0.40211000  0.21218000  0.38545000  1
  H  H104  1  0.30641000  0.40800000  0.54644000  1
  H  H105  1  0.22658000  0.60048000  0.00673000  1
  H  H106  1  0.28407000  0.78990000  0.07664000  1
  H  H107  1  0.12643000  0.58770000  0.06159000  1
  H  H108  1  0.05486000  0.62032000  0.05189000  1
  H  H109  1  0.10790000  0.64995000  0.09734000  1
  H  H110  1  0.40177000  0.73673000  0.98556000  1
  H  H111  1  0.45631000  0.76697000  0.02947000  1
  H  H112  1  0.38529000  0.80065000  0.01969000  1
  H  H113  1  0.12730000  0.64478000  0.98561000  1
  H  H114  1  0.38397000  0.74685000  0.09721000  1
  H  H115  1  0.59438000  0.65350000  0.08306000  1
  H  H116  1  0.66628000  0.75341000  0.92820000  1
  H  H117  1  0.64292000  0.78526000  0.12319000  1
  H  H118  1  0.69389000  0.75673000  0.16848000  1
  H  H119  1  0.62500000  0.71694000  0.15174000  1
  H  H120  1  0.50251000  0.74254000  0.92256000  1
  H  H121  1  0.50980000  0.71591000  0.85959000  1
  H  H122  1  0.56696000  0.76585000  0.88365000  1
  H  H123  1  0.70873000  0.67827000  0.10902000  1
  H  H124  1  0.60314000  0.67161000  0.88568000  1
  H  H125  1  0.67307000  0.21627000  0.92144000  1
  H  H126  1  0.71883000  0.39945000  0.00738000  1
  H  H127  1  0.59412000  0.33920000  0.86083000  1
  H  H128  1  0.53407000  0.28595000  0.85221000  1
  H  H129  1  0.61210000  0.26626000  0.84936000  1
  H  H130  1  0.79100000  0.36336000  0.07430000  1
  H  H131  1  0.86663000  0.33774000  0.06845000  1
  H  H132  1  0.80220000  0.28817000  0.06934000  1
  H  H133  1  0.56328000  0.24180000  0.92976000  1
  H  H134  1  0.82966000  0.37523000  0.98946000  1
  H  H135  1  0.25502000  0.26292000  0.93364000  1
  H  H136  1  0.37911000  0.31049000  0.08561000  1
  H  H137  1  0.44838000  0.30104000  0.91808000  1
  H  H138  1  0.41776000  0.30175000  0.85524000  1
  H  H139  1  0.39556000  0.24481000  0.89707000  1
  H  H140  1  0.30584000  0.30701000  0.15467000  1
  H  H141  1  0.24450000  0.25894000  0.17431000  1
  H  H142  1  0.23133000  0.30917000  0.12533000  1
  H  H143  1  0.36097000  0.36629000  0.90577000  1
  H  H144  1  0.32027000  0.21715000  0.11803000  1
  C  C1  1  0.07686000  0.02797000  0.04739000  1
  C  C2  1  0.06959000  0.97015000  0.05658000  1
  C  C3  1  0.03115000  0.05661000  0.02212000  1
  C  C4  1  0.97517000  0.02721000  0.01044000  1
  C  C5  1  0.96744000  0.96878000  0.02066000  1
  C  C6  1  0.01606000  0.93968000  0.04143000  1
  C  C7  1  0.92695000  0.05617000  0.98879000  1
  C  C8  1  0.87326000  0.02561000  0.97398000  1
  C  C9  1  0.91157000  0.93924000  0.00891000  1
  C  C10  1  0.01050000  0.88045000  0.04650000  1
  C  C11  1  0.95366000  0.85224000  0.03936000  1
  C  C12  1  0.90391000  0.88093000  0.02084000  1
  C  C13  1  0.03954000  0.11453000  0.00921000  1
  C  C14  1  0.99046000  0.14318000  0.98954000  1
  C  C15  1  0.93357000  0.11524000  0.98175000  1
  C  C16  1  0.06532000  0.84698000  0.04992000  1
  C  C17  1  0.10523000  0.84514000  0.00878000  1
  C  C18  1  0.15491000  0.81070000  0.01037000  1
  C  C19  1  0.16476000  0.77733000  0.05284000  1
  C  C20  1  0.12614000  0.78057000  0.09471000  1
  C  C21  1  0.07640000  0.81521000  0.09320000  1
  C  C22  1  0.84458000  0.84898000  0.01360000  1
  C  C23  1  0.79362000  0.86192000  0.04264000  1
  C  C24  1  0.73950000  0.82842000  0.03921000  1
  C  C25  1  0.84084000  0.80206000  0.98129000  1
  C  C26  1  0.78752000  0.76737000  0.97932000  1
  C  C27  1  0.73681000  0.77993000  0.00877000  1
  C  C28  1  0.09950000  0.14573000  0.01526000  1
  C  C29  1  0.10419000  0.19444000  0.04533000  1
  C  C30  1  0.15794000  0.22861000  0.04541000  1
  C  C31  1  0.20856000  0.21315000  0.01717000  1
  C  C32  1  0.20461000  0.16331000  0.98851000  1
  C  C33  1  0.15000000  0.13042000  0.98675000  1
  C  C34  1  0.87988000  0.14924000  0.97300000  1
  C  C35  1  0.87651000  0.18281000  0.92967000  1
  C  C36  1  0.82954000  0.22017000  0.92450000  1
  C  C37  1  0.78546000  0.22376000  0.96240000  1
  C  C38  1  0.78714000  0.18823000  0.00446000  1
  C  C39  1  0.83464000  0.15174000  0.01013000  1
  C  C40  1  0.86563000  0.96793000  0.98396000  1
  C  C41  1  0.14170000  0.02549000  0.47181000  1
  C  C42  1  0.13578000  0.96784000  0.48192000  1
  C  C43  1  0.08979000  0.05783000  0.46790000  1
  C  C44  1  0.03104000  0.03081000  0.47249000  1
  C  C45  1  0.02498000  0.97209000  0.48198000  1
  C  C46  1  0.07764000  0.94050000  0.48709000  1
  C  C47  1  0.97841000  0.06253000  0.46807000  1
  C  C48  1  0.92026000  0.03482000  0.47122000  1
  C  C49  1  0.96620000  0.94508000  0.48657000  1
  C  C50  1  0.07114000  0.88199000  0.49730000  1
  C  C51  1  0.01313000  0.85577000  0.50224000  1
  C  C52  1  0.96074000  0.88639000  0.49675000  1
  C  C53  1  0.09530000  0.11685000  0.45932000  1
  C  C54  1  0.04287000  0.14767000  0.45485000  1
  C  C55  1  0.98488000  0.12153000  0.46053000  1
  C  C56  1  0.12460000  0.84728000  0.50203000  1
  C  C57  1  0.15156000  0.82551000  0.45882000  1
  C  C58  1  0.20085000  0.79089000  0.46335000  1
  C  C59  1  0.22287000  0.77722000  0.51112000  1
  C  C60  1  0.19604000  0.79909000  0.55433000  1
  C  C61  1  0.14698000  0.83406000  0.54980000  1
  C  C62  1  0.90062000  0.85588000  0.50101000  1
  C  C63  1  0.87910000  0.83798000  0.54841000  1
  C  C64  1  0.82863000  0.79997000  0.55206000  1
  C  C65  1  0.86978000  0.83719000  0.45739000  1
  C  C66  1  0.81895000  0.79962000  0.46108000  1
  C  C67  1  0.79890000  0.78010000  0.50837000  1
  C  C68  1  0.15537000  0.14791000  0.45870000  1
  C  C69  1  0.18518000  0.16112000  0.50422000  1
  C  C70  1  0.23580000  0.19914000  0.50485000  1
  C  C71  1  0.25670000  0.22469000  0.46004000  1
  C  C72  1  0.22829000  0.20999000  0.41427000  1
  C  C73  1  0.17794000  0.17158000  0.41359000  1
  C  C74  1  0.93191000  0.15720000  0.46309000  1
  C  C75  1  0.90854000  0.18044000  0.41901000  1
  C  C76  1  0.85980000  0.21601000  0.42175000  1
  C  C77  1  0.83425000  0.22846000  0.46856000  1
  C  C78  1  0.85728000  0.20484000  0.51257000  1
  C  C79  1  0.90631000  0.16970000  0.50989000  1
  C  C80  1  0.91426000  0.97711000  0.48103000  1
  C  C81  1  0.42522000  0.36248000  0.00333000  1
  C  C82  1  0.45279000  0.48107000  0.14552000  1
  C  C83  1  0.59940000  0.38148000  0.98654000  1
  C  C84  1  0.52024000  0.62990000  0.00334000  1
  C  C85  1  0.49368000  0.51245000  0.86025000  1
  C  C86  1  0.34752000  0.61771000  0.01798000  1
  C  C87  1  0.45695000  0.38611000  0.48810000  1
  C  C88  1  0.51249000  0.49799000  0.64494000  1
  C  C89  1  0.63530000  0.37557000  0.48589000  1
  C  C90  1  0.59911000  0.61569000  0.50001000  1
  C  C91  1  0.52605000  0.50070000  0.35137000  1
  C  C92  1  0.42240000  0.63019000  0.51111000  1
  C  C93  1  0.50472000  0.50564000  0.69955000  1
  C  C94  1  0.45639000  0.47679000  0.72519000  1
  C  C95  1  0.45348000  0.47919000  0.77774000  1
  C  C96  1  0.49607000  0.51287000  0.80493000  1
  C  C97  1  0.54252000  0.54421000  0.77915000  1
  C  C98  1  0.54593000  0.54119000  0.72643000  1
  C  C99  1  0.36442000  0.47571000  0.68634000  1
  C  C100  1  0.63523000  0.55187000  0.81686000  1
  C  C101  1  0.47286000  0.47949000  0.19811000  1
  C  C102  1  0.53439000  0.49238000  0.21037000  1
  C  C103  1  0.55240000  0.49452000  0.26097000  1
  C  C104  1  0.50898000  0.48711000  0.29930000  1
  C  C105  1  0.44816000  0.47126000  0.28714000  1
  C  C106  1  0.43012000  0.46843000  0.23649000  1
  C  C107  1  0.59211000  0.55584000  0.16460000  1
  C  C108  1  0.40039000  0.40631000  0.33785000  1
  C  C109  1  0.27392000  0.73990000  0.51578000  1
  C  C110  1  0.26298000  0.68123000  0.52014000  1
  C  C111  1  0.31227000  0.64575000  0.52067000  1
  C  C112  1  0.37209000  0.66841000  0.51592000  1
  C  C113  1  0.38312000  0.72743000  0.51417000  1
  C  C114  1  0.33378000  0.76284000  0.51371000  1
  C  C115  1  0.18094000  0.63293000  0.47640000  1
  C  C116  1  0.46388000  0.76807000  0.56447000  1
  C  C117  1  0.74793000  0.73751000  0.51195000  1
  C  C118  1  0.68763000  0.75428000  0.51706000  1
  C  C119  1  0.63912000  0.71352000  0.51562000  1
  C  C120  1  0.65045000  0.65631000  0.50913000  1
  C  C121  1  0.71085000  0.63926000  0.50621000  1
  C  C122  1  0.75945000  0.68003000  0.50791000  1
  C  C123  1  0.66335000  0.82697000  0.57477000  1
  C  C124  1  0.74013000  0.56485000  0.45182000  1
  C  C125  1  0.78351000  0.26636000  0.47159000  1
  C  C126  1  0.79493000  0.32473000  0.47806000  1
  C  C127  1  0.74590000  0.36019000  0.48241000  1
  C  C128  1  0.68578000  0.33763000  0.48123000  1
  C  C129  1  0.67436000  0.27920000  0.47403000  1
  C  C130  1  0.72347000  0.24391000  0.46899000  1
  C  C131  1  0.87546000  0.36164000  0.53082000  1
  C  C132  1  0.59417000  0.22457000  0.51456000  1
  C  C133  1  0.30653000  0.26876000  0.46151000  1
  C  C134  1  0.36459000  0.25802000  0.44223000  1
  C  C135  1  0.41299000  0.29837000  0.44839000  1
  C  C136  1  0.40400000  0.34885000  0.47430000  1
  C  C137  1  0.34515000  0.36090000  0.49103000  1
  C  C138  1  0.29672000  0.32066000  0.48469000  1
  C  C139  1  0.40240000  0.16592000  0.45167000  1
  C  C140  1  0.30848000  0.45317000  0.47956000  1
  C  C141  1  0.21030000  0.73395000  0.05068000  1
  C  C142  1  0.19386000  0.67995000  0.03185000  1
  C  C143  1  0.23915000  0.64168000  0.02222000  1
  C  C144  1  0.30054000  0.65676000  0.03168000  1
  C  C145  1  0.31684000  0.70987000  0.05251000  1
  C  C146  1  0.27147000  0.74835000  0.06195000  1
  C  C147  1  0.10404000  0.62874000  0.06009000  1
  C  C148  1  0.40683000  0.75925000  0.02214000  1
  C  C149  1  0.68094000  0.74206000  0.00775000  1
  C  C150  1  0.66093000  0.71305000  0.05147000  1
  C  C151  1  0.60909000  0.67591000  0.04937000  1
  C  C152  1  0.57661000  0.66754000  0.00410000  1
  C  C153  1  0.59816000  0.69509000  0.95989000  1
  C  C154  1  0.64978000  0.73255000  0.96220000  1
  C  C155  1  0.66231000  0.74568000  0.13700000  1
  C  C156  1  0.53573000  0.72935000  0.89376000  1
  C  C157  1  0.64936000  0.34579000  0.97175000  1
  C  C158  1  0.63730000  0.29538000  0.94477000  1
  C  C159  1  0.68307000  0.25628000  0.94010000  1
  C  C160  1  0.74106000  0.26818000  0.96058000  1
  C  C161  1  0.75460000  0.32070000  0.98355000  1
  C  C162  1  0.70868000  0.35941000  0.98882000  1
  C  C163  1  0.58016000  0.29435000  0.86843000  1
  C  C164  1  0.81850000  0.33075000  0.05628000  1
  C  C165  1  0.37015000  0.32317000  0.00549000  1
  C  C166  1  0.33556000  0.30744000  0.96178000  1
  C  C167  1  0.28188000  0.27360000  0.96684000  1
  C  C168  1  0.26377000  0.25167000  0.01378000  1
  C  C169  1  0.29912000  0.26499000  0.05680000  1
  C  C170  1  0.35201000  0.30059000  0.05239000  1
  C  C171  1  0.40718000  0.29086000  0.89503000  1
  C  C172  1  0.26550000  0.28109000  0.14137000  1
  N  N1  1  0.20150000  0.65778000  0.52424000  1
  N  N2  1  0.44463000  0.75136000  0.51370000  1
  N  N3  1  0.67563000  0.81310000  0.52219000  1
  N  N4  1  0.72279000  0.58023000  0.50302000  1
  N  N5  1  0.85666000  0.34803000  0.47922000  1
  N  N6  1  0.61272000  0.25623000  0.46938000  1
  N  N7  1  0.37461000  0.20543000  0.41727000  1
  N  N8  1  0.33484000  0.41399000  0.51507000  1
  N  N9  1  0.13103000  0.66492000  0.02061000  1
  N  N10  1  0.37982000  0.72510000  0.06300000  1
  N  N11  1  0.69609000  0.71813000  0.09715000  1
  N  N12  1  0.57009000  0.68208000  0.91204000  1
  N  N13  1  0.57822000  0.28360000  0.92268000  1
  N  N14  1  0.81538000  0.33468000  0.00137000  1
  N  N15  1  0.35562000  0.32288000  0.91182000  1
  N  N16  1  0.28351000  0.23918000  0.10443000  1
  O  O1  1  0.51166000  0.48161000  0.03262000  1
  O  O2  1  0.45102000  0.53015000  0.12260000  1
  O  O3  1  0.44900000  0.43401000  0.11911000  1
  O  O4  1  0.50762000  0.59846000  0.04322000  1
  O  O5  1  0.34853000  0.59922000  0.97092000  1
  O  O6  1  0.47174000  0.35279000  0.03270000  1
  O  O7  1  0.56393000  0.40144000  0.95082000  1
  O  O8  1  0.43144000  0.51483000  0.97344000  1
  O  O9  1  0.37559000  0.59158000  0.05495000  1
  O  O10  1  0.48761000  0.46391000  0.88424000  1
  O  O11  1  0.49664000  0.56044000  0.88554000  1
  O  O12  1  0.47658000  0.64141000  0.97170000  1
  O  O13  1  0.43124000  0.39905000  0.96633000  1
  O  O14  1  0.59799000  0.40003000  0.03356000  1
  O  O15  1  0.56686000  0.48436000  0.52943000  1
  O  O16  1  0.51149000  0.54262000  0.61570000  1
  O  O17  1  0.50293000  0.44707000  0.62609000  1
  O  O18  1  0.55793000  0.60699000  0.53554000  1
  O  O19  1  0.46794000  0.64350000  0.48033000  1
  O  O20  1  0.46496000  0.40017000  0.53531000  1
  O  O21  1  0.63003000  0.41537000  0.45190000  1
  O  O22  1  0.48748000  0.51824000  0.46538000  1
  O  O23  1  0.42768000  0.58995000  0.54454000  1
  O  O24  1  0.55064000  0.46158000  0.37856000  1
  O  O25  1  0.53525000  0.55401000  0.36347000  1
  O  O26  1  0.58738000  0.60000000  0.45363000  1
  O  O27  1  0.50087000  0.39578000  0.45530000  1
  O  O28  1  0.58871000  0.36079000  0.51537000  1
  O  O29  1  0.41417000  0.44303000  0.69909000  1
  O  O30  1  0.58225000  0.58059000  0.80513000  1
  O  O31  1  0.57783000  0.49793000  0.17275000  1
  O  O32  1  0.40498000  0.46396000  0.32475000  1
