# generated using pymatgen
data_Co6H22C62(N4O15)3
_symmetry_space_group_name_H-M   'P 1'
_cell_length_a   20.43551000
_cell_length_b   21.41920000
_cell_length_c   31.58323000
_cell_angle_alpha   60.52204000
_cell_angle_beta   119.19284000
_cell_angle_gamma   133.20168000
_symmetry_Int_Tables_number   1
_chemical_formula_structural   Co6H22C62(N4O15)3
_chemical_formula_sum   'Co12 H44 C124 N24 O90'
_cell_volume   8521.12304338
_cell_formula_units_Z   2
loop_
 _symmetry_equiv_pos_site_id
 _symmetry_equiv_pos_as_xyz
  1  'x, y, z'
loop_
 _atom_site_type_symbol
 _atom_site_label
 _atom_site_symmetry_multiplicity
 _atom_site_fract_x
 _atom_site_fract_y
 _atom_site_fract_z
 _atom_site_occupancy
  Co  Co1  1  0.00410000  0.08535000  0.09429000  1
  Co  Co2  1  0.01464000  0.86145000  0.13626000  1
  Co  Co3  1  0.02156000  0.86955000  0.63524000  1
  Co  Co4  1  0.05936000  0.01847000  0.04830000  1
  Co  Co5  1  0.93496000  0.91733000  0.17275000  1
  Co  Co6  1  0.10698000  0.89497000  0.05968000  1
  Co  Co7  1  0.90226000  0.05076000  0.16530000  1
  Co  Co8  1  0.05087000  0.02086000  0.54495000  1
  Co  Co9  1  0.93866000  0.91640000  0.67511000  1
  Co  Co10  1  0.98817000  0.07910000  0.59210000  1
  Co  Co11  1  0.12244000  0.91475000  0.55905000  1
  Co  Co12  1  0.89416000  0.03813000  0.67029000  1
  H  H1  1  0.01463000  0.07591000  0.37470000  1
  H  H2  1  0.00959000  0.08656000  0.29146000  1
  H  H3  1  0.83652000  0.43490000  0.00797000  1
  H  H4  1  0.64482000  0.35107000  0.07782000  1
  H  H5  1  0.60344000  0.15975000  0.03871000  1
  H  H6  1  0.85484000  0.39838000  0.54039000  1
  H  H7  1  0.65931000  0.39070000  0.56436000  1
  H  H8  1  0.56205000  0.19464000  0.50176000  1
  H  H9  1  0.41336000  0.74962000  0.23214000  1
  H  H10  1  0.39891000  0.55236000  0.21638000  1
  H  H11  1  0.15040000  0.50075000  0.20914000  1
  H  H12  1  0.12684000  0.55501000  0.66250000  1
  H  H13  1  0.33013000  0.53226000  0.67543000  1
  H  H14  1  0.41831000  0.75021000  0.71290000  1
  H  H15  1  0.07702000  0.08994000  0.88680000  1
  H  H16  1  0.91314000  0.80555000  0.92244000  1
  H  H17  1  0.92552000  0.81393000  0.84602000  1
  H  H18  1  0.07965000  0.09739000  0.80651000  1
  H  H19  1  0.99052000  0.83303000  0.43320000  1
  H  H20  1  0.98621000  0.84442000  0.35064000  1
  H  H21  1  0.14700000  0.48754000  0.58137000  1
  H  H22  1  0.12032000  0.25001000  0.73698000  1
  H  H23  1  0.53927000  0.69160000  0.76357000  1
  H  H24  1  0.58568000  0.77868000  0.59750000  1
  H  H25  1  0.14946000  0.61932000  0.72813000  1
  H  H26  1  0.35777000  0.94028000  0.65651000  1
  H  H27  1  0.25780000  0.36914000  0.27565000  1
  H  H28  1  0.12755000  0.35883000  0.09739000  1
  H  H29  1  0.57763000  0.68103000  0.28058000  1
  H  H30  1  0.58419000  0.85012000  0.10304000  1
  H  H31  1  0.19692000  0.75360000  0.25797000  1
  H  H32  1  0.21857000  0.69995000  0.13051000  1
  H  H33  1  0.62272000  0.10984000  0.55133000  1
  H  H34  1  0.88653000  0.26498000  0.48252000  1
  H  H35  1  0.97760000  0.59212000  0.65843000  1
  H  H36  1  0.77907000  0.55467000  0.48801000  1
  H  H37  1  0.47250000  0.30446000  0.45703000  1
  H  H38  1  0.37363000  0.12705000  0.61720000  1
  H  H39  1  0.70264000  0.08093000  0.99706000  1
  H  H40  1  0.90826000  0.38159000  0.02304000  1
  H  H41  1  0.73111000  0.53195000  0.99090000  1
  H  H42  1  0.95297000  0.58291000  0.15570000  1
  H  H43  1  0.37172000  0.10370000  0.12514000  1
  H  H44  1  0.47722000  0.24153000  0.97024000  1
  C  C1  1  0.00298000  0.95585000  0.82007000  1
  C  C2  1  0.00441000  0.94347000  0.46220000  1
  C  C3  1  0.00799000  0.02498000  0.36988000  1
  C  C4  1  0.00728000  0.03201000  0.32260000  1
  C  C5  1  0.04134000  0.02936000  0.87749000  1
  C  C6  1  0.00028000  0.93934000  0.96259000  1
  C  C7  1  0.99813000  0.96627000  0.31474000  1
  C  C8  1  0.72690000  0.29336000  0.02233000  1
  C  C9  1  0.77745000  0.38143000  0.02435000  1
  C  C10  1  0.75054000  0.40010000  0.04756000  1
  C  C11  1  0.66774000  0.33497000  0.06250000  1
  C  C12  1  0.61017000  0.25189000  0.05367000  1
  C  C13  1  0.64281000  0.22819000  0.03804000  1
  C  C14  1  0.71096000  0.28836000  0.52168000  1
  C  C15  1  0.78395000  0.36779000  0.53777000  1
  C  C16  1  0.76421000  0.40643000  0.55122000  1
  C  C17  1  0.67385000  0.36310000  0.55185000  1
  C  C18  1  0.60149000  0.28733000  0.53414000  1
  C  C19  1  0.61920000  0.25216000  0.51688000  1
  C  C20  1  0.27706000  0.62739000  0.22323000  1
  C  C21  1  0.37350000  0.68295000  0.22916000  1
  C  C22  1  0.41594000  0.65766000  0.22344000  1
  C  C23  1  0.36523000  0.57215000  0.21970000  1
  C  C24  1  0.26970000  0.51608000  0.21342000  1
  C  C25  1  0.22507000  0.54283000  0.21587000  1
  C  C26  1  0.27021000  0.65994000  0.68747000  1
  C  C27  1  0.19833000  0.57980000  0.67207000  1
  C  C28  1  0.22072000  0.53294000  0.66867000  1
  C  C29  1  0.31298000  0.56741000  0.67884000  1
  C  C30  1  0.38320000  0.64879000  0.69048000  1
  C  C31  1  0.36250000  0.69017000  0.69998000  1
  C  C32  1  0.23793000  0.08787000  0.04025000  1
  C  C33  1  0.94309000  0.71951000  0.09600000  1
  C  C34  1  0.88025000  0.14165000  0.05634000  1
  C  C35  1  0.74413000  0.86930000  0.15790000  1
  C  C36  1  0.09689000  0.20439000  0.16338000  1
  C  C37  1  0.18511000  0.86474000  0.16532000  1
  C  C38  1  0.96262000  0.95680000  0.26231000  1
  C  C39  1  0.23478000  0.10930000  0.53513000  1
  C  C40  1  0.97068000  0.73141000  0.59952000  1
  C  C41  1  0.85138000  0.11640000  0.56104000  1
  C  C42  1  0.74313000  0.85213000  0.66621000  1
  C  C43  1  0.07591000  0.20258000  0.65731000  1
  C  C44  1  0.20539000  0.89619000  0.66523000  1
  C  C45  1  0.97104000  0.95620000  0.76596000  1
  C  C46  1  0.99117000  0.94695000  0.90995000  1
  C  C47  1  0.94996000  0.86977000  0.89761000  1
  C  C48  1  0.95904000  0.87459000  0.85447000  1
  C  C49  1  0.04607000  0.03372000  0.83257000  1
  C  C50  1  0.99907000  0.95189000  0.41007000  1
  C  C51  1  0.99449000  0.88867000  0.40260000  1
  C  C52  1  0.99448000  0.89619000  0.35566000  1
  C  C53  1  0.13582000  0.43321000  0.61459000  1
  C  C54  1  0.15001000  0.44345000  0.65980000  1
  C  C55  1  0.13268000  0.37154000  0.70201000  1
  C  C56  1  0.12484000  0.30094000  0.70251000  1
  C  C57  1  0.11629000  0.29214000  0.65832000  1
  C  C58  1  0.12222000  0.35954000  0.61392000  1
  C  C59  1  0.54979000  0.71223000  0.72715000  1
  C  C60  1  0.47573000  0.69641000  0.68492000  1
  C  C61  1  0.48830000  0.71806000  0.63817000  1
  C  C62  1  0.57543000  0.75881000  0.63386000  1
  C  C63  1  0.65094000  0.78123000  0.67514000  1
  C  C64  1  0.63714000  0.75325000  0.72263000  1
  C  C65  1  0.18966000  0.68854000  0.70893000  1
  C  C66  1  0.25158000  0.71937000  0.68371000  1
  C  C67  1  0.30775000  0.81081000  0.66195000  1
  C  C68  1  0.30980000  0.86988000  0.67084000  1
  C  C69  1  0.23818000  0.83947000  0.68778000  1
  C  C70  1  0.18208000  0.74823000  0.71076000  1
  C  C71  1  0.22687000  0.36572000  0.23686000  1
  C  C72  1  0.21711000  0.43266000  0.20021000  1
  C  C73  1  0.18353000  0.43124000  0.14932000  1
  C  C74  1  0.15717000  0.36165000  0.13616000  1
  C  C75  1  0.16287000  0.29274000  0.17313000  1
  C  C76  1  0.20555000  0.29931000  0.22325000  1
  C  C77  1  0.58029000  0.72002000  0.24220000  1
  C  C78  1  0.50565000  0.72454000  0.20983000  1
  C  C79  1  0.50868000  0.77373000  0.15972000  1
  C  C80  1  0.58268000  0.81254000  0.14171000  1
  C  C81  1  0.65693000  0.80712000  0.17380000  1
  C  C82  1  0.65481000  0.75921000  0.22434000  1
  C  C83  1  0.20423000  0.74400000  0.23031000  1
  C  C84  1  0.19893000  0.79513000  0.18060000  1
  C  C85  1  0.20876000  0.78079000  0.14500000  1
  C  C86  1  0.21385000  0.71143000  0.15845000  1
  C  C87  1  0.23022000  0.66820000  0.20860000  1
  C  C88  1  0.22318000  0.68276000  0.24490000  1
  C  C89  1  0.67987000  0.14443000  0.53572000  1
  C  C90  1  0.73019000  0.23681000  0.51598000  1
  C  C91  1  0.79958000  0.27877000  0.49230000  1
  C  C92  1  0.82883000  0.23135000  0.49733000  1
  C  C93  1  0.78910000  0.14294000  0.52539000  1
  C  C94  1  0.70532000  0.09686000  0.53697000  1
  C  C95  1  0.93068000  0.58197000  0.62210000  1
  C  C96  1  0.91177000  0.64453000  0.58881000  1
  C  C97  1  0.85544000  0.63347000  0.54034000  1
  C  C98  1  0.82294000  0.56305000  0.52520000  1
  C  C99  1  0.83490000  0.49636000  0.55981000  1
  C  C100  1  0.89161000  0.50753000  0.60821000  1
  C  C101  1  0.44964000  0.26330000  0.49163000  1
  C  C102  1  0.50706000  0.24392000  0.53491000  1
  C  C103  1  0.48044000  0.19654000  0.58073000  1
  C  C104  1  0.39536000  0.16640000  0.58227000  1
  C  C105  1  0.33354000  0.17698000  0.53794000  1
  C  C106  1  0.36353000  0.23117000  0.49308000  1
  C  C107  1  0.74711000  0.14796000  0.00069000  1
  C  C108  1  0.84334000  0.19223000  0.01636000  1
  C  C109  1  0.89869000  0.28345000  0.01248000  1
  C  C110  1  0.86184000  0.31819000  0.01445000  1
  C  C111  1  0.76554000  0.26827000  0.00768000  1
  C  C112  1  0.70811000  0.18861000  0.99274000  1
  C  C113  1  0.78199000  0.54490000  0.02611000  1
  C  C114  1  0.80870000  0.48765000  0.05697000  1
  C  C115  1  0.87062000  0.50174000  0.10403000  1
  C  C116  1  0.90310000  0.57093000  0.12010000  1
  C  C117  1  0.87897000  0.62998000  0.08862000  1
  C  C118  1  0.81435000  0.61409000  0.04237000  1
  C  C119  1  0.39579000  0.13617000  0.09139000  1
  C  C120  1  0.33768000  0.14616000  0.04454000  1
  C  C121  1  0.36898000  0.18706000  0.00082000  1
  C  C122  1  0.45342000  0.20957000  0.00404000  1
  C  C123  1  0.51111000  0.19856000  0.05075000  1
  C  C124  1  0.48123000  0.16013000  0.09470000  1
  N  N1  1  0.12305000  0.35794000  0.56948000  1
  N  N2  1  0.13418000  0.37500000  0.74666000  1
  N  N3  1  0.71205000  0.76718000  0.76621000  1
  N  N4  1  0.41267000  0.69947000  0.59489000  1
  N  N5  1  0.12574000  0.71762000  0.74048000  1
  N  N6  1  0.35661000  0.84292000  0.62735000  1
  N  N7  1  0.22507000  0.23687000  0.26068000  1
  N  N8  1  0.18025000  0.50248000  0.11078000  1
  N  N9  1  0.72778000  0.74964000  0.25761000  1
  N  N10  1  0.43461000  0.78152000  0.12645000  1
  N  N11  1  0.23584000  0.63636000  0.29643000  1
  N  N12  1  0.22327000  0.84170000  0.09700000  1
  N  N13  1  0.65108000  0.00234000  0.55496000  1
  N  N14  1  0.83782000  0.36759000  0.46182000  1
  N  N15  1  0.90675000  0.44169000  0.64408000  1
  N  N16  1  0.82825000  0.69169000  0.50692000  1
  N  N17  1  0.30470000  0.25042000  0.44841000  1
  N  N18  1  0.53885000  0.17721000  0.62555000  1
  N  N19  1  0.61435000  0.15501000  0.96470000  1
  N  N20  1  0.99323000  0.33944000  0.00946000  1
  N  N21  1  0.78055000  0.66741000  0.01205000  1
  N  N22  1  0.89861000  0.44404000  0.13630000  1
  N  N23  1  0.53792000  0.14590000  0.14279000  1
  N  N24  1  0.31290000  0.20250000  0.95271000  1
  O  O1  1  0.01087000  0.99972000  0.97402000  1
  O  O2  1  0.00187000  0.94870000  0.24355000  1
  O  O3  1  0.01218000  0.88147000  0.49861000  1
  O  O4  1  0.00532000  0.99927000  0.47195000  1
  O  O5  1  0.02996000  0.76340000  0.09764000  1
  O  O6  1  0.00998000  0.95101000  0.74517000  1
  O  O7  1  0.02424000  0.30944000  0.00251000  1
  O  O8  1  0.03502000  0.11246000  0.53445000  1
  O  O9  1  0.03066000  0.13516000  0.69166000  1
  O  O10  1  0.04134000  0.64656000  0.73612000  1
  O  O11  1  0.03922000  0.14067000  0.19289000  1
  O  O12  1  0.04513000  0.42286000  0.00812000  1
  O  O13  1  0.91032000  0.15029000  0.10151000  1
  O  O14  1  0.94682000  0.01326000  0.14081000  1
  O  O15  1  0.05757000  0.11822000  0.03995000  1
  O  O16  1  0.95632000  0.82700000  0.18853000  1
  O  O17  1  0.97918000  0.95861000  0.10440000  1
  O  O18  1  0.90240000  0.10684000  0.04544000  1
  O  O19  1  0.99982000  0.87216000  0.99765000  1
  O  O20  1  0.77316000  0.95255000  0.13607000  1
  O  O21  1  0.79205000  0.84099000  0.16612000  1
  O  O22  1  0.10816000  0.18713000  0.13276000  1
  O  O23  1  0.20708000  0.92526000  0.12421000  1
  O  O24  1  0.12622000  0.84960000  0.18271000  1
  O  O25  1  0.05027000  0.92364000  0.08121000  1
  O  O26  1  0.89227000  0.95959000  0.23371000  1
  O  O27  1  0.18671000  0.02261000  0.01972000  1
  O  O28  1  0.20191000  0.09186000  0.06311000  1
  O  O29  1  0.91831000  0.74725000  0.11089000  1
  O  O30  1  0.88897000  0.13120000  0.60518000  1
  O  O31  1  0.94108000  0.00746000  0.64274000  1
  O  O32  1  0.96402000  0.83027000  0.68912000  1
  O  O33  1  0.97346000  0.95689000  0.60339000  1
  O  O34  1  0.87583000  0.08641000  0.54775000  1
  O  O35  1  0.76571000  0.93356000  0.64606000  1
  O  O36  1  0.79773000  0.83160000  0.67402000  1
  O  O37  1  0.08675000  0.19068000  0.62364000  1
  O  O38  1  0.22312000  0.95241000  0.62216000  1
  O  O39  1  0.14373000  0.87781000  0.68175000  1
  O  O40  1  0.05450000  0.93276000  0.57970000  1
  O  O41  1  0.89661000  0.95274000  0.73988000  1
  O  O42  1  0.19220000  0.04360000  0.51681000  1
  O  O43  1  0.19292000  0.10598000  0.55797000  1
  O  O44  1  0.05836000  0.78336000  0.59958000  1
  O  O45  1  0.93783000  0.75295000  0.61335000  1
  O  O46  1  0.06249000  0.36085000  0.52814000  1
  O  O47  1  0.19265000  0.36796000  0.56840000  1
  O  O48  1  0.08325000  0.39287000  0.74468000  1
  O  O49  1  0.18469000  0.35818000  0.78950000  1
  O  O50  1  0.73006000  0.80402000  0.79674000  1
  O  O51  1  0.75761000  0.73695000  0.77737000  1
  O  O52  1  0.37599000  0.74160000  0.57580000  1
  O  O53  1  0.38521000  0.64541000  0.57240000  1
  O  O54  1  0.16162000  0.75591000  0.77523000  1
  O  O55  1  0.31115000  0.81615000  0.58643000  1
  O  O56  1  0.44479000  0.90589000  0.63398000  1
  O  O57  1  0.25909000  0.21301000  0.25087000  1
  O  O58  1  0.21153000  0.20597000  0.30503000  1
  O  O59  1  0.22752000  0.54900000  0.07722000  1
  O  O60  1  0.12442000  0.51626000  0.10685000  1
  O  O61  1  0.77252000  0.77550000  0.29882000  1
  O  O62  1  0.73812000  0.70151000  0.25125000  1
  O  O63  1  0.42751000  0.83514000  0.12930000  1
  O  O64  1  0.37863000  0.74030000  0.09087000  1
  O  O65  1  0.28764000  0.67876000  0.33135000  1
  O  O66  1  0.19215000  0.55108000  0.30858000  1
  O  O67  1  0.30468000  0.91597000  0.09356000  1
  O  O68  1  0.16261000  0.81505000  0.05666000  1
  O  O69  1  0.60956000  0.96362000  0.59017000  1
  O  O70  1  0.64172000  0.95482000  0.53538000  1
  O  O71  1  0.92686000  0.42483000  0.46717000  1
  O  O72  1  0.78346000  0.38980000  0.42673000  1
  O  O73  1  0.94327000  0.42045000  0.63422000  1
  O  O74  1  0.89094000  0.40820000  0.68811000  1
  O  O75  1  0.79513000  0.70900000  0.52260000  1
  O  O76  1  0.82483000  0.71749000  0.45946000  1
  O  O77  1  0.26078000  0.27259000  0.45018000  1
  O  O78  1  0.29687000  0.24797000  0.40574000  1
  O  O79  1  0.56246000  0.19827000  0.66544000  1
  O  O80  1  0.56298000  0.13304000  0.62753000  1
  O  O81  1  0.59365000  0.20908000  0.92987000  1
  O  O82  1  0.55054000  0.07015000  0.97221000  1
  O  O83  1  0.76968000  0.69275000  0.96373000  1
  O  O84  1  0.75113000  0.68230000  0.03204000  1
  O  O85  1  0.93807000  0.43342000  0.12074000  1
  O  O86  1  0.89035000  0.40691000  0.18233000  1
  O  O87  1  0.55232000  0.16918000  0.17922000  1
  O  O88  1  0.57192000  0.10627000  0.15077000  1
  O  O89  1  0.27673000  0.23953000  0.94563000  1
  O  O90  1  0.29931000  0.18090000  0.91575000  1
