# Generated by REPEAT Assigner based on pymatgen
data_DB7-ddmof_19905
_audit_creation_date              2022-05-24
_audit_creation_method            REPEAT_Assigner
_cell_length_a                    24.363870
_cell_length_b                    21.385320
_cell_length_c                    19.516640
_cell_angle_alpha                 92.705230
_cell_angle_beta                  85.318610
_cell_angle_gamma                 124.830650
_cell_volume                      8319.097896
_symmetry_space_group_name_H-M    P1
_symmetry_Int_Tables_number       1
loop_
    _symmetry_equiv_pos_site_id
    _symmetry_equiv_pos_as_xyz
    1  x,y,z
loop_
    _atom_site_type_symbol
    _atom_site_label
    _atom_site_fract_x
    _atom_site_fract_y
    _atom_site_fract_z
    _atom_type_partial_charge
    C   C1   0.919910  0.119600  0.905050  -0.463549
    C   C2   0.929450  0.093200  0.841000  0.003773
    C   C3   0.963970  0.058560  0.835380  -0.179015
    C   C4   0.989260  0.050020  0.893600  0.335454
    C   C5   0.982320  0.079790  0.957170  -0.172406
    C   C6   0.947530  0.113940  0.962770  -0.012068
    N   N1   0.018630  0.007160  0.888230  -0.483821
    C   C7   0.200660  0.114410  0.989000  -0.579001
    C   C8   0.140770  0.054230  0.021360  0.005845
    C   C9   0.080860  0.018330  0.988650  -0.144841
    C   C10  0.080330  0.041920  0.922490  0.351471
    C   C11  0.140430  0.101870  0.890200  -0.237995
    C   C12  0.200230  0.138160  0.923310  0.099004
    C   C13  0.882220  0.767130  0.916040  -0.535948
    C   C14  0.931440  0.797030  0.861100  0.078926
    C   C15  0.975670  0.875910  0.852060  -0.202065
    C   C16  0.971220  0.925740  0.897570  0.318955
    C   C17  0.920600  0.895620  0.951550  -0.160133
    C   C18  0.876740  0.816940  0.960770  0.050259
    H   H1   0.908480  0.097510  0.796040  0.083432
    H   H2   0.969510  0.036420  0.786180  0.120203
    H   H3   0.001740  0.074090  0.002600  0.120828
    H   H4   0.941310  0.135170  0.012230  0.109538
    H   H5   0.140480  0.035700  0.072190  0.071509
    H   H6   0.035000  0.973710  0.015420  0.110181
    H   H7   0.140650  0.120450  0.839450  0.128077
    H   H8   0.246360  0.183980  0.897460  0.088432
    H   H9   0.935400  0.759270  0.825340  0.062126
    H   H10  0.013600  0.898440  0.809730  0.125415
    H   H11  0.916820  0.932860  0.987900  0.108485
    H   H12  0.839410  0.794790  0.003670  0.080067
    C   C19  0.913830  0.122030  0.521140  -0.549300
    C   C20  0.918520  0.066170  0.486520  -0.029603
    C   C21  0.943840  0.031510  0.518670  -0.111336
    C   C22  0.963980  0.051780  0.586570  0.323874
    C   C23  0.958300  0.106930  0.621280  -0.209627
    C   C24  0.933740  0.142230  0.588680  0.070223
    N   N2   0.992910  0.019010  0.620080  -0.462107
    C   C25  0.204550  0.133240  0.599650  -0.469249
    C   C26  0.169120  0.102680  0.663230  -0.001380
    C   C27  0.099810  0.067470  0.670190  -0.167437
    C   C28  0.065360  0.062880  0.613870  0.311755
    C   C29  0.101720  0.097130  0.551050  -0.161032
    C   C30  0.170770  0.131560  0.544060  -0.004125
    C   C31  0.890970  0.779680  0.589570  -0.488334
    C   C32  0.947110  0.830430  0.546140  0.010335
    C   C33  0.981390  0.908880  0.556380  -0.135427
    C   C34  0.959610  0.937820  0.610160  0.302848
    C   C35  0.904500  0.887020  0.654490  -0.199809
    C   C36  0.870290  0.808340  0.644340  0.055935
    H   H13  0.903430  0.050330  0.434330  0.083322
    H   H14  0.949180  0.990460  0.490300  0.104269
    H   H15  0.973820  0.123100  0.673280  0.122692
    H   H16  0.929610  0.184760  0.616130  0.088613
    H   H17  0.194890  0.104210  0.706650  0.083417
    H   H18  0.072480  0.041920  0.718830  0.115688
    H   H19  0.076320  0.094130  0.506880  0.113035
    H   H20  0.197890  0.155950  0.495040  0.109249
    H   H21  0.963330  0.809180  0.503430  0.084834
    H   H22  0.023230  0.946980  0.521070  0.104680
    H   H23  0.888050  0.908650  0.696640  0.124702
    H   H24  0.827810  0.769760  0.679050  0.074821
    Co  Co1  0.713530  0.313960  0.970560  1.323741
    O   O1   0.783160  0.303160  0.911200  -0.624705
    Co  Co2  0.578490  0.313540  0.014200  1.362260
    O   O2   0.617680  0.255000  0.941630  -0.637295
    O   O3   0.655410  0.422790  0.004220  -0.567744
    O   O4   0.717550  0.217690  0.985140  -0.578000
    C   C37  0.712140  0.449970  0.965770  0.287100
    O   O5   0.562000  0.295700  0.906940  -0.576524
    C   C38  0.458720  0.246410  0.072470  0.370908
    C   C39  0.687440  0.341660  0.100670  0.643549
    O   O6   0.503610  0.319000  0.068640  -0.638235
    O   O7   0.483390  0.210790  0.044840  -0.527342
    O   O8   0.744640  0.361480  0.070430  -0.572527
    O   O9   0.638160  0.293940  0.063520  -0.593202
    O   O10  0.724490  0.404490  0.930070  -0.740251
    C   C40  0.764620  0.239170  0.937260  0.302894
    C   C41  0.597090  0.268830  0.889070  0.703050
    H   H25  0.749590  0.421430  0.883230  0.469863
    Co  Co3  0.739820  0.325540  0.487170  1.206420
    O   O11  0.820060  0.328760  0.435430  -0.631290
    Co  Co4  0.606270  0.329330  0.525570  1.329915
    O   O12  0.661790  0.306510  0.435420  -0.655692
    O   O13  0.686100  0.419680  0.565250  -0.537198
    O   O14  0.730550  0.221910  0.459600  -0.515770
    C   C42  0.745050  0.464230  0.531580  0.070944
    O   O15  0.624440  0.374630  0.424290  -0.550864
    C   C43  0.479960  0.256990  0.557550  0.326189
    C   C44  0.674180  0.283840  0.611630  0.746884
    O   O16  0.525970  0.321190  0.582960  -0.634633
    O   O17  0.504720  0.233220  0.511060  -0.578506
    O   O18  0.736070  0.309130  0.595150  -0.489548
    O   O19  0.640860  0.269670  0.557980  -0.602876
    O   O20  0.774580  0.436080  0.494030  -0.496138
    C   C45  0.791150  0.255950  0.432890  0.308216
    C   C46  0.661890  0.353890  0.396240  0.777546
    H   H26  0.818970  0.472280  0.467580  0.373044
    C   C47  0.640980  0.252200  0.680090  -0.292249
    C   C48  0.670910  0.234970  0.728540  0.181188
    C   C49  0.651310  0.232220  0.798600  -0.188905
    C   C50  0.598880  0.239620  0.819440  -0.173474
    C   C51  0.557350  0.233750  0.769370  0.061053
    C   C52  0.581930  0.246900  0.700330  -0.096440
    H   H27  0.677250  0.225160  0.836620  0.163618
    H   H28  0.555650  0.253810  0.662730  0.142596
    C   C53  0.717180  0.210720  0.706160  0.044498
    C   C54  0.486320  0.210390  0.788540  0.208952
    C   C55  0.790040  0.273280  0.719220  -0.157113
    H   H29  0.713020  0.193400  0.651250  0.042757
    H   H30  0.701800  0.159270  0.735700  -0.005162
    H   H31  0.806460  0.327640  0.694680  0.007310
    H   H32  0.822860  0.255610  0.697760  0.077241
    H   H33  0.796220  0.282950  0.775220  0.003626
    C   C56  0.434760  0.143490  0.745330  -0.202504
    H   H34  0.483670  0.259890  0.781770  -0.042349
    H   H35  0.471020  0.191720  0.842980  0.035265
    H   H36  0.440660  0.160730  0.691020  0.022212
    H   H37  0.383450  0.123740  0.765900  0.055735
    H   H38  0.439990  0.095300  0.747420  0.042381
    C   C57  0.672180  0.352090  0.320790  -0.225479
    C   C58  0.700340  0.418600  0.280740  0.080245
    C   C59  0.701760  0.412860  0.208720  -0.195344
    C   C60  0.678670  0.343010  0.176120  -0.078610
    C   C61  0.654400  0.277400  0.216180  0.060272
    C   C62  0.649890  0.282330  0.288120  -0.093797
    H   H39  0.723250  0.463660  0.177890  0.124037
    H   H40  0.628440  0.231410  0.318740  0.178812
    C   C63  0.736580  0.497040  0.313460  0.118210
    C   C64  0.631980  0.201360  0.183270  -0.007996
    C   C65  0.810320  0.529250  0.319400  -0.260981
    H   H41  0.713570  0.496670  0.364950  -0.058455
    H   H42  0.733330  0.536470  0.281630  0.032474
    H   H43  0.815370  0.489110  0.347640  0.047767
    H   H44  0.834870  0.584180  0.347710  0.071221
    H   H45  0.836290  0.539420  0.267460  0.082014
    C   C66  0.556520  0.152390  0.175540  -0.014833
    H   H46  0.644160  0.170160  0.215950  -0.008214
    H   H47  0.659050  0.208200  0.132600  0.088101
    H   H48  0.528910  0.138460  0.226870  -0.004053
    H   H49  0.541830  0.098380  0.148970  0.013982
    H   H50  0.541960  0.182510  0.144870  0.010693
    C   C67  0.783130  0.546830  0.545220  0.928424
    N   N3   0.850930  0.591420  0.534870  -0.376465
    N   N4   0.885390  0.665390  0.550110  -0.372984
    C   C68  0.853120  0.696890  0.576570  0.998597
    N   N5   0.785340  0.652190  0.587360  -0.357379
    N   N6   0.750890  0.578170  0.572190  -0.346683
    C   C69  0.886520  0.157900  0.487450  1.129930
    N   N7   0.919730  0.234850  0.487090  -0.446368
    N   N8   0.891620  0.266970  0.463290  -0.281204
    C   C70  0.829200  0.223050  0.439870  0.775637
    N   N9   0.797270  0.146250  0.437550  -0.354719
    N   N10  0.825720  0.114160  0.460590  -0.372243
    C   C71  0.408350  0.224310  0.568870  0.854325
    N   N11  0.385440  0.247140  0.623280  -0.301554
    N   N12  0.320150  0.217020  0.633930  -0.393322
    C   C72  0.276100  0.163600  0.590200  1.028223
    N   N13  0.299030  0.140520  0.536000  -0.402485
    N   N14  0.364220  0.170100  0.525760  -0.329424
    C   C73  0.756820  0.532730  0.953640  0.798281
    N   N15  0.820000  0.564700  0.924920  -0.380561
    N   N16  0.859730  0.639270  0.912190  -0.357016
    C   C74  0.837370  0.684010  0.927650  1.029430
    N   N17  0.774230  0.652000  0.956610  -0.369183
    N   N18  0.734590  0.577480  0.969510  -0.303754
    C   C75  0.878500  0.149740  0.912490  1.045387
    N   N19  0.830890  0.126110  0.965200  -0.402995
    N   N20  0.794340  0.154570  0.973000  -0.325427
    C   C76  0.804900  0.208070  0.928800  0.836391
    N   N21  0.852350  0.231570  0.875950  -0.280210
    N   N22  0.888550  0.202650  0.867790  -0.420139
    C   C77  0.264150  0.150190  0.022500  1.123932
    N   N23  0.280850  0.106280  0.049450  -0.353435
    N   N24  0.341800  0.138010  0.071510  -0.368231
    C   C78  0.387580  0.214630  0.067920  0.729539
    N   N25  0.369410  0.258850  0.044760  -0.253454
    N   N26  0.308680  0.227080  0.022070  -0.450009
