# generated using pymatgen
data_Co6H26C94N6(O7F10)3
_symmetry_space_group_name_H-M   'P 1'
_cell_length_a   27.72629000
_cell_length_b   28.92761000
_cell_length_c   30.83720000
_cell_angle_alpha   61.20504000
_cell_angle_beta   118.46885000
_cell_angle_gamma   133.26618000
_symmetry_Int_Tables_number   1
_chemical_formula_structural   Co6H26C94N6(O7F10)3
_chemical_formula_sum   'Co12 H52 C188 N12 O42 F60'
_cell_volume   15361.33309692
_cell_formula_units_Z   2
loop_
 _symmetry_equiv_pos_site_id
 _symmetry_equiv_pos_as_xyz
  1  'x, y, z'
loop_
 _atom_site_type_symbol
 _atom_site_label
 _atom_site_symmetry_multiplicity
 _atom_site_fract_x
 _atom_site_fract_y
 _atom_site_fract_z
 _atom_site_occupancy
  Co  Co1  1  0.09575000  0.97403000  0.17418000  1
  Co  Co2  1  0.91630000  0.97140000  0.12500000  1
  Co  Co3  1  0.03802000  0.01681000  0.20925000  1
  Co  Co4  1  0.97367000  0.92627000  0.09195000  1
  Co  Co5  1  0.08763000  0.91214000  0.10515000  1
  Co  Co6  1  0.92445000  0.03188000  0.19585000  1
  Co  Co7  1  0.07280000  0.96281000  0.66797000  1
  Co  Co8  1  0.92701000  0.00665000  0.61730000  1
  Co  Co9  1  0.04004000  0.02435000  0.70811000  1
  Co  Co10  1  0.96233000  0.94813000  0.57635000  1
  Co  Co11  1  0.04299000  0.89695000  0.58838000  1
  Co  Co12  1  0.94756000  0.06249000  0.69908000  1
  H  H1  1  0.87549000  0.90881000  0.84030000  1
  H  H2  1  0.10596000  0.01095000  0.95446000  1
  H  H3  1  0.08751000  0.05679000  0.34378000  1
  H  H4  1  0.90754000  0.89125000  0.44218000  1
  H  H5  1  0.28347000  0.56111000  0.66975000  1
  H  H6  1  0.14322000  0.34691000  0.78189000  1
  H  H7  1  0.18803000  0.20807000  0.80464000  1
  H  H8  1  0.14487000  0.35039000  0.64225000  1
  H  H9  1  0.49813000  0.75060000  0.79996000  1
  H  H10  1  0.49080000  0.78007000  0.62486000  1
  H  H11  1  0.75268000  0.82981000  0.71968000  1
  H  H12  1  0.60630000  0.90632000  0.62312000  1
  H  H13  1  0.17871000  0.88418000  0.74692000  1
  H  H14  1  0.04020000  0.65134000  0.74691000  1
  H  H15  1  0.20011000  0.59888000  0.81686000  1
  H  H16  1  0.20527000  0.78875000  0.68490000  1
  H  H17  1  0.18341000  0.20322000  0.28553000  1
  H  H18  1  0.09160000  0.32734000  0.15160000  1
  H  H19  1  0.24266000  0.54028000  0.17845000  1
  H  H20  1  0.14836000  0.32754000  0.30611000  1
  H  H21  1  0.69032000  0.89831000  0.10099000  1
  H  H22  1  0.64564000  0.73438000  0.26605000  1
  H  H23  1  0.37518000  0.65843000  0.17690000  1
  H  H24  1  0.60600000  0.79707000  0.27836000  1
  H  H25  1  0.03475000  0.74722000  0.22632000  1
  H  H26  1  0.27328000  0.82634000  0.31768000  1
  H  H27  1  0.29889000  0.75469000  0.21549000  1
  H  H28  1  0.15987000  0.63574000  0.34025000  1
  H  H29  1  0.01582000  0.26399000  0.56984000  1
  H  H30  1  0.76704000  0.15598000  0.51497000  1
  H  H31  1  0.73095000  0.31414000  0.46887000  1
  H  H32  1  0.89112000  0.27271000  0.61671000  1
  H  H33  1  0.85109000  0.49856000  0.59106000  1
  H  H34  1  0.66942000  0.53031000  0.51442000  1
  H  H35  1  0.80298000  0.76830000  0.48266000  1
  H  H36  1  0.81328000  0.60406000  0.64061000  1
  H  H37  1  0.53211000  0.18989000  0.53309000  1
  H  H38  1  0.50984000  0.16823000  0.69360000  1
  H  H39  1  0.26425000  0.95740000  0.68620000  1
  H  H40  1  0.38232000  0.18581000  0.58166000  1
  H  H41  1  0.76745000  0.03183000  0.06075000  1
  H  H42  1  0.91854000  0.27141000  0.99102000  1
  H  H43  1  0.85500000  0.33015000  0.07372000  1
  H  H44  1  0.71725000  0.19817000  0.94660000  1
  H  H45  1  0.87159000  0.48092000  0.07836000  1
  H  H46  1  0.73519000  0.56808000  0.98766000  1
  H  H47  1  0.90394000  0.79233000  0.01194000  1
  H  H48  1  0.83443000  0.57765000  0.13559000  1
  H  H49  1  0.30549000  0.03685000  0.19224000  1
  H  H50  1  0.38048000  0.19798000  0.03256000  1
  H  H51  1  0.53128000  0.18732000  0.01575000  1
  H  H52  1  0.53227000  0.22000000  0.16034000  1
  C  C1  1  0.73570000  0.31473000  0.02369000  1
  C  C2  1  0.65386000  0.28803000  0.05395000  1
  C  C3  1  0.74354000  0.39816000  0.02926000  1
  C  C4  1  0.74080000  0.32377000  0.55634000  1
  C  C5  1  0.72616000  0.39274000  0.56045000  1
  C  C6  1  0.64873000  0.27849000  0.58579000  1
  C  C7  1  0.28285000  0.64049000  0.27299000  1
  C  C8  1  0.26750000  0.55126000  0.26974000  1
  C  C9  1  0.37286000  0.65474000  0.26471000  1
  C  C10  1  0.26976000  0.65212000  0.74738000  1
  C  C11  1  0.37058000  0.68104000  0.74344000  1
  C  C12  1  0.27156000  0.57302000  0.74499000  1
  C  C13  1  0.12569000  0.87868000  0.21736000  1
  C  C14  1  0.00860000  0.94670000  0.00161000  1
  C  C15  1  0.07347000  0.13852000  0.21466000  1
  C  C16  1  0.89975000  0.08181000  0.08377000  1
  C  C17  1  0.97203000  0.96508000  0.29408000  1
  C  C18  1  0.20703000  0.04655000  0.11773000  1
  C  C19  1  0.94548000  0.79753000  0.10912000  1
  C  C20  1  0.80138000  0.90536000  0.16755000  1
  C  C21  1  0.04626000  0.83152000  0.69698000  1
  C  C22  1  0.02152000  0.98362000  0.49180000  1
  C  C23  1  0.09869000  0.14918000  0.72631000  1
  C  C24  1  0.93800000  0.13127000  0.59014000  1
  C  C25  1  0.97239000  0.97370000  0.79151000  1
  C  C26  1  0.18490000  0.99925000  0.63659000  1
  C  C27  1  0.89265000  0.81733000  0.56542000  1
  C  C28  1  0.81339000  0.95088000  0.65661000  1
  C  C29  1  0.92586000  0.93145000  0.86504000  1
  C  C30  1  0.98182000  0.96003000  0.84756000  1
  C  C31  1  0.04754000  0.98746000  0.88087000  1
  C  C32  1  0.05605000  0.99013000  0.92889000  1
  C  C33  1  0.00023000  0.96234000  0.94587000  1
  C  C34  1  0.93473000  0.93492000  0.91279000  1
  C  C35  1  0.87508000  0.91315000  0.92679000  1
  C  C36  1  0.10772000  0.00980000  0.86721000  1
  C  C37  1  0.04889000  0.02023000  0.36579000  1
  C  C38  1  0.98871000  0.96453000  0.34798000  1
  C  C39  1  0.93895000  0.91567000  0.37754000  1
  C  C40  1  0.94704000  0.92715000  0.42099000  1
  C  C41  1  0.00710000  0.98277000  0.43885000  1
  C  C42  1  0.05786000  0.03089000  0.41016000  1
  C  C43  1  0.12205000  0.09312000  0.42697000  1
  C  C44  1  0.87605000  0.85201000  0.36233000  1
  C  C45  1  0.17481000  0.39376000  0.75797000  1
  C  C46  1  0.19886000  0.39765000  0.72424000  1
  C  C47  1  0.23708000  0.45832000  0.69183000  1
  C  C48  1  0.25298000  0.51446000  0.69442000  1
  C  C49  1  0.23510000  0.51179000  0.73168000  1
  C  C50  1  0.19384000  0.45078000  0.76232000  1
  C  C51  1  0.18518000  0.33845000  0.72363000  1
  C  C52  1  0.20104000  0.29977000  0.76893000  1
  C  C53  1  0.18088000  0.24021000  0.76892000  1
  C  C54  1  0.14623000  0.21956000  0.72360000  1
  C  C55  1  0.13978000  0.26280000  0.67751000  1
  C  C56  1  0.15617000  0.32050000  0.67766000  1
  C  C57  1  0.49277000  0.77438000  0.66295000  1
  C  C58  1  0.55497000  0.79846000  0.69897000  1
  C  C59  1  0.55704000  0.79223000  0.74788000  1
  C  C60  1  0.49663000  0.75824000  0.76144000  1
  C  C61  1  0.43413000  0.73149000  0.72602000  1
  C  C62  1  0.43282000  0.74190000  0.67616000  1
  C  C63  1  0.61817000  0.83320000  0.68441000  1
  C  C64  1  0.65833000  0.81015000  0.71010000  1
  C  C65  1  0.72012000  0.84577000  0.69780000  1
  C  C66  1  0.74163000  0.90402000  0.65944000  1
  C  C67  1  0.69854000  0.92374000  0.63106000  1
  C  C68  1  0.63770000  0.88904000  0.64395000  1
  C  C69  1  0.07070000  0.70179000  0.74798000  1
  C  C70  1  0.14178000  0.74070000  0.75670000  1
  C  C71  1  0.18067000  0.80531000  0.75992000  1
  C  C72  1  0.14829000  0.83286000  0.74829000  1
  C  C73  1  0.07709000  0.79658000  0.73239000  1
  C  C74  1  0.03848000  0.72936000  0.73652000  1
  C  C75  1  0.17422000  0.71732000  0.75453000  1
  C  C76  1  0.17205000  0.66297000  0.79132000  1
  C  C77  1  0.20093000  0.64002000  0.78785000  1
  C  C78  1  0.23252000  0.67138000  0.74786000  1
  C  C79  1  0.23358000  0.72498000  0.71066000  1
  C  C80  1  0.20451000  0.74767000  0.71399000  1
  C  C81  1  0.11319000  0.30147000  0.18041000  1
  C  C82  1  0.15880000  0.32227000  0.22533000  1
  C  C83  1  0.18719000  0.28869000  0.26187000  1
  C  C84  1  0.16520000  0.23153000  0.25546000  1
  C  C85  1  0.11593000  0.20834000  0.21213000  1
  C  C86  1  0.09387000  0.24623000  0.17310000  1
  C  C87  1  0.17695000  0.37938000  0.23376000  1
  C  C88  1  0.20157000  0.43933000  0.19715000  1
  C  C89  1  0.22150000  0.49376000  0.20622000  1
  C  C90  1  0.22163000  0.49038000  0.25323000  1
  C  C91  1  0.19300000  0.42969000  0.28852000  1
  C  C92  1  0.16979000  0.37412000  0.27847000  1
  C  C93  1  0.65535000  0.77024000  0.23004000  1
  C  C94  1  0.60867000  0.78508000  0.19750000  1
  C  C95  1  0.62052000  0.82963000  0.15004000  1
  C  C96  1  0.68024000  0.86172000  0.13667000  1
  C  C97  1  0.73040000  0.85244000  0.17154000  1
  C  C98  1  0.71595000  0.80363000  0.21698000  1
  C  C99  1  0.54807000  0.75488000  0.21340000  1
  C  C100  1  0.48261000  0.71614000  0.18471000  1
  C  C101  1  0.42548000  0.68906000  0.19895000  1
  C  C102  1  0.43274000  0.69764000  0.24335000  1
  C  C103  1  0.49813000  0.73757000  0.27152000  1
  C  C104  1  0.55565000  0.76644000  0.25639000  1
  C  C105  1  0.22087000  0.80840000  0.29841000  1
  C  C106  1  0.17634000  0.75038000  0.28220000  1
  C  C107  1  0.10769000  0.72605000  0.25973000  1
  C  C108  1  0.08647000  0.76406000  0.24727000  1
  C  C109  1  0.13424000  0.82752000  0.25517000  1
  C  C110  1  0.19970000  0.84662000  0.28534000  1
  C  C111  1  0.20397000  0.72216000  0.28039000  1
  C  C112  1  0.24338000  0.75545000  0.24525000  1
  C  C113  1  0.26897000  0.72870000  0.24298000  1
  C  C114  1  0.25525000  0.66824000  0.27556000  1
  C  C115  1  0.21566000  0.63479000  0.31071000  1
  C  C116  1  0.19015000  0.66173000  0.31302000  1
  C  C117  1  0.82144000  0.18016000  0.52606000  1
  C  C118  1  0.86663000  0.24353000  0.53384000  1
  C  C119  1  0.93705000  0.27520000  0.54580000  1
  C  C120  1  0.96157000  0.24064000  0.55684000  1
  C  C121  1  0.91601000  0.17414000  0.55631000  1
  C  C122  1  0.84627000  0.14614000  0.53615000  1
  C  C123  1  0.84055000  0.27211000  0.53749000  1
  C  C124  1  0.79632000  0.28533000  0.49553000  1
  C  C125  1  0.76684000  0.30630000  0.50090000  1
  C  C126  1  0.78164000  0.31462000  0.54803000  1
  C  C127  1  0.82803000  0.30409000  0.58931000  1
  C  C128  1  0.85711000  0.28273000  0.58410000  1
  C  C129  1  0.70943000  0.52402000  0.53066000  1
  C  C130  1  0.77421000  0.57025000  0.55495000  1
  C  C131  1  0.82602000  0.56199000  0.57506000  1
  C  C132  1  0.81179000  0.50604000  0.57331000  1
  C  C133  1  0.74606000  0.45836000  0.55101000  1
  C  C134  1  0.69573000  0.46905000  0.52783000  1
  C  C135  1  0.78811000  0.62800000  0.55839000  1
  C  C136  1  0.78141000  0.67299000  0.51401000  1
  C  C137  1  0.80428000  0.73213000  0.51726000  1
  C  C138  1  0.83735000  0.74836000  0.56440000  1
  C  C139  1  0.83508000  0.69971000  0.60902000  1
  C  C140  1  0.81109000  0.63986000  0.60603000  1
  C  C141  1  0.51463000  0.17228000  0.65884000  1
  C  C142  1  0.45635000  0.13926000  0.62262000  1
  C  C143  1  0.46307000  0.14334000  0.57833000  1
  C  C144  1  0.52756000  0.18419000  0.56864000  1
  C  C145  1  0.58551000  0.22162000  0.60286000  1
  C  C146  1  0.57906000  0.21324000  0.64910000  1
  C  C147  1  0.38863000  0.10488000  0.62916000  1
  C  C148  1  0.35553000  0.04080000  0.65935000  1
  C  C149  1  0.29001000  0.00739000  0.66365000  1
  C  C150  1  0.25706000  0.03776000  0.63785000  1
  C  C151  1  0.29113000  0.10269000  0.60900000  1
  C  C152  1  0.35670000  0.13608000  0.60468000  1
  C  C153  1  0.88510000  0.21902000  0.00564000  1
  C  C154  1  0.82168000  0.19027000  0.01155000  1
  C  C155  1  0.77750000  0.12187000  0.02812000  1
  C  C156  1  0.79996000  0.08386000  0.04438000  1
  C  C157  1  0.86713000  0.11398000  0.04571000  1
  C  C158  1  0.90787000  0.18101000  0.02279000  1
  C  C159  1  0.80623000  0.23191000  0.00829000  1
  C  C160  1  0.84604000  0.27101000  0.04312000  1
  C  C161  1  0.82534000  0.30213000  0.04550000  1
  C  C162  1  0.76426000  0.29363000  0.01383000  1
  C  C163  1  0.72635000  0.25746000  0.97720000  1
  C  C164  1  0.74765000  0.22725000  0.97415000  1
  C  C165  1  0.76559000  0.54979000  0.00697000  1
  C  C166  1  0.82581000  0.57958000  0.04340000  1
  C  C167  1  0.86588000  0.55667000  0.06697000  1
  C  C168  1  0.84258000  0.50077000  0.05753000  1
  C  C169  1  0.77919000  0.46742000  0.02461000  1
  C  C170  1  0.74279000  0.49446000  0.99711000  1
  C  C171  1  0.84533000  0.63285000  0.05835000  1
  C  C172  1  0.86199000  0.69280000  0.02305000  1
  C  C173  1  0.88686000  0.74512000  0.03866000  1
  C  C174  1  0.89645000  0.73847000  0.08977000  1
  C  C175  1  0.87482000  0.67705000  0.12417000  1
  C  C176  1  0.84911000  0.62437000  0.10844000  1
  C  C177  1  0.36414000  0.16269000  0.06739000  1
  C  C178  1  0.40543000  0.14381000  0.10650000  1
  C  C179  1  0.38499000  0.09994000  0.15222000  1
  C  C180  1  0.32220000  0.07279000  0.15767000  1
  C  C181  1  0.27887000  0.08820000  0.11720000  1
  C  C182  1  0.30090000  0.13467000  0.07254000  1
  C  C183  1  0.47013000  0.17045000  0.09950000  1
  C  C184  1  0.47042000  0.15902000  0.06021000  1
  C  C185  1  0.53180000  0.19351000  0.04798000  1
  C  C186  1  0.59312000  0.23926000  0.07507000  1
  C  C187  1  0.59327000  0.24570000  0.11751000  1
  C  C188  1  0.53194000  0.21196000  0.12929000  1
  N  N1  1  0.67804000  0.26910000  0.04160000  1
  N  N2  1  0.68614000  0.35243000  0.04707000  1
  N  N3  1  0.76916000  0.37940000  0.01826000  1
  N  N4  1  0.76219000  0.38510000  0.54948000  1
  N  N5  1  0.67029000  0.33939000  0.57925000  1
  N  N6  1  0.68363000  0.27057000  0.57399000  1
  N  N7  1  0.24184000  0.57642000  0.27209000  1
  N  N8  1  0.33416000  0.58957000  0.27007000  1
  N  N9  1  0.34767000  0.68025000  0.26716000  1
  N  N10  1  0.33619000  0.69808000  0.74448000  1
  N  N11  1  0.33907000  0.61794000  0.74668000  1
  N  N12  1  0.23672000  0.58977000  0.74611000  1
  O  O1  1  0.01959000  0.09860000  0.23339000  1
  O  O2  1  0.96432000  0.00814000  0.17349000  1
  O  O3  1  0.11436000  0.01094000  0.22646000  1
  O  O4  1  0.89421000  0.92673000  0.07704000  1
  O  O5  1  0.01734000  0.99389000  0.13878000  1
  O  O6  1  0.09359000  0.11570000  0.20398000  1
  O  O7  1  0.16115000  0.01109000  0.08374000  1
  O  O8  1  0.19048000  0.04240000  0.15434000  1
  O  O9  1  0.93720000  0.09952000  0.12709000  1
  O  O10  1  0.89229000  0.03720000  0.07340000  1
  O  O11  1  0.91718000  0.96136000  0.26295000  1
  O  O12  1  0.00822000  0.96279000  0.27916000  1
  O  O13  1  0.00886000  0.81707000  0.12934000  1
  O  O14  1  0.92417000  0.82515000  0.11209000  1
  O  O15  1  0.05189000  0.94459000  0.12226000  1
  O  O16  1  0.82513000  0.96530000  0.16184000  1
  O  O17  1  0.83697000  0.89477000  0.16167000  1
  O  O18  1  0.15034000  0.90989000  0.17706000  1
  O  O19  1  0.09022000  0.89063000  0.22157000  1
  O  O20  1  0.02612000  0.90703000  0.03179000  1
  O  O21  1  0.99171000  0.96652000  0.01940000  1
  O  O22  1  0.04450000  0.11383000  0.74347000  1
  O  O23  1  0.97567000  0.03182000  0.67164000  1
  O  O24  1  0.10205000  0.00095000  0.72391000  1
  O  O25  1  0.89834000  0.96887000  0.56133000  1
  O  O26  1  0.01629000  0.00767000  0.63336000  1
  O  O27  1  0.11053000  0.12187000  0.71216000  1
  O  O28  1  0.14332000  0.93942000  0.63057000  1
  O  O29  1  0.16568000  0.02081000  0.64981000  1
  O  O30  1  0.97440000  0.13953000  0.63629000  1
  O  O31  1  0.92286000  0.08704000  0.57320000  1
  O  O32  1  0.92490000  0.98211000  0.75993000  1
  O  O33  1  0.00164000  0.96527000  0.77464000  1
  O  O34  1  0.94377000  0.84833000  0.54612000  1
  O  O35  1  0.89305000  0.84717000  0.58726000  1
  O  O36  1  0.02846000  0.94368000  0.61113000  1
  O  O37  1  0.84726000  0.01130000  0.65811000  1
  O  O38  1  0.84120000  0.93460000  0.64725000  1
  O  O39  1  0.01230000  0.82106000  0.65128000  1
  O  O40  1  0.05024000  0.87045000  0.71178000  1
  O  O41  1  0.06887000  0.97652000  0.52675000  1
  O  O42  1  0.98238000  0.98529000  0.50401000  1
  F  F1  1  0.81623000  0.89039000  0.88878000  1
  F  F2  1  0.89018000  0.96551000  0.93460000  1
  F  F3  1  0.86214000  0.86339000  0.97067000  1
  F  F4  1  0.12175000  0.06081000  0.82425000  1
  F  F5  1  0.09312000  0.95826000  0.85851000  1
  F  F6  1  0.16596000  0.03142000  0.90585000  1
  F  F7  1  0.15380000  0.14140000  0.38731000  1
  F  F8  1  0.16687000  0.08002000  0.46580000  1
  F  F9  1  0.10676000  0.11727000  0.44401000  1
  F  F10  1  0.89057000  0.83224000  0.34009000  1
  F  F11  1  0.82600000  0.86037000  0.32840000  1
  F  F12  1  0.85133000  0.80251000  0.40438000  1
  F  F13  1  0.26179000  0.46351000  0.65961000  1
  F  F14  1  0.17501000  0.44700000  0.79792000  1
  F  F15  1  0.23428000  0.31897000  0.81310000  1
  F  F16  1  0.11294000  0.24658000  0.63281000  1
  F  F17  1  0.61736000  0.81854000  0.78227000  1
  F  F18  1  0.37269000  0.71709000  0.64132000  1
  F  F19  1  0.63808000  0.75400000  0.74742000  1
  F  F20  1  0.71728000  0.97843000  0.59246000  1
  F  F21  1  0.24966000  0.84259000  0.77115000  1
  F  F22  1  0.96947000  0.69229000  0.72459000  1
  F  F23  1  0.14283000  0.63297000  0.83069000  1
  F  F24  1  0.26261000  0.75497000  0.67117000  1
  F  F25  1  0.23483000  0.31054000  0.30400000  1
  F  F26  1  0.05016000  0.22710000  0.12931000  1
  F  F27  1  0.20970000  0.44577000  0.15402000  1
  F  F28  1  0.19130000  0.42528000  0.33370000  1
  F  F29  1  0.57594000  0.84451000  0.11807000  1
  F  F30  1  0.76255000  0.79175000  0.25000000  1
  F  F31  1  0.47435000  0.70335000  0.14374000  1
  F  F32  1  0.50599000  0.74633000  0.31452000  1
  F  F33  1  0.06296000  0.66835000  0.24609000  1
  F  F34  1  0.24542000  0.90606000  0.29634000  1
  F  F35  1  0.25621000  0.81343000  0.21289000  1
  F  F36  1  0.20303000  0.57696000  0.34325000  1
  F  F37  1  0.98162000  0.33802000  0.55004000  1
  F  F38  1  0.80209000  0.08433000  0.52991000  1
  F  F39  1  0.78101000  0.27681000  0.44989000  1
  F  F40  1  0.84281000  0.31200000  0.63507000  1
  F  F41  1  0.88981000  0.60773000  0.59675000  1
  F  F42  1  0.63272000  0.42485000  0.50408000  1
  F  F43  1  0.75707000  0.66143000  0.46764000  1
  F  F44  1  0.86209000  0.71273000  0.65517000  1
  F  F45  1  0.40696000  0.10997000  0.54370000  1
  F  F46  1  0.63500000  0.24764000  0.68328000  1
  F  F47  1  0.38634000  0.01050000  0.68367000  1
  F  F48  1  0.25966000  0.13244000  0.58345000  1
  F  F49  1  0.71506000  0.09288000  0.03251000  1
  F  F50  1  0.97175000  0.21028000  0.02122000  1
  F  F51  1  0.90277000  0.27595000  0.07649000  1
  F  F52  1  0.66787000  0.25002000  0.94559000  1
  F  F53  1  0.92613000  0.58719000  0.10033000  1
  F  F54  1  0.68277000  0.46426000  0.96347000  1
  F  F55  1  0.85766000  0.70148000  0.97430000  1
  F  F56  1  0.88297000  0.66961000  0.17359000  1
  F  F57  1  0.42477000  0.08179000  0.19056000  1
  F  F58  1  0.25994000  0.15092000  0.03348000  1
  F  F59  1  0.41105000  0.11647000  0.03266000  1
  F  F60  1  0.65273000  0.28711000  0.14584000  1
