# Generated by REPEAT Assigner based on pymatgen
data_DB7-ddmof_23347
_audit_creation_date              2022-05-24
_audit_creation_method            REPEAT_Assigner
_cell_length_a                    25.409320
_cell_length_b                    22.547950
_cell_length_c                    31.768520
_cell_angle_alpha                 103.958410
_cell_angle_beta                  115.909730
_cell_angle_gamma                 111.668330
_cell_volume                      13334.280847
_symmetry_space_group_name_H-M    P1
_symmetry_Int_Tables_number       1
loop_
    _symmetry_equiv_pos_site_id
    _symmetry_equiv_pos_as_xyz
    1  x,y,z
loop_
    _atom_site_type_symbol
    _atom_site_label
    _atom_site_fract_x
    _atom_site_fract_y
    _atom_site_fract_z
    _atom_type_partial_charge
    C   C1    0.537100  0.222360  0.868080  0.238198
    C   C2    0.563120  0.288430  0.867240  -0.271755
    C   C3    0.619770  0.314470  0.863980  0.247895
    C   C4    0.649870  0.274040  0.860950  -0.270466
    C   C5    0.624030  0.208120  0.861960  0.239494
    C   C6    0.567330  0.182040  0.865150  -0.265484
    H   H1    0.540370  0.320190  0.870280  0.169027
    H   H2    0.694540  0.294850  0.859400  0.168599
    H   H3    0.547970  0.131530  0.866750  0.163203
    C   C7    0.527010  0.220090  0.364780  0.237970
    C   C8    0.552340  0.285770  0.363340  -0.273648
    C   C9    0.608490  0.311640  0.359480  0.253522
    C   C10   0.638770  0.271400  0.356470  -0.277336
    C   C11   0.613640  0.205870  0.358090  0.245756
    C   C12   0.557430  0.179970  0.361870  -0.267393
    H   H4    0.529460  0.317390  0.366380  0.169493
    H   H5    0.683080  0.292090  0.354470  0.169982
    H   H6    0.538620  0.129770  0.363930  0.163929
    C   C13   0.512490  0.800990  0.018760  0.243924
    C   C14   0.479550  0.838150  0.022510  -0.295368
    C   C15   0.419050  0.804780  0.020510  0.286707
    C   C16   0.391770  0.734640  0.014930  -0.292773
    C   C17   0.424270  0.697370  0.010840  0.263306
    C   C18   0.484750  0.730580  0.012930  -0.287544
    H   H7    0.500440  0.892260  0.026410  0.171684
    H   H8    0.344700  0.708660  0.012970  0.174540
    H   H9    0.509840  0.701600  0.009640  0.171611
    C   C19   0.502790  0.794460  0.514380  0.233053
    C   C20   0.469160  0.831970  0.512880  -0.280397
    C   C21   0.407650  0.801850  0.509840  0.263151
    C   C22   0.380130  0.734540  0.508730  -0.273616
    C   C23   0.413560  0.696900  0.510070  0.246147
    C   C24   0.475060  0.727000  0.513130  -0.270694
    H   H10   0.490010  0.883660  0.513050  0.165342
    H   H11   0.332090  0.710840  0.505750  0.169680
    H   H12   0.500630  0.697550  0.513690  0.166452
    Zn  Zn1   0.176630  0.153030  0.000970  1.169550
    Zn  Zn2   0.057750  0.090750  0.887210  1.286206
    O   O1    0.048060  0.968460  0.802970  -0.649006
    O   O2    0.020610  0.054770  0.808940  -0.613754
    O   O3    0.061620  0.889700  0.883470  -0.719968
    C   C25   0.240300  0.112870  0.955810  0.897175
    O   O4    0.995900  0.991970  0.870920  -0.954380
    C   C26   0.174110  0.249830  0.953360  0.761762
    O   O5    0.253400  0.151350  0.001400  -0.715573
    O   O6    0.175750  0.070210  0.913030  -0.661348
    O   O7    0.082140  0.106340  0.961200  -1.177771
    O   O8    0.116340  0.987910  0.963040  -0.791288
    O   O9    0.126830  0.190800  0.906020  -0.653742
    O   O10   0.197730  0.245700  0.997920  -0.626538
    Zn  Zn3   0.872720  0.878390  0.895710  1.141839
    Zn  Zn4   0.993770  0.922280  0.996630  1.314650
    Zn  Zn5   0.022570  0.007170  0.941320  1.452733
    C   C27   0.872210  0.770050  0.935270  0.894849
    C   C28   0.836930  0.938340  0.959220  0.780616
    O   O11   0.931110  0.032360  0.920490  -0.750116
    Zn  Zn6   0.002910  0.059640  0.031020  1.257285
    O   O12   0.938070  0.818570  0.975990  -0.674694
    O   O13   0.836980  0.784650  0.898890  -0.675097
    O   O14   0.816330  0.907760  0.909650  -0.629508
    O   O15   0.898480  0.956430  0.997960  -0.762660
    C   C29   0.035010  0.010290  0.109220  0.645039
    O   O16   0.962530  0.908250  0.921580  -1.204624
    C   C30   0.930090  0.083800  0.949880  0.954965
    O   O17   0.024410  0.952770  0.074610  -0.655337
    O   O18   0.039740  0.066050  0.101090  -0.685689
    O   O19   0.962340  0.106920  0.001240  -0.711425
    O   O20   0.047050  0.021660  0.011160  -1.131267
    Zn  Zn7   0.020040  0.930350  0.844710  1.176062
    C   C31   0.029630  0.008310  0.783520  0.501701
    C   C32   0.113260  0.932120  0.934180  1.139566
    H   H13   0.097630  0.047180  0.039030  0.408224
    H   H14   0.945980  0.973380  0.846110  0.319422
    Zn  Zn8   0.168040  0.150180  0.498570  1.169143
    Zn  Zn9   0.050440  0.088030  0.384110  1.274529
    O   O21   0.044940  0.966720  0.302770  -0.642107
    O   O22   0.016490  0.052210  0.306520  -0.616602
    O   O23   0.049310  0.882950  0.380030  -0.729973
    C   C33   0.233350  0.108890  0.455620  0.860925
    O   O24   0.987510  0.989160  0.367130  -0.930660
    C   C34   0.165750  0.247210  0.451240  0.762195
    O   O25   0.245950  0.149770  0.500290  -0.706412
    O   O26   0.168740  0.062440  0.413430  -0.656838
    O   O27   0.073490  0.103140  0.457660  -1.173928
    O   O28   0.103690  0.981470  0.459360  -0.808359
    O   O29   0.120600  0.188130  0.403880  -0.650636
    O   O30   0.189080  0.243010  0.495780  -0.626822
    Zn  Zn10  0.860940  0.876030  0.390480  1.154539
    Zn  Zn11  0.981540  0.919240  0.491760  1.318045
    Zn  Zn12  0.012330  0.004210  0.437170  1.451065
    C   C35   0.859210  0.767180  0.429760  0.913825
    C   C36   0.826360  0.936000  0.454680  0.770675
    O   O31   0.921980  0.031300  0.415800  -0.747445
    Zn  Zn13  0.991970  0.056860  0.526420  1.258364
    O   O32   0.924890  0.815600  0.470880  -0.680751
    O   O33   0.824630  0.781900  0.393150  -0.678476
    O   O34   0.805060  0.905650  0.404910  -0.631982
    O   O35   0.887840  0.953280  0.492800  -0.750756
    C   C37   0.024590  0.007700  0.604900  0.643680
    O   O36   0.950720  0.905490  0.416830  -1.230943
    C   C38   0.919820  0.081620  0.445160  0.939427
    O   O37   0.013010  0.949780  0.569880  -0.654043
    O   O38   0.028170  0.063010  0.596440  -0.686760
    O   O39   0.951280  0.103920  0.496400  -0.710767
    O   O40   0.035820  0.018570  0.506690  -1.126070
    Zn  Zn14  0.012720  0.927530  0.342320  1.172114
    C   C39   0.027710  0.006730  0.282790  0.487027
    C   C40   0.096750  0.921730  0.431770  1.202971
    H   H15   0.086260  0.043620  0.534750  0.403446
    H   H16   0.937750  0.970650  0.341720  0.315385
    C   C41   0.058530  0.973820  0.685030  -0.045008
    H   H17   0.083500  0.945750  0.676820  0.038998
    C   C42   0.992910  0.939110  0.684540  -0.053391
    H   H18   0.963670  0.882340  0.676630  0.018648
    C   C43   0.094340  0.042920  0.737410  -0.102173
    H   H19   0.148790  0.071750  0.773170  0.091690
    C   C44   0.028670  0.008200  0.736230  0.245238
    C   C45   0.027790  0.007840  0.652920  0.130626
    C   C46   0.063570  0.076930  0.704640  -0.036268
    H   H20   0.092830  0.133750  0.712660  0.043921
    C   C47   0.997940  0.042170  0.704060  -0.079545
    H   H21   0.972910  0.070260  0.712120  0.042125
    C   C48   0.962180  0.973120  0.651800  -0.108987
    H   H22   0.907710  0.944310  0.616080  0.092617
    C   C49   0.002570  0.043400  0.204960  -0.074941
    H   H23   0.977650  0.072160  0.212170  0.041983
    C   C50   0.967740  0.975020  0.152630  -0.128712
    H   H24   0.914200  0.947440  0.116030  0.109004
    C   C51   0.070060  0.077650  0.207850  -0.040597
    H   H25   0.101020  0.134740  0.216970  0.046537
    C   C52   0.035180  0.009220  0.156020  0.135269
    C   C53   0.030200  0.007640  0.236900  0.266027
    C   C54   0.097710  0.041850  0.240370  -0.117333
    H   H26   0.151220  0.069450  0.277000  0.098536
    C   C55   0.062830  0.973410  0.187890  -0.045409
    H   H27   0.087690  0.944670  0.180500  0.041776
    C   C56   0.995330  0.939200  0.185110  -0.059609
    H   H28   0.964390  0.882160  0.176090  0.021674
    C   C57   0.196750  0.317100  0.454240  -0.204646
    C   C58   0.223470  0.376100  0.457290  -0.009262
    C   C59   0.255820  0.446860  0.461330  -0.069703
    C   C60   0.324540  0.495040  0.497330  -0.045520
    C   C61   0.356630  0.566340  0.502130  -0.080823
    C   C62   0.383010  0.625920  0.505960  -0.141346
    H   H29   0.356660  0.481060  0.523540  0.155094
    H   H30   0.223700  0.460850  0.435130  0.153475
    C   C63   0.563690  0.823250  0.514360  -0.108325
    C   C64   0.614200  0.846110  0.513680  -0.111783
    C   C65   0.673990  0.871650  0.512070  -0.030504
    C   C66   0.679220  0.905210  0.483290  -0.068504
    C   C67   0.732120  0.918830  0.473920  -0.059921
    C   C68   0.775580  0.927990  0.465430  -0.121689
    H   H31   0.640830  0.917900  0.463760  0.161911
    H   H32   0.712530  0.859160  0.531690  0.151331
    C   C69   0.149160  0.906570  0.456280  -0.548443
    C   C70   0.192860  0.892780  0.475130  0.223741
    C   C71   0.244300  0.874720  0.495630  -0.206066
    C   C72   0.295420  0.896690  0.489020  -0.006348
    C   C73   0.336840  0.865290  0.497900  -0.064328
    C   C74   0.369980  0.837320  0.503990  -0.162072
    H   H33   0.302250  0.933700  0.472580  0.134999
    H   H34   0.237590  0.837920  0.512240  0.177533
    C   C75   0.394310  0.624250  0.003200  -0.146317
    C   C76   0.367730  0.563060  0.996680  -0.083602
    C   C77   0.334750  0.490070  0.988970  -0.048119
    C   C78   0.265570  0.449190  0.963290  -0.078594
    C   C79   0.232940  0.378390  0.959150  -0.004462
    C   C80   0.205750  0.319490  0.956160  -0.201658
    H   H35   0.233570  0.469870  0.946660  0.157684
    H   H36   0.366820  0.469450  0.005610  0.157242
    C   C81   0.785480  0.930680  0.969270  -0.131120
    C   C82   0.740940  0.921750  0.976540  -0.053973
    C   C83   0.686180  0.908390  0.983840  -0.077104
    C   C84   0.686380  0.888180  0.020210  -0.007443
    C   C85   0.625200  0.859890  0.020110  -0.103137
    C   C86   0.573910  0.834190  0.019700  -0.120384
    H   H37   0.730660  0.887600  0.047500  0.135060
    H   H38   0.642060  0.909270  0.956670  0.159145
    C   C87   0.382410  0.840460  0.021270  -0.187617
    C   C88   0.348660  0.866790  0.020670  -0.032337
    C   C89   0.305140  0.894570  0.018250  -0.040131
    C   C90   0.282700  0.916350  0.982160  -0.178914
    C   C91   0.224140  0.923710  0.968390  0.206360
    C   C92   0.173940  0.928160  0.954320  -0.516586
    H   H39   0.303680  0.921460  0.958920  0.174658
    H   H40   0.284670  0.890030  0.041850  0.139501
    C   C93   0.871240  0.100590  0.419470  -0.302416
    C   C94   0.830300  0.117240  0.399590  0.057427
    C   C95   0.781620  0.138230  0.377990  -0.124640
    C   C96   0.721330  0.106460  0.372580  -0.041323
    C   C97   0.681670  0.139760  0.365470  -0.068115
    C   C98   0.649900  0.169120  0.361250  -0.149590
    H   H41   0.705410  0.059510  0.378900  0.146055
    H   H42   0.797430  0.184960  0.371430  0.167462
    C   C99   0.638500  0.382060  0.362740  -0.159310
    C   C100  0.664870  0.441480  0.366390  -0.049975
    C   C101  0.697720  0.512960  0.371720  -0.038727
    C   C102  0.763370  0.564590  0.413720  -0.111248
    C   C103  0.796790  0.636020  0.419090  0.075335
    C   C104  0.825150  0.695880  0.423870  -0.324012
    H   H43   0.792220  0.553060  0.444130  0.159618
    H   H44   0.668760  0.524360  0.341250  0.144488
    C   C105  0.289050  0.125050  0.449760  -0.210936
    C   C106  0.334450  0.138950  0.443120  -0.050044
    C   C107  0.387380  0.156080  0.433660  -0.043078
    C   C108  0.373030  0.153580  0.387180  -0.029624
    C   C109  0.427080  0.176340  0.378990  -0.108984
    C   C110  0.472420  0.195980  0.372280  -0.124647
    H   H45   0.320870  0.136390  0.355710  0.137667
    H   H46   0.439480  0.173220  0.465170  0.142659
    C   C111  0.881540  0.102820  0.924250  -0.312146
    C   C112  0.840650  0.119490  0.904320  0.061168
    C   C113  0.792040  0.140510  0.882600  -0.124321
    C   C114  0.731460  0.108440  0.876720  -0.042905
    C   C115  0.691790  0.141710  0.869490  -0.068789
    C   C116  0.660100  0.171160  0.865200  -0.147052
    H   H47   0.715280  0.061270  0.882760  0.146258
    H   H48   0.808100  0.187470  0.876320  0.167630
    C   C117  0.650370  0.385170  0.867770  -0.155015
    C   C118  0.677170  0.444780  0.871800  -0.053917
    C   C119  0.710420  0.516430  0.877510  -0.038568
    C   C120  0.776620  0.567260  0.918960  -0.106162
    C   C121  0.810290  0.638870  0.924690  0.063087
    C   C122  0.838590  0.698790  0.929550  -0.306192
    H   H49   0.805690  0.554940  0.948660  0.159482
    H   H50   0.681270  0.528660  0.847780  0.144825
    C   C123  0.296250  0.127940  0.950380  -0.238681
    C   C124  0.341890  0.141060  0.944090  -0.034472
    C   C125  0.395110  0.157400  0.934980  -0.048212
    C   C126  0.381590  0.155410  0.888780  -0.035449
    C   C127  0.436180  0.178260  0.881180  -0.104434
    C   C128  0.481970  0.198030  0.874980  -0.125781
    H   H51   0.329770  0.138890  0.857190  0.141482
    H   H52   0.446860  0.173870  0.966630  0.143389
